data_str_m3_o1_o16_pcu_sym.6
_audit_creation_date              2020-01-03
_audit_creation_method            'Materials Studio'
_symmetry_space_group_name_H-M    'P1'
_symmetry_Int_Tables_number       1
_symmetry_cell_setting            triclinic
loop_
_symmetry_equiv_pos_as_xyz
  x,y,z
_cell_length_a                    29.5550
_cell_length_b                    32.1302
_cell_length_c                    26.1619
_cell_angle_alpha                 90.0144
_cell_angle_beta                  70.3735
_cell_angle_gamma                 90.0550
loop_
_atom_site_label
_atom_site_type_symbol
_atom_site_fract_x
_atom_site_fract_y
_atom_site_fract_z
_atom_site_U_iso_or_equiv
_atom_site_adp_type
_atom_site_occupancy
Br1    Br    0.06298   0.15055   0.10084   0.00000  Uiso   1.00
C2     C     0.16668   0.24670   0.25005   0.00000  Uiso   1.00
C3     C     0.12274   0.15885   0.41093   0.00000  Uiso   1.00
C4     C     0.20211   0.31207   0.26407   0.00000  Uiso   1.00
C5     C     0.14014   0.16423   0.35209   0.00000  Uiso   1.00
C6     C     0.20206   0.02139   0.26411   0.00000  Uiso   1.00
C7     C     0.16658   0.04250   0.25016   0.00000  Uiso   1.00
C8     C     0.13109   0.02128   0.23629   0.00000  Uiso   1.00
C9     C     0.13112   0.31197   0.23629   0.00000  Uiso   1.00
C10    C     0.16665   0.29085   0.25013   0.00000  Uiso   1.00
C11    C     0.31273   0.13117   0.23863   0.00000  Uiso   1.00
C12    C     0.02724   0.13116   0.23880   0.00000  Uiso   1.00
C13    C     0.14096   0.14970   0.49389   0.00000  Uiso   1.00
C14    C     0.02046   0.20207   0.26182   0.00000  Uiso   1.00
C15    C     0.30589   0.20204   0.26186   0.00000  Uiso   1.00
C16    C     0.16663   0.08664   0.25004   0.00000  Uiso   1.00
C17    C     0.19321   0.16625   0.14773   0.00000  Uiso   1.00
C18    C     0.25742   0.12005   0.01103   0.00000  Uiso   1.00
C19    C     0.20878   0.15849   0.08965   0.00000  Uiso   1.00
C20    C     0.07673   0.17321   0.44106   0.00000  Uiso   1.00
C21    C     0.06109   0.17199   0.49730   0.00000  Uiso   1.00
C22    C     0.09254   0.16038   0.02430   0.00000  Uiso   1.00
C23    C     0.15293   0.14243   0.43783   0.00000  Uiso   1.00
C24    C     0.17824   0.14615   0.01618   0.00000  Uiso   1.00
C25    C     0.22141   0.12497   0.48752   0.00000  Uiso   1.00
C26    C     0.22804   0.10970   0.43568   0.00000  Uiso   1.00
C27    C     0.19465   0.11906   0.41055   0.00000  Uiso   1.00
C28    C     0.17542   0.16637   0.06402   0.00000  Uiso   1.00
C29    C     0.25049   0.13583   0.06284   0.00000  Uiso   1.00
H30    H     0.27666   0.12923   0.08245   0.00000  Uiso   1.00
H31    H     0.02431   0.18033   0.02003   0.00000  Uiso   1.00
H32    H     0.20151   0.10715   0.36998   0.00000  Uiso   1.00
H33    H     0.22948   0.29583   0.27531   0.00000  Uiso   1.00
H34    H     0.29758   0.10278   0.22914   0.00000  Uiso   1.00
H35    H     0.28509   0.23039   0.27150   0.00000  Uiso   1.00
H36    H     0.29015   0.10321   0.48999   0.00000  Uiso   1.00
H37    H     0.22941   0.03772   0.27539   0.00000  Uiso   1.00
H38    H     0.10373   0.03752   0.22502   0.00000  Uiso   1.00
H39    H     0.10375   0.29566   0.22505   0.00000  Uiso   1.00
H40    H     0.04797   0.10277   0.22937   0.00000  Uiso   1.00
H41    H     0.03559   0.23045   0.27138   0.00000  Uiso   1.00
H42    H     0.26006   0.09233   0.41358   0.00000  Uiso   1.00
H43    H     0.14657   0.18794   0.08269   0.00000  Uiso   1.00
H44    H     0.05256   0.18488   0.42112   0.00000  Uiso   1.00
N45    N     0.04760   0.16668   0.25002   0.00000  Uiso   1.00
N46    N     0.28573   0.16665   0.25001   0.00000  Uiso   1.00
O47    O     0.12846   0.22775   0.25001   0.00000  Uiso   1.00
O48    O     0.20490   0.22774   0.25001   0.00000  Uiso   1.00
O49    O     0.10947   0.16666   0.32681   0.00000  Uiso   1.00
O50    O     0.18591   0.16665   0.32681   0.00000  Uiso   1.00
O51    O     0.12843   0.10559   0.25000   0.00000  Uiso   1.00
O52    O     0.20488   0.10558   0.25000   0.00000  Uiso   1.00
O53    O     0.14742   0.16668   0.17319   0.00000  Uiso   1.00
O54    O     0.22387   0.16667   0.17319   0.00000  Uiso   1.00
Zn55   Zn    0.11562   0.16667   0.25000   0.00000  Uiso   1.00
Zn56   Zn    0.21771   0.16666   0.25000   0.00000  Uiso   1.00
Br57   Br    0.39632   0.15055   0.10084   0.00000  Uiso   1.00
C58    C     0.50001   0.24670   0.25005   0.00000  Uiso   1.00
C59    C     0.45607   0.15885   0.41093   0.00000  Uiso   1.00
C60    C     0.53545   0.31207   0.26407   0.00000  Uiso   1.00
C61    C     0.47347   0.16423   0.35209   0.00000  Uiso   1.00
C62    C     0.53540   0.02139   0.26411   0.00000  Uiso   1.00
C63    C     0.49991   0.04250   0.25016   0.00000  Uiso   1.00
C64    C     0.46443   0.02128   0.23629   0.00000  Uiso   1.00
C65    C     0.46445   0.31197   0.23629   0.00000  Uiso   1.00
C66    C     0.49999   0.29085   0.25013   0.00000  Uiso   1.00
C67    C     0.64607   0.13117   0.23863   0.00000  Uiso   1.00
C68    C     0.36057   0.13116   0.23880   0.00000  Uiso   1.00
C69    C     0.47430   0.14970   0.49389   0.00000  Uiso   1.00
C70    C     0.35379   0.20207   0.26182   0.00000  Uiso   1.00
C71    C     0.63923   0.20204   0.26186   0.00000  Uiso   1.00
C72    C     0.49996   0.08664   0.25004   0.00000  Uiso   1.00
C73    C     0.52654   0.16625   0.14773   0.00000  Uiso   1.00
C74    C     0.59075   0.12005   0.01103   0.00000  Uiso   1.00
C75    C     0.54211   0.15849   0.08965   0.00000  Uiso   1.00
C76    C     0.41006   0.17321   0.44106   0.00000  Uiso   1.00
C77    C     0.39443   0.17199   0.49730   0.00000  Uiso   1.00
C78    C     0.42587   0.16038   0.02430   0.00000  Uiso   1.00
C79    C     0.48627   0.14243   0.43783   0.00000  Uiso   1.00
C80    C     0.51158   0.14615   0.01618   0.00000  Uiso   1.00
C81    C     0.55474   0.12497   0.48752   0.00000  Uiso   1.00
C82    C     0.56137   0.10970   0.43568   0.00000  Uiso   1.00
C83    C     0.52799   0.11906   0.41055   0.00000  Uiso   1.00
C84    C     0.50876   0.16637   0.06402   0.00000  Uiso   1.00
C85    C     0.58382   0.13583   0.06284   0.00000  Uiso   1.00
H86    H     0.60999   0.12923   0.08245   0.00000  Uiso   1.00
H87    H     0.35765   0.18033   0.02003   0.00000  Uiso   1.00
H88    H     0.53484   0.10715   0.36998   0.00000  Uiso   1.00
H89    H     0.56282   0.29583   0.27531   0.00000  Uiso   1.00
H90    H     0.63091   0.10278   0.22914   0.00000  Uiso   1.00
H91    H     0.61843   0.23039   0.27150   0.00000  Uiso   1.00
H92    H     0.62348   0.10321   0.48999   0.00000  Uiso   1.00
H93    H     0.56274   0.03772   0.27539   0.00000  Uiso   1.00
H94    H     0.43706   0.03752   0.22502   0.00000  Uiso   1.00
H95    H     0.43708   0.29566   0.22505   0.00000  Uiso   1.00
H96    H     0.38130   0.10277   0.22937   0.00000  Uiso   1.00
H97    H     0.36893   0.23045   0.27138   0.00000  Uiso   1.00
H98    H     0.59339   0.09233   0.41358   0.00000  Uiso   1.00
H99    H     0.47990   0.18794   0.08269   0.00000  Uiso   1.00
H100   H     0.38590   0.18488   0.42112   0.00000  Uiso   1.00
N101   N     0.38093   0.16668   0.25002   0.00000  Uiso   1.00
N102   N     0.61906   0.16665   0.25001   0.00000  Uiso   1.00
O103   O     0.46179   0.22775   0.25001   0.00000  Uiso   1.00
O104   O     0.53823   0.22774   0.25001   0.00000  Uiso   1.00
O105   O     0.44280   0.16666   0.32681   0.00000  Uiso   1.00
O106   O     0.51924   0.16665   0.32681   0.00000  Uiso   1.00
O107   O     0.46177   0.10559   0.25000   0.00000  Uiso   1.00
O108   O     0.53821   0.10558   0.25000   0.00000  Uiso   1.00
O109   O     0.48076   0.16668   0.17319   0.00000  Uiso   1.00
O110   O     0.55720   0.16667   0.17319   0.00000  Uiso   1.00
Zn111  Zn    0.44896   0.16667   0.25000   0.00000  Uiso   1.00
Zn112  Zn    0.55104   0.16666   0.25000   0.00000  Uiso   1.00
Br113  Br    0.72965   0.15055   0.10084   0.00000  Uiso   1.00
C114   C     0.83335   0.24670   0.25005   0.00000  Uiso   1.00
C115   C     0.78941   0.15885   0.41093   0.00000  Uiso   1.00
C116   C     0.86878   0.31207   0.26407   0.00000  Uiso   1.00
C117   C     0.80681   0.16423   0.35209   0.00000  Uiso   1.00
C118   C     0.86873   0.02139   0.26411   0.00000  Uiso   1.00
C119   C     0.83325   0.04250   0.25016   0.00000  Uiso   1.00
C120   C     0.79776   0.02128   0.23629   0.00000  Uiso   1.00
C121   C     0.79778   0.31197   0.23629   0.00000  Uiso   1.00
C122   C     0.83332   0.29085   0.25013   0.00000  Uiso   1.00
C123   C     0.97940   0.13117   0.23863   0.00000  Uiso   1.00
C124   C     0.69390   0.13116   0.23880   0.00000  Uiso   1.00
C125   C     0.80763   0.14970   0.49389   0.00000  Uiso   1.00
C126   C     0.68712   0.20207   0.26182   0.00000  Uiso   1.00
C127   C     0.97256   0.20204   0.26186   0.00000  Uiso   1.00
C128   C     0.83329   0.08664   0.25004   0.00000  Uiso   1.00
C129   C     0.85987   0.16625   0.14773   0.00000  Uiso   1.00
C130   C     0.92408   0.12005   0.01103   0.00000  Uiso   1.00
C131   C     0.87545   0.15849   0.08965   0.00000  Uiso   1.00
C132   C     0.74340   0.17321   0.44106   0.00000  Uiso   1.00
C133   C     0.72776   0.17199   0.49730   0.00000  Uiso   1.00
C134   C     0.75921   0.16038   0.02430   0.00000  Uiso   1.00
C135   C     0.81960   0.14243   0.43783   0.00000  Uiso   1.00
C136   C     0.84491   0.14615   0.01618   0.00000  Uiso   1.00
C137   C     0.88808   0.12497   0.48752   0.00000  Uiso   1.00
C138   C     0.89471   0.10970   0.43568   0.00000  Uiso   1.00
C139   C     0.86132   0.11906   0.41055   0.00000  Uiso   1.00
C140   C     0.84209   0.16637   0.06402   0.00000  Uiso   1.00
C141   C     0.91716   0.13583   0.06284   0.00000  Uiso   1.00
H142   H     0.94332   0.12923   0.08245   0.00000  Uiso   1.00
H143   H     0.69098   0.18033   0.02003   0.00000  Uiso   1.00
H144   H     0.86818   0.10715   0.36998   0.00000  Uiso   1.00
H145   H     0.89615   0.29583   0.27531   0.00000  Uiso   1.00
H146   H     0.96424   0.10278   0.22914   0.00000  Uiso   1.00
H147   H     0.95176   0.23039   0.27150   0.00000  Uiso   1.00
H148   H     0.95681   0.10321   0.48999   0.00000  Uiso   1.00
H149   H     0.89607   0.03772   0.27539   0.00000  Uiso   1.00
H150   H     0.77040   0.03752   0.22502   0.00000  Uiso   1.00
H151   H     0.77041   0.29566   0.22505   0.00000  Uiso   1.00
H152   H     0.71464   0.10277   0.22937   0.00000  Uiso   1.00
H153   H     0.70226   0.23045   0.27138   0.00000  Uiso   1.00
H154   H     0.92673   0.09233   0.41358   0.00000  Uiso   1.00
H155   H     0.81323   0.18794   0.08269   0.00000  Uiso   1.00
H156   H     0.71923   0.18488   0.42112   0.00000  Uiso   1.00
N157   N     0.71426   0.16668   0.25002   0.00000  Uiso   1.00
N158   N     0.95239   0.16665   0.25001   0.00000  Uiso   1.00
O159   O     0.79512   0.22775   0.25001   0.00000  Uiso   1.00
O160   O     0.87157   0.22774   0.25001   0.00000  Uiso   1.00
O161   O     0.77613   0.16666   0.32681   0.00000  Uiso   1.00
O162   O     0.85258   0.16665   0.32681   0.00000  Uiso   1.00
O163   O     0.79510   0.10559   0.25000   0.00000  Uiso   1.00
O164   O     0.87154   0.10558   0.25000   0.00000  Uiso   1.00
O165   O     0.81409   0.16668   0.17319   0.00000  Uiso   1.00
O166   O     0.89053   0.16667   0.17319   0.00000  Uiso   1.00
Zn167  Zn    0.78229   0.16667   0.25000   0.00000  Uiso   1.00
Zn168  Zn    0.88438   0.16666   0.25000   0.00000  Uiso   1.00
Br169  Br    0.06298   0.48388   0.10084   0.00000  Uiso   1.00
C170   C     0.16668   0.58003   0.25005   0.00000  Uiso   1.00
C171   C     0.12274   0.49219   0.41093   0.00000  Uiso   1.00
C172   C     0.20211   0.64540   0.26407   0.00000  Uiso   1.00
C173   C     0.14014   0.49756   0.35209   0.00000  Uiso   1.00
C174   C     0.20206   0.35472   0.26411   0.00000  Uiso   1.00
C175   C     0.16658   0.37583   0.25016   0.00000  Uiso   1.00
C176   C     0.13109   0.35462   0.23629   0.00000  Uiso   1.00
C177   C     0.13112   0.64531   0.23629   0.00000  Uiso   1.00
C178   C     0.16665   0.62418   0.25013   0.00000  Uiso   1.00
C179   C     0.31273   0.46450   0.23863   0.00000  Uiso   1.00
C180   C     0.02724   0.46449   0.23880   0.00000  Uiso   1.00
C181   C     0.14096   0.48303   0.49389   0.00000  Uiso   1.00
C182   C     0.02046   0.53540   0.26182   0.00000  Uiso   1.00
C183   C     0.30589   0.53538   0.26186   0.00000  Uiso   1.00
C184   C     0.16663   0.41997   0.25004   0.00000  Uiso   1.00
C185   C     0.19321   0.49958   0.14773   0.00000  Uiso   1.00
C186   C     0.25742   0.45338   0.01103   0.00000  Uiso   1.00
C187   C     0.20878   0.49183   0.08965   0.00000  Uiso   1.00
C188   C     0.07673   0.50655   0.44106   0.00000  Uiso   1.00
C189   C     0.06109   0.50533   0.49730   0.00000  Uiso   1.00
C190   C     0.09254   0.49372   0.02430   0.00000  Uiso   1.00
C191   C     0.15293   0.47577   0.43783   0.00000  Uiso   1.00
C192   C     0.17824   0.47949   0.01618   0.00000  Uiso   1.00
C193   C     0.22141   0.45830   0.48752   0.00000  Uiso   1.00
C194   C     0.22804   0.44303   0.43568   0.00000  Uiso   1.00
C195   C     0.19465   0.45239   0.41055   0.00000  Uiso   1.00
C196   C     0.17542   0.49971   0.06402   0.00000  Uiso   1.00
C197   C     0.25049   0.46917   0.06284   0.00000  Uiso   1.00
H198   H     0.27666   0.46256   0.08245   0.00000  Uiso   1.00
H199   H     0.02431   0.51366   0.02003   0.00000  Uiso   1.00
H200   H     0.20151   0.44048   0.36998   0.00000  Uiso   1.00
H201   H     0.22948   0.62916   0.27531   0.00000  Uiso   1.00
H202   H     0.29758   0.43611   0.22914   0.00000  Uiso   1.00
H203   H     0.28509   0.56372   0.27150   0.00000  Uiso   1.00
H204   H     0.29015   0.43654   0.48999   0.00000  Uiso   1.00
H205   H     0.22941   0.37105   0.27539   0.00000  Uiso   1.00
H206   H     0.10373   0.37085   0.22502   0.00000  Uiso   1.00
H207   H     0.10375   0.62899   0.22505   0.00000  Uiso   1.00
H208   H     0.04797   0.43610   0.22937   0.00000  Uiso   1.00
H209   H     0.03559   0.56378   0.27138   0.00000  Uiso   1.00
H210   H     0.26006   0.42566   0.41358   0.00000  Uiso   1.00
H211   H     0.14657   0.52127   0.08269   0.00000  Uiso   1.00
H212   H     0.05256   0.51822   0.42112   0.00000  Uiso   1.00
N213   N     0.04760   0.50001   0.25002   0.00000  Uiso   1.00
N214   N     0.28573   0.49998   0.25001   0.00000  Uiso   1.00
O215   O     0.12846   0.56108   0.25001   0.00000  Uiso   1.00
O216   O     0.20490   0.56107   0.25001   0.00000  Uiso   1.00
O217   O     0.10947   0.50000   0.32681   0.00000  Uiso   1.00
O218   O     0.18591   0.49999   0.32681   0.00000  Uiso   1.00
O219   O     0.12843   0.43893   0.25000   0.00000  Uiso   1.00
O220   O     0.20488   0.43892   0.25000   0.00000  Uiso   1.00
O221   O     0.14742   0.50001   0.17319   0.00000  Uiso   1.00
O222   O     0.22387   0.50000   0.17319   0.00000  Uiso   1.00
Zn223  Zn    0.11562   0.50001   0.25000   0.00000  Uiso   1.00
Zn224  Zn    0.21771   0.49999   0.25000   0.00000  Uiso   1.00
Br225  Br    0.39632   0.48388   0.10084   0.00000  Uiso   1.00
C226   C     0.50001   0.58003   0.25005   0.00000  Uiso   1.00
C227   C     0.45607   0.49219   0.41093   0.00000  Uiso   1.00
C228   C     0.53545   0.64540   0.26407   0.00000  Uiso   1.00
C229   C     0.47347   0.49756   0.35209   0.00000  Uiso   1.00
C230   C     0.53540   0.35472   0.26411   0.00000  Uiso   1.00
C231   C     0.49991   0.37583   0.25016   0.00000  Uiso   1.00
C232   C     0.46443   0.35462   0.23629   0.00000  Uiso   1.00
C233   C     0.46445   0.64531   0.23629   0.00000  Uiso   1.00
C234   C     0.49999   0.62418   0.25013   0.00000  Uiso   1.00
C235   C     0.64607   0.46450   0.23863   0.00000  Uiso   1.00
C236   C     0.36057   0.46449   0.23880   0.00000  Uiso   1.00
C237   C     0.47430   0.48303   0.49389   0.00000  Uiso   1.00
C238   C     0.35379   0.53540   0.26182   0.00000  Uiso   1.00
C239   C     0.63923   0.53538   0.26186   0.00000  Uiso   1.00
C240   C     0.49996   0.41997   0.25004   0.00000  Uiso   1.00
C241   C     0.52654   0.49958   0.14773   0.00000  Uiso   1.00
C242   C     0.59075   0.45338   0.01103   0.00000  Uiso   1.00
C243   C     0.54211   0.49183   0.08965   0.00000  Uiso   1.00
C244   C     0.41006   0.50655   0.44106   0.00000  Uiso   1.00
C245   C     0.39443   0.50533   0.49730   0.00000  Uiso   1.00
C246   C     0.42587   0.49372   0.02430   0.00000  Uiso   1.00
C247   C     0.48627   0.47577   0.43783   0.00000  Uiso   1.00
C248   C     0.51158   0.47949   0.01618   0.00000  Uiso   1.00
C249   C     0.55474   0.45830   0.48752   0.00000  Uiso   1.00
C250   C     0.56137   0.44303   0.43568   0.00000  Uiso   1.00
C251   C     0.52799   0.45239   0.41055   0.00000  Uiso   1.00
C252   C     0.50876   0.49971   0.06402   0.00000  Uiso   1.00
C253   C     0.58382   0.46917   0.06284   0.00000  Uiso   1.00
H254   H     0.60999   0.46256   0.08245   0.00000  Uiso   1.00
H255   H     0.35765   0.51366   0.02003   0.00000  Uiso   1.00
H256   H     0.53484   0.44048   0.36998   0.00000  Uiso   1.00
H257   H     0.56282   0.62916   0.27531   0.00000  Uiso   1.00
H258   H     0.63091   0.43611   0.22914   0.00000  Uiso   1.00
H259   H     0.61843   0.56372   0.27150   0.00000  Uiso   1.00
H260   H     0.62348   0.43654   0.48999   0.00000  Uiso   1.00
H261   H     0.56274   0.37105   0.27539   0.00000  Uiso   1.00
H262   H     0.43706   0.37085   0.22502   0.00000  Uiso   1.00
H263   H     0.43708   0.62899   0.22505   0.00000  Uiso   1.00
H264   H     0.38130   0.43610   0.22937   0.00000  Uiso   1.00
H265   H     0.36893   0.56378   0.27138   0.00000  Uiso   1.00
H266   H     0.59339   0.42566   0.41358   0.00000  Uiso   1.00
H267   H     0.47990   0.52127   0.08269   0.00000  Uiso   1.00
H268   H     0.38590   0.51822   0.42112   0.00000  Uiso   1.00
N269   N     0.38093   0.50001   0.25002   0.00000  Uiso   1.00
N270   N     0.61906   0.49998   0.25001   0.00000  Uiso   1.00
O271   O     0.46179   0.56108   0.25001   0.00000  Uiso   1.00
O272   O     0.53823   0.56107   0.25001   0.00000  Uiso   1.00
O273   O     0.44280   0.50000   0.32681   0.00000  Uiso   1.00
O274   O     0.51924   0.49999   0.32681   0.00000  Uiso   1.00
O275   O     0.46177   0.43893   0.25000   0.00000  Uiso   1.00
O276   O     0.53821   0.43892   0.25000   0.00000  Uiso   1.00
O277   O     0.48076   0.50001   0.17319   0.00000  Uiso   1.00
O278   O     0.55720   0.50000   0.17319   0.00000  Uiso   1.00
Zn279  Zn    0.44896   0.50001   0.25000   0.00000  Uiso   1.00
Zn280  Zn    0.55104   0.49999   0.25000   0.00000  Uiso   1.00
Br281  Br    0.72965   0.48388   0.10084   0.00000  Uiso   1.00
C282   C     0.83335   0.58003   0.25005   0.00000  Uiso   1.00
C283   C     0.78941   0.49219   0.41093   0.00000  Uiso   1.00
C284   C     0.86878   0.64540   0.26407   0.00000  Uiso   1.00
C285   C     0.80681   0.49756   0.35209   0.00000  Uiso   1.00
C286   C     0.86873   0.35472   0.26411   0.00000  Uiso   1.00
C287   C     0.83325   0.37583   0.25016   0.00000  Uiso   1.00
C288   C     0.79776   0.35462   0.23629   0.00000  Uiso   1.00
C289   C     0.79778   0.64531   0.23629   0.00000  Uiso   1.00
C290   C     0.83332   0.62418   0.25013   0.00000  Uiso   1.00
C291   C     0.97940   0.46450   0.23863   0.00000  Uiso   1.00
C292   C     0.69390   0.46449   0.23880   0.00000  Uiso   1.00
C293   C     0.80763   0.48303   0.49389   0.00000  Uiso   1.00
C294   C     0.68712   0.53540   0.26182   0.00000  Uiso   1.00
C295   C     0.97256   0.53538   0.26186   0.00000  Uiso   1.00
C296   C     0.83329   0.41997   0.25004   0.00000  Uiso   1.00
C297   C     0.85987   0.49958   0.14773   0.00000  Uiso   1.00
C298   C     0.92408   0.45338   0.01103   0.00000  Uiso   1.00
C299   C     0.87545   0.49183   0.08965   0.00000  Uiso   1.00
C300   C     0.74340   0.50655   0.44106   0.00000  Uiso   1.00
C301   C     0.72776   0.50533   0.49730   0.00000  Uiso   1.00
C302   C     0.75921   0.49372   0.02430   0.00000  Uiso   1.00
C303   C     0.81960   0.47577   0.43783   0.00000  Uiso   1.00
C304   C     0.84491   0.47949   0.01618   0.00000  Uiso   1.00
C305   C     0.88808   0.45830   0.48752   0.00000  Uiso   1.00
C306   C     0.89471   0.44303   0.43568   0.00000  Uiso   1.00
C307   C     0.86132   0.45239   0.41055   0.00000  Uiso   1.00
C308   C     0.84209   0.49971   0.06402   0.00000  Uiso   1.00
C309   C     0.91716   0.46917   0.06284   0.00000  Uiso   1.00
H310   H     0.94332   0.46256   0.08245   0.00000  Uiso   1.00
H311   H     0.69098   0.51366   0.02003   0.00000  Uiso   1.00
H312   H     0.86818   0.44048   0.36998   0.00000  Uiso   1.00
H313   H     0.89615   0.62916   0.27531   0.00000  Uiso   1.00
H314   H     0.96424   0.43611   0.22914   0.00000  Uiso   1.00
H315   H     0.95176   0.56372   0.27150   0.00000  Uiso   1.00
H316   H     0.95681   0.43654   0.48999   0.00000  Uiso   1.00
H317   H     0.89607   0.37105   0.27539   0.00000  Uiso   1.00
H318   H     0.77040   0.37085   0.22502   0.00000  Uiso   1.00
H319   H     0.77041   0.62899   0.22505   0.00000  Uiso   1.00
H320   H     0.71464   0.43610   0.22937   0.00000  Uiso   1.00
H321   H     0.70226   0.56378   0.27138   0.00000  Uiso   1.00
H322   H     0.92673   0.42566   0.41358   0.00000  Uiso   1.00
H323   H     0.81323   0.52127   0.08269   0.00000  Uiso   1.00
H324   H     0.71923   0.51822   0.42112   0.00000  Uiso   1.00
N325   N     0.71426   0.50001   0.25002   0.00000  Uiso   1.00
N326   N     0.95239   0.49998   0.25001   0.00000  Uiso   1.00
O327   O     0.79512   0.56108   0.25001   0.00000  Uiso   1.00
O328   O     0.87157   0.56107   0.25001   0.00000  Uiso   1.00
O329   O     0.77613   0.50000   0.32681   0.00000  Uiso   1.00
O330   O     0.85258   0.49999   0.32681   0.00000  Uiso   1.00
O331   O     0.79510   0.43893   0.25000   0.00000  Uiso   1.00
O332   O     0.87154   0.43892   0.25000   0.00000  Uiso   1.00
O333   O     0.81409   0.50001   0.17319   0.00000  Uiso   1.00
O334   O     0.89053   0.50000   0.17319   0.00000  Uiso   1.00
Zn335  Zn    0.78229   0.50001   0.25000   0.00000  Uiso   1.00
Zn336  Zn    0.88438   0.49999   0.25000   0.00000  Uiso   1.00
Br337  Br    0.06298   0.81721   0.10084   0.00000  Uiso   1.00
C338   C     0.16668   0.91336   0.25005   0.00000  Uiso   1.00
C339   C     0.12274   0.82552   0.41093   0.00000  Uiso   1.00
C340   C     0.20211   0.97873   0.26407   0.00000  Uiso   1.00
C341   C     0.14014   0.83090   0.35209   0.00000  Uiso   1.00
C342   C     0.20206   0.68805   0.26411   0.00000  Uiso   1.00
C343   C     0.16658   0.70917   0.25016   0.00000  Uiso   1.00
C344   C     0.13109   0.68795   0.23629   0.00000  Uiso   1.00
C345   C     0.13112   0.97864   0.23629   0.00000  Uiso   1.00
C346   C     0.16665   0.95752   0.25013   0.00000  Uiso   1.00
C347   C     0.31273   0.79784   0.23863   0.00000  Uiso   1.00
C348   C     0.02724   0.79782   0.23880   0.00000  Uiso   1.00
C349   C     0.14096   0.81636   0.49389   0.00000  Uiso   1.00
C350   C     0.02046   0.86874   0.26182   0.00000  Uiso   1.00
C351   C     0.30589   0.86871   0.26186   0.00000  Uiso   1.00
C352   C     0.16663   0.75331   0.25004   0.00000  Uiso   1.00
C353   C     0.19321   0.83291   0.14773   0.00000  Uiso   1.00
C354   C     0.25742   0.78672   0.01103   0.00000  Uiso   1.00
C355   C     0.20878   0.82516   0.08965   0.00000  Uiso   1.00
C356   C     0.07673   0.83988   0.44106   0.00000  Uiso   1.00
C357   C     0.06109   0.83866   0.49730   0.00000  Uiso   1.00
C358   C     0.09254   0.82705   0.02430   0.00000  Uiso   1.00
C359   C     0.15293   0.80910   0.43783   0.00000  Uiso   1.00
C360   C     0.17824   0.81282   0.01618   0.00000  Uiso   1.00
C361   C     0.22141   0.79164   0.48752   0.00000  Uiso   1.00
C362   C     0.22804   0.77637   0.43568   0.00000  Uiso   1.00
C363   C     0.19465   0.78572   0.41055   0.00000  Uiso   1.00
C364   C     0.17542   0.83304   0.06402   0.00000  Uiso   1.00
C365   C     0.25049   0.80250   0.06284   0.00000  Uiso   1.00
H366   H     0.27666   0.79590   0.08245   0.00000  Uiso   1.00
H367   H     0.02431   0.84700   0.02003   0.00000  Uiso   1.00
H368   H     0.20151   0.77382   0.36998   0.00000  Uiso   1.00
H369   H     0.22948   0.96250   0.27531   0.00000  Uiso   1.00
H370   H     0.29758   0.76944   0.22914   0.00000  Uiso   1.00
H371   H     0.28509   0.89705   0.27150   0.00000  Uiso   1.00
H372   H     0.29015   0.76988   0.48999   0.00000  Uiso   1.00
H373   H     0.22941   0.70438   0.27539   0.00000  Uiso   1.00
H374   H     0.10373   0.70418   0.22502   0.00000  Uiso   1.00
H375   H     0.10375   0.96232   0.22505   0.00000  Uiso   1.00
H376   H     0.04797   0.76943   0.22937   0.00000  Uiso   1.00
H377   H     0.03559   0.89711   0.27138   0.00000  Uiso   1.00
H378   H     0.26006   0.75900   0.41358   0.00000  Uiso   1.00
H379   H     0.14657   0.85460   0.08269   0.00000  Uiso   1.00
H380   H     0.05256   0.85155   0.42112   0.00000  Uiso   1.00
N381   N     0.04760   0.83334   0.25002   0.00000  Uiso   1.00
N382   N     0.28573   0.83331   0.25001   0.00000  Uiso   1.00
O383   O     0.12846   0.89442   0.25001   0.00000  Uiso   1.00
O384   O     0.20490   0.89441   0.25001   0.00000  Uiso   1.00
O385   O     0.10947   0.83333   0.32681   0.00000  Uiso   1.00
O386   O     0.18591   0.83332   0.32681   0.00000  Uiso   1.00
O387   O     0.12843   0.77226   0.25000   0.00000  Uiso   1.00
O388   O     0.20488   0.77225   0.25000   0.00000  Uiso   1.00
O389   O     0.14742   0.83335   0.17319   0.00000  Uiso   1.00
O390   O     0.22387   0.83334   0.17319   0.00000  Uiso   1.00
Zn391  Zn    0.11562   0.83334   0.25000   0.00000  Uiso   1.00
Zn392  Zn    0.21771   0.83333   0.25000   0.00000  Uiso   1.00
Br393  Br    0.39632   0.81721   0.10084   0.00000  Uiso   1.00
C394   C     0.50001   0.91336   0.25005   0.00000  Uiso   1.00
C395   C     0.45607   0.82552   0.41093   0.00000  Uiso   1.00
C396   C     0.53545   0.97873   0.26407   0.00000  Uiso   1.00
C397   C     0.47347   0.83090   0.35209   0.00000  Uiso   1.00
C398   C     0.53540   0.68805   0.26411   0.00000  Uiso   1.00
C399   C     0.49991   0.70917   0.25016   0.00000  Uiso   1.00
C400   C     0.46443   0.68795   0.23629   0.00000  Uiso   1.00
C401   C     0.46445   0.97864   0.23629   0.00000  Uiso   1.00
C402   C     0.49999   0.95752   0.25013   0.00000  Uiso   1.00
C403   C     0.64607   0.79784   0.23863   0.00000  Uiso   1.00
C404   C     0.36057   0.79782   0.23880   0.00000  Uiso   1.00
C405   C     0.47430   0.81636   0.49389   0.00000  Uiso   1.00
C406   C     0.35379   0.86874   0.26182   0.00000  Uiso   1.00
C407   C     0.63923   0.86871   0.26186   0.00000  Uiso   1.00
C408   C     0.49996   0.75331   0.25004   0.00000  Uiso   1.00
C409   C     0.52654   0.83291   0.14773   0.00000  Uiso   1.00
C410   C     0.59075   0.78672   0.01103   0.00000  Uiso   1.00
C411   C     0.54211   0.82516   0.08965   0.00000  Uiso   1.00
C412   C     0.41006   0.83988   0.44106   0.00000  Uiso   1.00
C413   C     0.39443   0.83866   0.49730   0.00000  Uiso   1.00
C414   C     0.42587   0.82705   0.02430   0.00000  Uiso   1.00
C415   C     0.48627   0.80910   0.43783   0.00000  Uiso   1.00
C416   C     0.51158   0.81282   0.01618   0.00000  Uiso   1.00
C417   C     0.55474   0.79164   0.48752   0.00000  Uiso   1.00
C418   C     0.56137   0.77637   0.43568   0.00000  Uiso   1.00
C419   C     0.52799   0.78572   0.41055   0.00000  Uiso   1.00
C420   C     0.50876   0.83304   0.06402   0.00000  Uiso   1.00
C421   C     0.58382   0.80250   0.06284   0.00000  Uiso   1.00
H422   H     0.60999   0.79590   0.08245   0.00000  Uiso   1.00
H423   H     0.35765   0.84700   0.02003   0.00000  Uiso   1.00
H424   H     0.53484   0.77382   0.36998   0.00000  Uiso   1.00
H425   H     0.56282   0.96250   0.27531   0.00000  Uiso   1.00
H426   H     0.63091   0.76944   0.22914   0.00000  Uiso   1.00
H427   H     0.61843   0.89705   0.27150   0.00000  Uiso   1.00
H428   H     0.62348   0.76988   0.48999   0.00000  Uiso   1.00
H429   H     0.56274   0.70438   0.27539   0.00000  Uiso   1.00
H430   H     0.43706   0.70418   0.22502   0.00000  Uiso   1.00
H431   H     0.43708   0.96232   0.22505   0.00000  Uiso   1.00
H432   H     0.38130   0.76943   0.22937   0.00000  Uiso   1.00
H433   H     0.36893   0.89711   0.27138   0.00000  Uiso   1.00
H434   H     0.59339   0.75900   0.41358   0.00000  Uiso   1.00
H435   H     0.47990   0.85460   0.08269   0.00000  Uiso   1.00
H436   H     0.38590   0.85155   0.42112   0.00000  Uiso   1.00
N437   N     0.38093   0.83334   0.25002   0.00000  Uiso   1.00
N438   N     0.61906   0.83331   0.25001   0.00000  Uiso   1.00
O439   O     0.46179   0.89442   0.25001   0.00000  Uiso   1.00
O440   O     0.53823   0.89441   0.25001   0.00000  Uiso   1.00
O441   O     0.44280   0.83333   0.32681   0.00000  Uiso   1.00
O442   O     0.51924   0.83332   0.32681   0.00000  Uiso   1.00
O443   O     0.46177   0.77226   0.25000   0.00000  Uiso   1.00
O444   O     0.53821   0.77225   0.25000   0.00000  Uiso   1.00
O445   O     0.48076   0.83335   0.17319   0.00000  Uiso   1.00
O446   O     0.55720   0.83334   0.17319   0.00000  Uiso   1.00
Zn447  Zn    0.44896   0.83334   0.25000   0.00000  Uiso   1.00
Zn448  Zn    0.55104   0.83333   0.25000   0.00000  Uiso   1.00
Br449  Br    0.72965   0.81721   0.10084   0.00000  Uiso   1.00
C450   C     0.83335   0.91336   0.25005   0.00000  Uiso   1.00
C451   C     0.78941   0.82552   0.41093   0.00000  Uiso   1.00
C452   C     0.86878   0.97873   0.26407   0.00000  Uiso   1.00
C453   C     0.80681   0.83090   0.35209   0.00000  Uiso   1.00
C454   C     0.86873   0.68805   0.26411   0.00000  Uiso   1.00
C455   C     0.83325   0.70917   0.25016   0.00000  Uiso   1.00
C456   C     0.79776   0.68795   0.23629   0.00000  Uiso   1.00
C457   C     0.79778   0.97864   0.23629   0.00000  Uiso   1.00
C458   C     0.83332   0.95752   0.25013   0.00000  Uiso   1.00
C459   C     0.97940   0.79784   0.23863   0.00000  Uiso   1.00
C460   C     0.69390   0.79782   0.23880   0.00000  Uiso   1.00
C461   C     0.80763   0.81636   0.49389   0.00000  Uiso   1.00
C462   C     0.68712   0.86874   0.26182   0.00000  Uiso   1.00
C463   C     0.97256   0.86871   0.26186   0.00000  Uiso   1.00
C464   C     0.83329   0.75331   0.25004   0.00000  Uiso   1.00
C465   C     0.85987   0.83291   0.14773   0.00000  Uiso   1.00
C466   C     0.92408   0.78672   0.01103   0.00000  Uiso   1.00
C467   C     0.87545   0.82516   0.08965   0.00000  Uiso   1.00
C468   C     0.74340   0.83988   0.44106   0.00000  Uiso   1.00
C469   C     0.72776   0.83866   0.49730   0.00000  Uiso   1.00
C470   C     0.75921   0.82705   0.02430   0.00000  Uiso   1.00
C471   C     0.81960   0.80910   0.43783   0.00000  Uiso   1.00
C472   C     0.84491   0.81282   0.01618   0.00000  Uiso   1.00
C473   C     0.88808   0.79164   0.48752   0.00000  Uiso   1.00
C474   C     0.89471   0.77637   0.43568   0.00000  Uiso   1.00
C475   C     0.86132   0.78572   0.41055   0.00000  Uiso   1.00
C476   C     0.84209   0.83304   0.06402   0.00000  Uiso   1.00
C477   C     0.91716   0.80250   0.06284   0.00000  Uiso   1.00
H478   H     0.94332   0.79590   0.08245   0.00000  Uiso   1.00
H479   H     0.69098   0.84700   0.02003   0.00000  Uiso   1.00
H480   H     0.86818   0.77382   0.36998   0.00000  Uiso   1.00
H481   H     0.89615   0.96250   0.27531   0.00000  Uiso   1.00
H482   H     0.96424   0.76944   0.22914   0.00000  Uiso   1.00
H483   H     0.95176   0.89705   0.27150   0.00000  Uiso   1.00
H484   H     0.95681   0.76988   0.48999   0.00000  Uiso   1.00
H485   H     0.89607   0.70438   0.27539   0.00000  Uiso   1.00
H486   H     0.77040   0.70418   0.22502   0.00000  Uiso   1.00
H487   H     0.77041   0.96232   0.22505   0.00000  Uiso   1.00
H488   H     0.71464   0.76943   0.22937   0.00000  Uiso   1.00
H489   H     0.70226   0.89711   0.27138   0.00000  Uiso   1.00
H490   H     0.92673   0.75900   0.41358   0.00000  Uiso   1.00
H491   H     0.81323   0.85460   0.08269   0.00000  Uiso   1.00
H492   H     0.71923   0.85155   0.42112   0.00000  Uiso   1.00
N493   N     0.71426   0.83334   0.25002   0.00000  Uiso   1.00
N494   N     0.95239   0.83331   0.25001   0.00000  Uiso   1.00
O495   O     0.79512   0.89442   0.25001   0.00000  Uiso   1.00
O496   O     0.87157   0.89441   0.25001   0.00000  Uiso   1.00
O497   O     0.77613   0.83333   0.32681   0.00000  Uiso   1.00
O498   O     0.85258   0.83332   0.32681   0.00000  Uiso   1.00
O499   O     0.79510   0.77226   0.25000   0.00000  Uiso   1.00
O500   O     0.87154   0.77225   0.25000   0.00000  Uiso   1.00
O501   O     0.81409   0.83335   0.17319   0.00000  Uiso   1.00
O502   O     0.89053   0.83334   0.17319   0.00000  Uiso   1.00
Zn503  Zn    0.78229   0.83334   0.25000   0.00000  Uiso   1.00
Zn504  Zn    0.88438   0.83333   0.25000   0.00000  Uiso   1.00
Br505  Br    0.06298   0.15055   0.60084   0.00000  Uiso   1.00
C506   C     0.16668   0.24670   0.75005   0.00000  Uiso   1.00
C507   C     0.12274   0.15885   0.91093   0.00000  Uiso   1.00
C508   C     0.20211   0.31207   0.76407   0.00000  Uiso   1.00
C509   C     0.14014   0.16423   0.85209   0.00000  Uiso   1.00
C510   C     0.20206   0.02139   0.76411   0.00000  Uiso   1.00
C511   C     0.16658   0.04250   0.75016   0.00000  Uiso   1.00
C512   C     0.13109   0.02128   0.73629   0.00000  Uiso   1.00
C513   C     0.13112   0.31197   0.73629   0.00000  Uiso   1.00
C514   C     0.16665   0.29085   0.75013   0.00000  Uiso   1.00
C515   C     0.31273   0.13117   0.73863   0.00000  Uiso   1.00
C516   C     0.02724   0.13116   0.73880   0.00000  Uiso   1.00
C517   C     0.14096   0.14970   0.99389   0.00000  Uiso   1.00
C518   C     0.02046   0.20207   0.76182   0.00000  Uiso   1.00
C519   C     0.30589   0.20204   0.76186   0.00000  Uiso   1.00
C520   C     0.16663   0.08664   0.75004   0.00000  Uiso   1.00
C521   C     0.19321   0.16625   0.64773   0.00000  Uiso   1.00
C522   C     0.25742   0.12005   0.51103   0.00000  Uiso   1.00
C523   C     0.20878   0.15849   0.58965   0.00000  Uiso   1.00
C524   C     0.07673   0.17321   0.94106   0.00000  Uiso   1.00
C525   C     0.06109   0.17199   0.99730   0.00000  Uiso   1.00
C526   C     0.09254   0.16038   0.52430   0.00000  Uiso   1.00
C527   C     0.15293   0.14243   0.93783   0.00000  Uiso   1.00
C528   C     0.17824   0.14615   0.51618   0.00000  Uiso   1.00
C529   C     0.22141   0.12497   0.98752   0.00000  Uiso   1.00
C530   C     0.22804   0.10970   0.93568   0.00000  Uiso   1.00
C531   C     0.19465   0.11906   0.91055   0.00000  Uiso   1.00
C532   C     0.17542   0.16637   0.56402   0.00000  Uiso   1.00
C533   C     0.25049   0.13583   0.56284   0.00000  Uiso   1.00
H534   H     0.27666   0.12923   0.58245   0.00000  Uiso   1.00
H535   H     0.02431   0.18033   0.52003   0.00000  Uiso   1.00
H536   H     0.20151   0.10715   0.86998   0.00000  Uiso   1.00
H537   H     0.22948   0.29583   0.77531   0.00000  Uiso   1.00
H538   H     0.29758   0.10278   0.72914   0.00000  Uiso   1.00
H539   H     0.28509   0.23039   0.77150   0.00000  Uiso   1.00
H540   H     0.29015   0.10321   0.98999   0.00000  Uiso   1.00
H541   H     0.22941   0.03772   0.77539   0.00000  Uiso   1.00
H542   H     0.10373   0.03752   0.72502   0.00000  Uiso   1.00
H543   H     0.10375   0.29566   0.72505   0.00000  Uiso   1.00
H544   H     0.04797   0.10277   0.72937   0.00000  Uiso   1.00
H545   H     0.03559   0.23045   0.77138   0.00000  Uiso   1.00
H546   H     0.26006   0.09233   0.91358   0.00000  Uiso   1.00
H547   H     0.14657   0.18794   0.58269   0.00000  Uiso   1.00
H548   H     0.05256   0.18488   0.92112   0.00000  Uiso   1.00
N549   N     0.04760   0.16668   0.75002   0.00000  Uiso   1.00
N550   N     0.28573   0.16665   0.75001   0.00000  Uiso   1.00
O551   O     0.12846   0.22775   0.75001   0.00000  Uiso   1.00
O552   O     0.20490   0.22774   0.75001   0.00000  Uiso   1.00
O553   O     0.10947   0.16666   0.82681   0.00000  Uiso   1.00
O554   O     0.18591   0.16665   0.82681   0.00000  Uiso   1.00
O555   O     0.12843   0.10559   0.75000   0.00000  Uiso   1.00
O556   O     0.20488   0.10558   0.75000   0.00000  Uiso   1.00
O557   O     0.14742   0.16668   0.67319   0.00000  Uiso   1.00
O558   O     0.22387   0.16667   0.67319   0.00000  Uiso   1.00
Zn559  Zn    0.11562   0.16667   0.75000   0.00000  Uiso   1.00
Zn560  Zn    0.21771   0.16666   0.75000   0.00000  Uiso   1.00
Br561  Br    0.39632   0.15055   0.60084   0.00000  Uiso   1.00
C562   C     0.50001   0.24670   0.75005   0.00000  Uiso   1.00
C563   C     0.45607   0.15885   0.91093   0.00000  Uiso   1.00
C564   C     0.53545   0.31207   0.76407   0.00000  Uiso   1.00
C565   C     0.47347   0.16423   0.85209   0.00000  Uiso   1.00
C566   C     0.53540   0.02139   0.76411   0.00000  Uiso   1.00
C567   C     0.49991   0.04250   0.75016   0.00000  Uiso   1.00
C568   C     0.46443   0.02128   0.73629   0.00000  Uiso   1.00
C569   C     0.46445   0.31197   0.73629   0.00000  Uiso   1.00
C570   C     0.49999   0.29085   0.75013   0.00000  Uiso   1.00
C571   C     0.64607   0.13117   0.73863   0.00000  Uiso   1.00
C572   C     0.36057   0.13116   0.73880   0.00000  Uiso   1.00
C573   C     0.47430   0.14970   0.99389   0.00000  Uiso   1.00
C574   C     0.35379   0.20207   0.76182   0.00000  Uiso   1.00
C575   C     0.63923   0.20204   0.76186   0.00000  Uiso   1.00
C576   C     0.49996   0.08664   0.75004   0.00000  Uiso   1.00
C577   C     0.52654   0.16625   0.64773   0.00000  Uiso   1.00
C578   C     0.59075   0.12005   0.51103   0.00000  Uiso   1.00
C579   C     0.54211   0.15849   0.58965   0.00000  Uiso   1.00
C580   C     0.41006   0.17321   0.94106   0.00000  Uiso   1.00
C581   C     0.39443   0.17199   0.99730   0.00000  Uiso   1.00
C582   C     0.42587   0.16038   0.52430   0.00000  Uiso   1.00
C583   C     0.48627   0.14243   0.93783   0.00000  Uiso   1.00
C584   C     0.51158   0.14615   0.51618   0.00000  Uiso   1.00
C585   C     0.55474   0.12497   0.98752   0.00000  Uiso   1.00
C586   C     0.56137   0.10970   0.93568   0.00000  Uiso   1.00
C587   C     0.52799   0.11906   0.91055   0.00000  Uiso   1.00
C588   C     0.50876   0.16637   0.56402   0.00000  Uiso   1.00
C589   C     0.58382   0.13583   0.56284   0.00000  Uiso   1.00
H590   H     0.60999   0.12923   0.58245   0.00000  Uiso   1.00
H591   H     0.35765   0.18033   0.52003   0.00000  Uiso   1.00
H592   H     0.53484   0.10715   0.86998   0.00000  Uiso   1.00
H593   H     0.56282   0.29583   0.77531   0.00000  Uiso   1.00
H594   H     0.63091   0.10278   0.72914   0.00000  Uiso   1.00
H595   H     0.61843   0.23039   0.77150   0.00000  Uiso   1.00
H596   H     0.62348   0.10321   0.98999   0.00000  Uiso   1.00
H597   H     0.56274   0.03772   0.77539   0.00000  Uiso   1.00
H598   H     0.43706   0.03752   0.72502   0.00000  Uiso   1.00
H599   H     0.43708   0.29566   0.72505   0.00000  Uiso   1.00
H600   H     0.38130   0.10277   0.72937   0.00000  Uiso   1.00
H601   H     0.36893   0.23045   0.77138   0.00000  Uiso   1.00
H602   H     0.59339   0.09233   0.91358   0.00000  Uiso   1.00
H603   H     0.47990   0.18794   0.58269   0.00000  Uiso   1.00
H604   H     0.38590   0.18488   0.92112   0.00000  Uiso   1.00
N605   N     0.38093   0.16668   0.75002   0.00000  Uiso   1.00
N606   N     0.61906   0.16665   0.75001   0.00000  Uiso   1.00
O607   O     0.46179   0.22775   0.75001   0.00000  Uiso   1.00
O608   O     0.53823   0.22774   0.75001   0.00000  Uiso   1.00
O609   O     0.44280   0.16666   0.82681   0.00000  Uiso   1.00
O610   O     0.51924   0.16665   0.82681   0.00000  Uiso   1.00
O611   O     0.46177   0.10559   0.75000   0.00000  Uiso   1.00
O612   O     0.53821   0.10558   0.75000   0.00000  Uiso   1.00
O613   O     0.48076   0.16668   0.67319   0.00000  Uiso   1.00
O614   O     0.55720   0.16667   0.67319   0.00000  Uiso   1.00
Zn615  Zn    0.44896   0.16667   0.75000   0.00000  Uiso   1.00
Zn616  Zn    0.55104   0.16666   0.75000   0.00000  Uiso   1.00
Br617  Br    0.72965   0.15055   0.60084   0.00000  Uiso   1.00
C618   C     0.83335   0.24670   0.75005   0.00000  Uiso   1.00
C619   C     0.78941   0.15885   0.91093   0.00000  Uiso   1.00
C620   C     0.86878   0.31207   0.76407   0.00000  Uiso   1.00
C621   C     0.80681   0.16423   0.85209   0.00000  Uiso   1.00
C622   C     0.86873   0.02139   0.76411   0.00000  Uiso   1.00
C623   C     0.83325   0.04250   0.75016   0.00000  Uiso   1.00
C624   C     0.79776   0.02128   0.73629   0.00000  Uiso   1.00
C625   C     0.79778   0.31197   0.73629   0.00000  Uiso   1.00
C626   C     0.83332   0.29085   0.75013   0.00000  Uiso   1.00
C627   C     0.97940   0.13117   0.73863   0.00000  Uiso   1.00
C628   C     0.69390   0.13116   0.73880   0.00000  Uiso   1.00
C629   C     0.80763   0.14970   0.99389   0.00000  Uiso   1.00
C630   C     0.68712   0.20207   0.76182   0.00000  Uiso   1.00
C631   C     0.97256   0.20204   0.76186   0.00000  Uiso   1.00
C632   C     0.83329   0.08664   0.75004   0.00000  Uiso   1.00
C633   C     0.85987   0.16625   0.64773   0.00000  Uiso   1.00
C634   C     0.92408   0.12005   0.51103   0.00000  Uiso   1.00
C635   C     0.87545   0.15849   0.58965   0.00000  Uiso   1.00
C636   C     0.74340   0.17321   0.94106   0.00000  Uiso   1.00
C637   C     0.72776   0.17199   0.99730   0.00000  Uiso   1.00
C638   C     0.75921   0.16038   0.52430   0.00000  Uiso   1.00
C639   C     0.81960   0.14243   0.93783   0.00000  Uiso   1.00
C640   C     0.84491   0.14615   0.51618   0.00000  Uiso   1.00
C641   C     0.88808   0.12497   0.98752   0.00000  Uiso   1.00
C642   C     0.89471   0.10970   0.93568   0.00000  Uiso   1.00
C643   C     0.86132   0.11906   0.91055   0.00000  Uiso   1.00
C644   C     0.84209   0.16637   0.56402   0.00000  Uiso   1.00
C645   C     0.91716   0.13583   0.56284   0.00000  Uiso   1.00
H646   H     0.94332   0.12923   0.58245   0.00000  Uiso   1.00
H647   H     0.69098   0.18033   0.52003   0.00000  Uiso   1.00
H648   H     0.86818   0.10715   0.86998   0.00000  Uiso   1.00
H649   H     0.89615   0.29583   0.77531   0.00000  Uiso   1.00
H650   H     0.96424   0.10278   0.72914   0.00000  Uiso   1.00
H651   H     0.95176   0.23039   0.77150   0.00000  Uiso   1.00
H652   H     0.95681   0.10321   0.98999   0.00000  Uiso   1.00
H653   H     0.89607   0.03772   0.77539   0.00000  Uiso   1.00
H654   H     0.77040   0.03752   0.72502   0.00000  Uiso   1.00
H655   H     0.77041   0.29566   0.72505   0.00000  Uiso   1.00
H656   H     0.71464   0.10277   0.72937   0.00000  Uiso   1.00
H657   H     0.70226   0.23045   0.77138   0.00000  Uiso   1.00
H658   H     0.92673   0.09233   0.91358   0.00000  Uiso   1.00
H659   H     0.81323   0.18794   0.58269   0.00000  Uiso   1.00
H660   H     0.71923   0.18488   0.92112   0.00000  Uiso   1.00
N661   N     0.71426   0.16668   0.75002   0.00000  Uiso   1.00
N662   N     0.95239   0.16665   0.75001   0.00000  Uiso   1.00
O663   O     0.79512   0.22775   0.75001   0.00000  Uiso   1.00
O664   O     0.87157   0.22774   0.75001   0.00000  Uiso   1.00
O665   O     0.77613   0.16666   0.82681   0.00000  Uiso   1.00
O666   O     0.85258   0.16665   0.82681   0.00000  Uiso   1.00
O667   O     0.79510   0.10559   0.75000   0.00000  Uiso   1.00
O668   O     0.87154   0.10558   0.75000   0.00000  Uiso   1.00
O669   O     0.81409   0.16668   0.67319   0.00000  Uiso   1.00
O670   O     0.89053   0.16667   0.67319   0.00000  Uiso   1.00
Zn671  Zn    0.78229   0.16667   0.75000   0.00000  Uiso   1.00
Zn672  Zn    0.88438   0.16666   0.75000   0.00000  Uiso   1.00
Br673  Br    0.06298   0.48388   0.60084   0.00000  Uiso   1.00
C674   C     0.16668   0.58003   0.75005   0.00000  Uiso   1.00
C675   C     0.12274   0.49219   0.91093   0.00000  Uiso   1.00
C676   C     0.20211   0.64540   0.76407   0.00000  Uiso   1.00
C677   C     0.14014   0.49756   0.85209   0.00000  Uiso   1.00
C678   C     0.20206   0.35472   0.76411   0.00000  Uiso   1.00
C679   C     0.16658   0.37583   0.75016   0.00000  Uiso   1.00
C680   C     0.13109   0.35462   0.73629   0.00000  Uiso   1.00
C681   C     0.13112   0.64531   0.73629   0.00000  Uiso   1.00
C682   C     0.16665   0.62418   0.75013   0.00000  Uiso   1.00
C683   C     0.31273   0.46450   0.73863   0.00000  Uiso   1.00
C684   C     0.02724   0.46449   0.73880   0.00000  Uiso   1.00
C685   C     0.14096   0.48303   0.99389   0.00000  Uiso   1.00
C686   C     0.02046   0.53540   0.76182   0.00000  Uiso   1.00
C687   C     0.30589   0.53538   0.76186   0.00000  Uiso   1.00
C688   C     0.16663   0.41997   0.75004   0.00000  Uiso   1.00
C689   C     0.19321   0.49958   0.64773   0.00000  Uiso   1.00
C690   C     0.25742   0.45338   0.51103   0.00000  Uiso   1.00
C691   C     0.20878   0.49183   0.58965   0.00000  Uiso   1.00
C692   C     0.07673   0.50655   0.94106   0.00000  Uiso   1.00
C693   C     0.06109   0.50533   0.99730   0.00000  Uiso   1.00
C694   C     0.09254   0.49372   0.52430   0.00000  Uiso   1.00
C695   C     0.15293   0.47577   0.93783   0.00000  Uiso   1.00
C696   C     0.17824   0.47949   0.51618   0.00000  Uiso   1.00
C697   C     0.22141   0.45830   0.98752   0.00000  Uiso   1.00
C698   C     0.22804   0.44303   0.93568   0.00000  Uiso   1.00
C699   C     0.19465   0.45239   0.91055   0.00000  Uiso   1.00
C700   C     0.17542   0.49971   0.56402   0.00000  Uiso   1.00
C701   C     0.25049   0.46917   0.56284   0.00000  Uiso   1.00
H702   H     0.27666   0.46256   0.58245   0.00000  Uiso   1.00
H703   H     0.02431   0.51366   0.52003   0.00000  Uiso   1.00
H704   H     0.20151   0.44048   0.86998   0.00000  Uiso   1.00
H705   H     0.22948   0.62916   0.77531   0.00000  Uiso   1.00
H706   H     0.29758   0.43611   0.72914   0.00000  Uiso   1.00
H707   H     0.28509   0.56372   0.77150   0.00000  Uiso   1.00
H708   H     0.29015   0.43654   0.98999   0.00000  Uiso   1.00
H709   H     0.22941   0.37105   0.77539   0.00000  Uiso   1.00
H710   H     0.10373   0.37085   0.72502   0.00000  Uiso   1.00
H711   H     0.10375   0.62899   0.72505   0.00000  Uiso   1.00
H712   H     0.04797   0.43610   0.72937   0.00000  Uiso   1.00
H713   H     0.03559   0.56378   0.77138   0.00000  Uiso   1.00
H714   H     0.26006   0.42566   0.91358   0.00000  Uiso   1.00
H715   H     0.14657   0.52127   0.58269   0.00000  Uiso   1.00
H716   H     0.05256   0.51822   0.92112   0.00000  Uiso   1.00
N717   N     0.04760   0.50001   0.75002   0.00000  Uiso   1.00
N718   N     0.28573   0.49998   0.75001   0.00000  Uiso   1.00
O719   O     0.12846   0.56108   0.75001   0.00000  Uiso   1.00
O720   O     0.20490   0.56107   0.75001   0.00000  Uiso   1.00
O721   O     0.10947   0.50000   0.82681   0.00000  Uiso   1.00
O722   O     0.18591   0.49999   0.82681   0.00000  Uiso   1.00
O723   O     0.12843   0.43893   0.75000   0.00000  Uiso   1.00
O724   O     0.20488   0.43892   0.75000   0.00000  Uiso   1.00
O725   O     0.14742   0.50001   0.67319   0.00000  Uiso   1.00
O726   O     0.22387   0.50000   0.67319   0.00000  Uiso   1.00
Zn727  Zn    0.11562   0.50001   0.75000   0.00000  Uiso   1.00
Zn728  Zn    0.21771   0.49999   0.75000   0.00000  Uiso   1.00
Br729  Br    0.39632   0.48388   0.60084   0.00000  Uiso   1.00
C730   C     0.50001   0.58003   0.75005   0.00000  Uiso   1.00
C731   C     0.45607   0.49219   0.91093   0.00000  Uiso   1.00
C732   C     0.53545   0.64540   0.76407   0.00000  Uiso   1.00
C733   C     0.47347   0.49756   0.85209   0.00000  Uiso   1.00
C734   C     0.53540   0.35472   0.76411   0.00000  Uiso   1.00
C735   C     0.49991   0.37583   0.75016   0.00000  Uiso   1.00
C736   C     0.46443   0.35462   0.73629   0.00000  Uiso   1.00
C737   C     0.46445   0.64531   0.73629   0.00000  Uiso   1.00
C738   C     0.49999   0.62418   0.75013   0.00000  Uiso   1.00
C739   C     0.64607   0.46450   0.73863   0.00000  Uiso   1.00
C740   C     0.36057   0.46449   0.73880   0.00000  Uiso   1.00
C741   C     0.47430   0.48303   0.99389   0.00000  Uiso   1.00
C742   C     0.35379   0.53540   0.76182   0.00000  Uiso   1.00
C743   C     0.63923   0.53538   0.76186   0.00000  Uiso   1.00
C744   C     0.49996   0.41997   0.75004   0.00000  Uiso   1.00
C745   C     0.52654   0.49958   0.64773   0.00000  Uiso   1.00
C746   C     0.59075   0.45338   0.51103   0.00000  Uiso   1.00
C747   C     0.54211   0.49183   0.58965   0.00000  Uiso   1.00
C748   C     0.41006   0.50655   0.94106   0.00000  Uiso   1.00
C749   C     0.39443   0.50533   0.99730   0.00000  Uiso   1.00
C750   C     0.42587   0.49372   0.52430   0.00000  Uiso   1.00
C751   C     0.48627   0.47577   0.93783   0.00000  Uiso   1.00
C752   C     0.51158   0.47949   0.51618   0.00000  Uiso   1.00
C753   C     0.55474   0.45830   0.98752   0.00000  Uiso   1.00
C754   C     0.56137   0.44303   0.93568   0.00000  Uiso   1.00
C755   C     0.52799   0.45239   0.91055   0.00000  Uiso   1.00
C756   C     0.50876   0.49971   0.56402   0.00000  Uiso   1.00
C757   C     0.58382   0.46917   0.56284   0.00000  Uiso   1.00
H758   H     0.60999   0.46256   0.58245   0.00000  Uiso   1.00
H759   H     0.35765   0.51366   0.52003   0.00000  Uiso   1.00
H760   H     0.53484   0.44048   0.86998   0.00000  Uiso   1.00
H761   H     0.56282   0.62916   0.77531   0.00000  Uiso   1.00
H762   H     0.63091   0.43611   0.72914   0.00000  Uiso   1.00
H763   H     0.61843   0.56372   0.77150   0.00000  Uiso   1.00
H764   H     0.62348   0.43654   0.98999   0.00000  Uiso   1.00
H765   H     0.56274   0.37105   0.77539   0.00000  Uiso   1.00
H766   H     0.43706   0.37085   0.72502   0.00000  Uiso   1.00
H767   H     0.43708   0.62899   0.72505   0.00000  Uiso   1.00
H768   H     0.38130   0.43610   0.72937   0.00000  Uiso   1.00
H769   H     0.36893   0.56378   0.77138   0.00000  Uiso   1.00
H770   H     0.59339   0.42566   0.91358   0.00000  Uiso   1.00
H771   H     0.47990   0.52127   0.58269   0.00000  Uiso   1.00
H772   H     0.38590   0.51822   0.92112   0.00000  Uiso   1.00
N773   N     0.38093   0.50001   0.75002   0.00000  Uiso   1.00
N774   N     0.61906   0.49998   0.75001   0.00000  Uiso   1.00
O775   O     0.46179   0.56108   0.75001   0.00000  Uiso   1.00
O776   O     0.53823   0.56107   0.75001   0.00000  Uiso   1.00
O777   O     0.44280   0.50000   0.82681   0.00000  Uiso   1.00
O778   O     0.51924   0.49999   0.82681   0.00000  Uiso   1.00
O779   O     0.46177   0.43893   0.75000   0.00000  Uiso   1.00
O780   O     0.53821   0.43892   0.75000   0.00000  Uiso   1.00
O781   O     0.48076   0.50001   0.67319   0.00000  Uiso   1.00
O782   O     0.55720   0.50000   0.67319   0.00000  Uiso   1.00
Zn783  Zn    0.44896   0.50001   0.75000   0.00000  Uiso   1.00
Zn784  Zn    0.55104   0.49999   0.75000   0.00000  Uiso   1.00
Br785  Br    0.72965   0.48388   0.60084   0.00000  Uiso   1.00
C786   C     0.83335   0.58003   0.75005   0.00000  Uiso   1.00
C787   C     0.78941   0.49219   0.91093   0.00000  Uiso   1.00
C788   C     0.86878   0.64540   0.76407   0.00000  Uiso   1.00
C789   C     0.80681   0.49756   0.85209   0.00000  Uiso   1.00
C790   C     0.86873   0.35472   0.76411   0.00000  Uiso   1.00
C791   C     0.83325   0.37583   0.75016   0.00000  Uiso   1.00
C792   C     0.79776   0.35462   0.73629   0.00000  Uiso   1.00
C793   C     0.79778   0.64531   0.73629   0.00000  Uiso   1.00
C794   C     0.83332   0.62418   0.75013   0.00000  Uiso   1.00
C795   C     0.97940   0.46450   0.73863   0.00000  Uiso   1.00
C796   C     0.69390   0.46449   0.73880   0.00000  Uiso   1.00
C797   C     0.80763   0.48303   0.99389   0.00000  Uiso   1.00
C798   C     0.68712   0.53540   0.76182   0.00000  Uiso   1.00
C799   C     0.97256   0.53538   0.76186   0.00000  Uiso   1.00
C800   C     0.83329   0.41997   0.75004   0.00000  Uiso   1.00
C801   C     0.85987   0.49958   0.64773   0.00000  Uiso   1.00
C802   C     0.92408   0.45338   0.51103   0.00000  Uiso   1.00
C803   C     0.87545   0.49183   0.58965   0.00000  Uiso   1.00
C804   C     0.74340   0.50655   0.94106   0.00000  Uiso   1.00
C805   C     0.72776   0.50533   0.99730   0.00000  Uiso   1.00
C806   C     0.75921   0.49372   0.52430   0.00000  Uiso   1.00
C807   C     0.81960   0.47577   0.93783   0.00000  Uiso   1.00
C808   C     0.84491   0.47949   0.51618   0.00000  Uiso   1.00
C809   C     0.88808   0.45830   0.98752   0.00000  Uiso   1.00
C810   C     0.89471   0.44303   0.93568   0.00000  Uiso   1.00
C811   C     0.86132   0.45239   0.91055   0.00000  Uiso   1.00
C812   C     0.84209   0.49971   0.56402   0.00000  Uiso   1.00
C813   C     0.91716   0.46917   0.56284   0.00000  Uiso   1.00
H814   H     0.94332   0.46256   0.58245   0.00000  Uiso   1.00
H815   H     0.69098   0.51366   0.52003   0.00000  Uiso   1.00
H816   H     0.86818   0.44048   0.86998   0.00000  Uiso   1.00
H817   H     0.89615   0.62916   0.77531   0.00000  Uiso   1.00
H818   H     0.96424   0.43611   0.72914   0.00000  Uiso   1.00
H819   H     0.95176   0.56372   0.77150   0.00000  Uiso   1.00
H820   H     0.95681   0.43654   0.98999   0.00000  Uiso   1.00
H821   H     0.89607   0.37105   0.77539   0.00000  Uiso   1.00
H822   H     0.77040   0.37085   0.72502   0.00000  Uiso   1.00
H823   H     0.77041   0.62899   0.72505   0.00000  Uiso   1.00
H824   H     0.71464   0.43610   0.72937   0.00000  Uiso   1.00
H825   H     0.70226   0.56378   0.77138   0.00000  Uiso   1.00
H826   H     0.92673   0.42566   0.91358   0.00000  Uiso   1.00
H827   H     0.81323   0.52127   0.58269   0.00000  Uiso   1.00
H828   H     0.71923   0.51822   0.92112   0.00000  Uiso   1.00
N829   N     0.71426   0.50001   0.75002   0.00000  Uiso   1.00
N830   N     0.95239   0.49998   0.75001   0.00000  Uiso   1.00
O831   O     0.79512   0.56108   0.75001   0.00000  Uiso   1.00
O832   O     0.87157   0.56107   0.75001   0.00000  Uiso   1.00
O833   O     0.77613   0.50000   0.82681   0.00000  Uiso   1.00
O834   O     0.85258   0.49999   0.82681   0.00000  Uiso   1.00
O835   O     0.79510   0.43893   0.75000   0.00000  Uiso   1.00
O836   O     0.87154   0.43892   0.75000   0.00000  Uiso   1.00
O837   O     0.81409   0.50001   0.67319   0.00000  Uiso   1.00
O838   O     0.89053   0.50000   0.67319   0.00000  Uiso   1.00
Zn839  Zn    0.78229   0.50001   0.75000   0.00000  Uiso   1.00
Zn840  Zn    0.88438   0.49999   0.75000   0.00000  Uiso   1.00
Br841  Br    0.06298   0.81721   0.60084   0.00000  Uiso   1.00
C842   C     0.16668   0.91336   0.75005   0.00000  Uiso   1.00
C843   C     0.12274   0.82552   0.91093   0.00000  Uiso   1.00
C844   C     0.20211   0.97873   0.76407   0.00000  Uiso   1.00
C845   C     0.14014   0.83090   0.85209   0.00000  Uiso   1.00
C846   C     0.20206   0.68805   0.76411   0.00000  Uiso   1.00
C847   C     0.16658   0.70917   0.75016   0.00000  Uiso   1.00
C848   C     0.13109   0.68795   0.73629   0.00000  Uiso   1.00
C849   C     0.13112   0.97864   0.73629   0.00000  Uiso   1.00
C850   C     0.16665   0.95752   0.75013   0.00000  Uiso   1.00
C851   C     0.31273   0.79784   0.73863   0.00000  Uiso   1.00
C852   C     0.02724   0.79782   0.73880   0.00000  Uiso   1.00
C853   C     0.14096   0.81636   0.99389   0.00000  Uiso   1.00
C854   C     0.02046   0.86874   0.76182   0.00000  Uiso   1.00
C855   C     0.30589   0.86871   0.76186   0.00000  Uiso   1.00
C856   C     0.16663   0.75331   0.75004   0.00000  Uiso   1.00
C857   C     0.19321   0.83291   0.64773   0.00000  Uiso   1.00
C858   C     0.25742   0.78672   0.51103   0.00000  Uiso   1.00
C859   C     0.20878   0.82516   0.58965   0.00000  Uiso   1.00
C860   C     0.07673   0.83988   0.94106   0.00000  Uiso   1.00
C861   C     0.06109   0.83866   0.99730   0.00000  Uiso   1.00
C862   C     0.09254   0.82705   0.52430   0.00000  Uiso   1.00
C863   C     0.15293   0.80910   0.93783   0.00000  Uiso   1.00
C864   C     0.17824   0.81282   0.51618   0.00000  Uiso   1.00
C865   C     0.22141   0.79164   0.98752   0.00000  Uiso   1.00
C866   C     0.22804   0.77637   0.93568   0.00000  Uiso   1.00
C867   C     0.19465   0.78572   0.91055   0.00000  Uiso   1.00
C868   C     0.17542   0.83304   0.56402   0.00000  Uiso   1.00
C869   C     0.25049   0.80250   0.56284   0.00000  Uiso   1.00
H870   H     0.27666   0.79590   0.58245   0.00000  Uiso   1.00
H871   H     0.02431   0.84700   0.52003   0.00000  Uiso   1.00
H872   H     0.20151   0.77382   0.86998   0.00000  Uiso   1.00
H873   H     0.22948   0.96250   0.77531   0.00000  Uiso   1.00
H874   H     0.29758   0.76944   0.72914   0.00000  Uiso   1.00
H875   H     0.28509   0.89705   0.77150   0.00000  Uiso   1.00
H876   H     0.29015   0.76988   0.98999   0.00000  Uiso   1.00
H877   H     0.22941   0.70438   0.77539   0.00000  Uiso   1.00
H878   H     0.10373   0.70418   0.72502   0.00000  Uiso   1.00
H879   H     0.10375   0.96232   0.72505   0.00000  Uiso   1.00
H880   H     0.04797   0.76943   0.72937   0.00000  Uiso   1.00
H881   H     0.03559   0.89711   0.77138   0.00000  Uiso   1.00
H882   H     0.26006   0.75900   0.91358   0.00000  Uiso   1.00
H883   H     0.14657   0.85460   0.58269   0.00000  Uiso   1.00
H884   H     0.05256   0.85155   0.92112   0.00000  Uiso   1.00
N885   N     0.04760   0.83334   0.75002   0.00000  Uiso   1.00
N886   N     0.28573   0.83331   0.75001   0.00000  Uiso   1.00
O887   O     0.12846   0.89442   0.75001   0.00000  Uiso   1.00
O888   O     0.20490   0.89441   0.75001   0.00000  Uiso   1.00
O889   O     0.10947   0.83333   0.82681   0.00000  Uiso   1.00
O890   O     0.18591   0.83332   0.82681   0.00000  Uiso   1.00
O891   O     0.12843   0.77226   0.75000   0.00000  Uiso   1.00
O892   O     0.20488   0.77225   0.75000   0.00000  Uiso   1.00
O893   O     0.14742   0.83335   0.67319   0.00000  Uiso   1.00
O894   O     0.22387   0.83334   0.67319   0.00000  Uiso   1.00
Zn895  Zn    0.11562   0.83334   0.75000   0.00000  Uiso   1.00
Zn896  Zn    0.21771   0.83333   0.75000   0.00000  Uiso   1.00
Br897  Br    0.39632   0.81721   0.60084   0.00000  Uiso   1.00
C898   C     0.50001   0.91336   0.75005   0.00000  Uiso   1.00
C899   C     0.45607   0.82552   0.91093   0.00000  Uiso   1.00
C900   C     0.53545   0.97873   0.76407   0.00000  Uiso   1.00
C901   C     0.47347   0.83090   0.85209   0.00000  Uiso   1.00
C902   C     0.53540   0.68805   0.76411   0.00000  Uiso   1.00
C903   C     0.49991   0.70917   0.75016   0.00000  Uiso   1.00
C904   C     0.46443   0.68795   0.73629   0.00000  Uiso   1.00
C905   C     0.46445   0.97864   0.73629   0.00000  Uiso   1.00
C906   C     0.49999   0.95752   0.75013   0.00000  Uiso   1.00
C907   C     0.64607   0.79784   0.73863   0.00000  Uiso   1.00
C908   C     0.36057   0.79782   0.73880   0.00000  Uiso   1.00
C909   C     0.47430   0.81636   0.99389   0.00000  Uiso   1.00
C910   C     0.35379   0.86874   0.76182   0.00000  Uiso   1.00
C911   C     0.63923   0.86871   0.76186   0.00000  Uiso   1.00
C912   C     0.49996   0.75331   0.75004   0.00000  Uiso   1.00
C913   C     0.52654   0.83291   0.64773   0.00000  Uiso   1.00
C914   C     0.59075   0.78672   0.51103   0.00000  Uiso   1.00
C915   C     0.54211   0.82516   0.58965   0.00000  Uiso   1.00
C916   C     0.41006   0.83988   0.94106   0.00000  Uiso   1.00
C917   C     0.39443   0.83866   0.99730   0.00000  Uiso   1.00
C918   C     0.42587   0.82705   0.52430   0.00000  Uiso   1.00
C919   C     0.48627   0.80910   0.93783   0.00000  Uiso   1.00
C920   C     0.51158   0.81282   0.51618   0.00000  Uiso   1.00
C921   C     0.55474   0.79164   0.98752   0.00000  Uiso   1.00
C922   C     0.56137   0.77637   0.93568   0.00000  Uiso   1.00
C923   C     0.52799   0.78572   0.91055   0.00000  Uiso   1.00
C924   C     0.50876   0.83304   0.56402   0.00000  Uiso   1.00
C925   C     0.58382   0.80250   0.56284   0.00000  Uiso   1.00
H926   H     0.60999   0.79590   0.58245   0.00000  Uiso   1.00
H927   H     0.35765   0.84700   0.52003   0.00000  Uiso   1.00
H928   H     0.53484   0.77382   0.86998   0.00000  Uiso   1.00
H929   H     0.56282   0.96250   0.77531   0.00000  Uiso   1.00
H930   H     0.63091   0.76944   0.72914   0.00000  Uiso   1.00
H931   H     0.61843   0.89705   0.77150   0.00000  Uiso   1.00
H932   H     0.62348   0.76988   0.98999   0.00000  Uiso   1.00
H933   H     0.56274   0.70438   0.77539   0.00000  Uiso   1.00
H934   H     0.43706   0.70418   0.72502   0.00000  Uiso   1.00
H935   H     0.43708   0.96232   0.72505   0.00000  Uiso   1.00
H936   H     0.38130   0.76943   0.72937   0.00000  Uiso   1.00
H937   H     0.36893   0.89711   0.77138   0.00000  Uiso   1.00
H938   H     0.59339   0.75900   0.91358   0.00000  Uiso   1.00
H939   H     0.47990   0.85460   0.58269   0.00000  Uiso   1.00
H940   H     0.38590   0.85155   0.92112   0.00000  Uiso   1.00
N941   N     0.38093   0.83334   0.75002   0.00000  Uiso   1.00
N942   N     0.61906   0.83331   0.75001   0.00000  Uiso   1.00
O943   O     0.46179   0.89442   0.75001   0.00000  Uiso   1.00
O944   O     0.53823   0.89441   0.75001   0.00000  Uiso   1.00
O945   O     0.44280   0.83333   0.82681   0.00000  Uiso   1.00
O946   O     0.51924   0.83332   0.82681   0.00000  Uiso   1.00
O947   O     0.46177   0.77226   0.75000   0.00000  Uiso   1.00
O948   O     0.53821   0.77225   0.75000   0.00000  Uiso   1.00
O949   O     0.48076   0.83335   0.67319   0.00000  Uiso   1.00
O950   O     0.55720   0.83334   0.67319   0.00000  Uiso   1.00
Zn951  Zn    0.44896   0.83334   0.75000   0.00000  Uiso   1.00
Zn952  Zn    0.55104   0.83333   0.75000   0.00000  Uiso   1.00
Br953  Br    0.72965   0.81721   0.60084   0.00000  Uiso   1.00
C954   C     0.83335   0.91336   0.75005   0.00000  Uiso   1.00
C955   C     0.78941   0.82552   0.91093   0.00000  Uiso   1.00
C956   C     0.86878   0.97873   0.76407   0.00000  Uiso   1.00
C957   C     0.80681   0.83090   0.85209   0.00000  Uiso   1.00
C958   C     0.86873   0.68805   0.76411   0.00000  Uiso   1.00
C959   C     0.83325   0.70917   0.75016   0.00000  Uiso   1.00
C960   C     0.79776   0.68795   0.73629   0.00000  Uiso   1.00
C961   C     0.79778   0.97864   0.73629   0.00000  Uiso   1.00
C962   C     0.83332   0.95752   0.75013   0.00000  Uiso   1.00
C963   C     0.97940   0.79784   0.73863   0.00000  Uiso   1.00
C964   C     0.69390   0.79782   0.73880   0.00000  Uiso   1.00
C965   C     0.80763   0.81636   0.99389   0.00000  Uiso   1.00
C966   C     0.68712   0.86874   0.76182   0.00000  Uiso   1.00
C967   C     0.97256   0.86871   0.76186   0.00000  Uiso   1.00
C968   C     0.83329   0.75331   0.75004   0.00000  Uiso   1.00
C969   C     0.85987   0.83291   0.64773   0.00000  Uiso   1.00
C970   C     0.92408   0.78672   0.51103   0.00000  Uiso   1.00
C971   C     0.87545   0.82516   0.58965   0.00000  Uiso   1.00
C972   C     0.74340   0.83988   0.94106   0.00000  Uiso   1.00
C973   C     0.72776   0.83866   0.99730   0.00000  Uiso   1.00
C974   C     0.75921   0.82705   0.52430   0.00000  Uiso   1.00
C975   C     0.81960   0.80910   0.93783   0.00000  Uiso   1.00
C976   C     0.84491   0.81282   0.51618   0.00000  Uiso   1.00
C977   C     0.88808   0.79164   0.98752   0.00000  Uiso   1.00
C978   C     0.89471   0.77637   0.93568   0.00000  Uiso   1.00
C979   C     0.86132   0.78572   0.91055   0.00000  Uiso   1.00
C980   C     0.84209   0.83304   0.56402   0.00000  Uiso   1.00
C981   C     0.91716   0.80250   0.56284   0.00000  Uiso   1.00
H982   H     0.94332   0.79590   0.58245   0.00000  Uiso   1.00
H983   H     0.69098   0.84700   0.52003   0.00000  Uiso   1.00
H984   H     0.86818   0.77382   0.86998   0.00000  Uiso   1.00
H985   H     0.89615   0.96250   0.77531   0.00000  Uiso   1.00
H986   H     0.96424   0.76944   0.72914   0.00000  Uiso   1.00
H987   H     0.95176   0.89705   0.77150   0.00000  Uiso   1.00
H988   H     0.95681   0.76988   0.98999   0.00000  Uiso   1.00
H989   H     0.89607   0.70438   0.77539   0.00000  Uiso   1.00
H990   H     0.77040   0.70418   0.72502   0.00000  Uiso   1.00
H991   H     0.77041   0.96232   0.72505   0.00000  Uiso   1.00
H992   H     0.71464   0.76943   0.72937   0.00000  Uiso   1.00
H993   H     0.70226   0.89711   0.77138   0.00000  Uiso   1.00
H994   H     0.92673   0.75900   0.91358   0.00000  Uiso   1.00
H995   H     0.81323   0.85460   0.58269   0.00000  Uiso   1.00
H996   H     0.71923   0.85155   0.92112   0.00000  Uiso   1.00
N997   N     0.71426   0.83334   0.75002   0.00000  Uiso   1.00
N998   N     0.95239   0.83331   0.75001   0.00000  Uiso   1.00
O999   O     0.79512   0.89442   0.75001   0.00000  Uiso   1.00
O1000  O     0.87157   0.89441   0.75001   0.00000  Uiso   1.00
O1001  O     0.77613   0.83333   0.82681   0.00000  Uiso   1.00
O1002  O     0.85258   0.83332   0.82681   0.00000  Uiso   1.00
O1003  O     0.79510   0.77226   0.75000   0.00000  Uiso   1.00
O1004  O     0.87154   0.77225   0.75000   0.00000  Uiso   1.00
O1005  O     0.81409   0.83335   0.67319   0.00000  Uiso   1.00
O1006  O     0.89053   0.83334   0.67319   0.00000  Uiso   1.00
Zn1007 Zn    0.78229   0.83334   0.75000   0.00000  Uiso   1.00
Zn1008 Zn    0.88438   0.83333   0.75000   0.00000  Uiso   1.00
loop_
_geom_bond_atom_site_label_1
_geom_bond_atom_site_label_2
_geom_bond_distance
_geom_bond_site_symmetry_2
_ccdc_geom_bond_type
Br1    C22     1.923   .     S
C2     O47     1.283   .     A
C2     O48     1.283   .     A
C2     C10     1.419   .     S
C3     C23     1.412   .     A
C3     C20     1.402   .     A
C3     C5      1.460   .     S
C4     C10     1.397   .     A
C4     H33     1.083   .     S
C4     C174    1.370   .     S
C5     O49     1.292   .     A
C5     O50     1.293   .     A
C6     C7      1.397   .     A
C6     H37     1.084   .     S
C6     C340    1.370   1_545 S
C7     C16     1.418   .     S
C7     C8      1.397   .     A
C8     H38     1.083   .     S
C8     C345    1.370   1_545 S
C9     C10     1.397   .     A
C9     H39     1.084   .     S
C9     C176    1.370   .     S
C11    N46     1.366   .     A
C11    H34     1.081   .     S
C11    C68     1.415   .     S
C12    H40     1.081   .     S
C12    N45     1.367   .     A
C12    C123    1.415   1_455 S
C13    C23     1.408   .     A
C13    C526    1.426   .     S
C13    C528    1.414   .     S
C14    H41     1.081   .     S
C14    N45     1.366   .     A
C14    C127    1.415   1_455 S
C15    H35     1.081   .     S
C15    N46     1.367   .     A
C15    C70     1.415   .     S
C16    O51     1.283   .     A
C16    O52     1.283   .     A
C17    O53     1.292   .     A
C17    C19     1.454   .     S
C17    O54     1.292   .     A
C18    C29     1.396   .     A
C18    C529    1.405   1_554 S
C18    H540    1.084   1_554 S
C19    C28     1.389   .     A
C19    C29     1.401   .     A
C20    H44     1.083   .     S
C20    C21     1.387   .     A
C21    C526    1.394   .     S
C21    H535    1.083   .     S
C22    C525    1.394   1_554 S
C22    C517    1.426   1_554 S
C23    C27     1.416   .     A
C24    C28     1.387   .     A
C24    C517    1.414   1_554 S
C24    C529    1.418   1_554 S
C25    C26     1.393   .     A
C25    C522    1.405   .     S
C25    C528    1.418   .     S
C26    C27     1.390   .     A
C26    H42     1.084   .     S
C27    H32     1.081   .     S
C28    H43     1.080   .     S
C29    H30     1.083   .     S
H31    C525    1.083   1_554 S
H36    C522    1.084   .     S
N45    Zn55    2.010   .     S
N46    Zn56    2.010   .     S
O47    Zn55    1.998   .     S
O48    Zn56    1.999   .     S
O49    Zn55    1.956   .     S
O50    Zn56    1.911   .     S
O51    Zn55    1.999   .     S
O52    Zn56    1.998   .     S
O53    Zn55    1.911   .     S
O54    Zn56    1.956   .     S
Br57   C78     1.923   .     S
C58    O103    1.283   .     A
C58    O104    1.283   .     A
C58    C66     1.419   .     S
C59    C79     1.412   .     A
C59    C76     1.402   .     A
C59    C61     1.460   .     S
C60    C66     1.397   .     A
C60    H89     1.083   .     S
C60    C230    1.370   .     S
C61    O105    1.292   .     A
C61    O106    1.293   .     A
C62    C63     1.397   .     A
C62    H93     1.084   .     S
C62    C396    1.370   1_545 S
C63    C72     1.418   .     S
C63    C64     1.397   .     A
C64    H94     1.083   .     S
C64    C401    1.370   1_545 S
C65    C66     1.397   .     A
C65    H95     1.084   .     S
C65    C232    1.370   .     S
C67    N102    1.366   .     A
C67    H90     1.081   .     S
C67    C124    1.415   .     S
C68    H96     1.081   .     S
C68    N101    1.367   .     A
C69    C79     1.408   .     A
C69    C582    1.426   .     S
C69    C584    1.414   .     S
C70    H97     1.081   .     S
C70    N101    1.366   .     A
C71    H91     1.081   .     S
C71    N102    1.367   .     A
C71    C126    1.415   .     S
C72    O107    1.283   .     A
C72    O108    1.283   .     A
C73    O109    1.292   .     A
C73    C75     1.454   .     S
C73    O110    1.292   .     A
C74    C85     1.396   .     A
C74    C585    1.405   1_554 S
C74    H596    1.084   1_554 S
C75    C84     1.389   .     A
C75    C85     1.401   .     A
C76    H100    1.083   .     S
C76    C77     1.387   .     A
C77    C582    1.394   .     S
C77    H591    1.083   .     S
C78    C581    1.394   1_554 S
C78    C573    1.426   1_554 S
C79    C83     1.416   .     A
C80    C84     1.387   .     A
C80    C573    1.414   1_554 S
C80    C585    1.418   1_554 S
C81    C82     1.393   .     A
C81    C578    1.405   .     S
C81    C584    1.418   .     S
C82    C83     1.390   .     A
C82    H98     1.084   .     S
C83    H88     1.081   .     S
C84    H99     1.080   .     S
C85    H86     1.083   .     S
H87    C581    1.083   1_554 S
H92    C578    1.084   .     S
N101   Zn111   2.010   .     S
N102   Zn112   2.010   .     S
O103   Zn111   1.998   .     S
O104   Zn112   1.999   .     S
O105   Zn111   1.956   .     S
O106   Zn112   1.911   .     S
O107   Zn111   1.999   .     S
O108   Zn112   1.998   .     S
O109   Zn111   1.911   .     S
O110   Zn112   1.956   .     S
Br113  C134    1.923   .     S
C114   O159    1.283   .     A
C114   O160    1.283   .     A
C114   C122    1.419   .     S
C115   C135    1.412   .     A
C115   C132    1.402   .     A
C115   C117    1.460   .     S
C116   C122    1.397   .     A
C116   H145    1.083   .     S
C116   C286    1.370   .     S
C117   O161    1.292   .     A
C117   O162    1.293   .     A
C118   C119    1.397   .     A
C118   H149    1.084   .     S
C118   C452    1.370   1_545 S
C119   C128    1.418   .     S
C119   C120    1.397   .     A
C120   H150    1.083   .     S
C120   C457    1.370   1_545 S
C121   C122    1.397   .     A
C121   H151    1.084   .     S
C121   C288    1.370   .     S
C123   N158    1.366   .     A
C123   H146    1.081   .     S
C123   C12     1.415   1_655 S
C124   H152    1.081   .     S
C124   N157    1.367   .     A
C125   C135    1.408   .     A
C125   C638    1.426   .     S
C125   C640    1.414   .     S
C126   H153    1.081   .     S
C126   N157    1.366   .     A
C127   H147    1.081   .     S
C127   N158    1.367   .     A
C127   C14     1.415   1_655 S
C128   O163    1.283   .     A
C128   O164    1.283   .     A
C129   O165    1.292   .     A
C129   C131    1.454   .     S
C129   O166    1.292   .     A
C130   C141    1.396   .     A
C130   C641    1.405   1_554 S
C130   H652    1.084   1_554 S
C131   C140    1.389   .     A
C131   C141    1.401   .     A
C132   H156    1.083   .     S
C132   C133    1.387   .     A
C133   C638    1.394   .     S
C133   H647    1.083   .     S
C134   C637    1.394   1_554 S
C134   C629    1.426   1_554 S
C135   C139    1.416   .     A
C136   C140    1.387   .     A
C136   C629    1.414   1_554 S
C136   C641    1.418   1_554 S
C137   C138    1.393   .     A
C137   C634    1.405   .     S
C137   C640    1.418   .     S
C138   C139    1.390   .     A
C138   H154    1.084   .     S
C139   H144    1.081   .     S
C140   H155    1.080   .     S
C141   H142    1.083   .     S
H143   C637    1.083   1_554 S
H148   C634    1.084   .     S
N157   Zn167   2.010   .     S
N158   Zn168   2.010   .     S
O159   Zn167   1.998   .     S
O160   Zn168   1.999   .     S
O161   Zn167   1.956   .     S
O162   Zn168   1.911   .     S
O163   Zn167   1.999   .     S
O164   Zn168   1.998   .     S
O165   Zn167   1.911   .     S
O166   Zn168   1.956   .     S
Br169  C190    1.923   .     S
C170   O215    1.283   .     A
C170   O216    1.283   .     A
C170   C178    1.419   .     S
C171   C191    1.412   .     A
C171   C188    1.402   .     A
C171   C173    1.460   .     S
C172   C178    1.397   .     A
C172   H201    1.083   .     S
C172   C342    1.370   .     S
C173   O217    1.292   .     A
C173   O218    1.293   .     A
C174   C175    1.397   .     A
C174   H205    1.084   .     S
C175   C184    1.418   .     S
C175   C176    1.397   .     A
C176   H206    1.083   .     S
C177   C178    1.397   .     A
C177   H207    1.084   .     S
C177   C344    1.370   .     S
C179   N214    1.366   .     A
C179   H202    1.081   .     S
C179   C236    1.415   .     S
C180   H208    1.081   .     S
C180   N213    1.367   .     A
C180   C291    1.415   1_455 S
C181   C191    1.408   .     A
C181   C694    1.426   .     S
C181   C696    1.414   .     S
C182   H209    1.081   .     S
C182   N213    1.366   .     A
C182   C295    1.415   1_455 S
C183   H203    1.081   .     S
C183   N214    1.367   .     A
C183   C238    1.415   .     S
C184   O219    1.283   .     A
C184   O220    1.283   .     A
C185   O221    1.292   .     A
C185   C187    1.454   .     S
C185   O222    1.292   .     A
C186   C197    1.396   .     A
C186   C697    1.405   1_554 S
C186   H708    1.084   1_554 S
C187   C196    1.389   .     A
C187   C197    1.401   .     A
C188   H212    1.083   .     S
C188   C189    1.387   .     A
C189   C694    1.394   .     S
C189   H703    1.083   .     S
C190   C693    1.394   1_554 S
C190   C685    1.426   1_554 S
C191   C195    1.416   .     A
C192   C196    1.387   .     A
C192   C685    1.414   1_554 S
C192   C697    1.418   1_554 S
C193   C194    1.393   .     A
C193   C690    1.405   .     S
C193   C696    1.418   .     S
C194   C195    1.390   .     A
C194   H210    1.084   .     S
C195   H200    1.081   .     S
C196   H211    1.080   .     S
C197   H198    1.083   .     S
H199   C693    1.083   1_554 S
H204   C690    1.084   .     S
N213   Zn223   2.010   .     S
N214   Zn224   2.010   .     S
O215   Zn223   1.998   .     S
O216   Zn224   1.999   .     S
O217   Zn223   1.956   .     S
O218   Zn224   1.911   .     S
O219   Zn223   1.999   .     S
O220   Zn224   1.998   .     S
O221   Zn223   1.911   .     S
O222   Zn224   1.956   .     S
Br225  C246    1.923   .     S
C226   O271    1.283   .     A
C226   O272    1.283   .     A
C226   C234    1.419   .     S
C227   C247    1.412   .     A
C227   C244    1.402   .     A
C227   C229    1.460   .     S
C228   C234    1.397   .     A
C228   H257    1.083   .     S
C228   C398    1.370   .     S
C229   O273    1.292   .     A
C229   O274    1.293   .     A
C230   C231    1.397   .     A
C230   H261    1.084   .     S
C231   C240    1.418   .     S
C231   C232    1.397   .     A
C232   H262    1.083   .     S
C233   C234    1.397   .     A
C233   H263    1.084   .     S
C233   C400    1.370   .     S
C235   N270    1.366   .     A
C235   H258    1.081   .     S
C235   C292    1.415   .     S
C236   H264    1.081   .     S
C236   N269    1.367   .     A
C237   C247    1.408   .     A
C237   C750    1.426   .     S
C237   C752    1.414   .     S
C238   H265    1.081   .     S
C238   N269    1.366   .     A
C239   H259    1.081   .     S
C239   N270    1.367   .     A
C239   C294    1.415   .     S
C240   O275    1.283   .     A
C240   O276    1.283   .     A
C241   O277    1.292   .     A
C241   C243    1.454   .     S
C241   O278    1.292   .     A
C242   C253    1.396   .     A
C242   C753    1.405   1_554 S
C242   H764    1.084   1_554 S
C243   C252    1.389   .     A
C243   C253    1.401   .     A
C244   H268    1.083   .     S
C244   C245    1.387   .     A
C245   C750    1.394   .     S
C245   H759    1.083   .     S
C246   C749    1.394   1_554 S
C246   C741    1.426   1_554 S
C247   C251    1.416   .     A
C248   C252    1.387   .     A
C248   C741    1.414   1_554 S
C248   C753    1.418   1_554 S
C249   C250    1.393   .     A
C249   C746    1.405   .     S
C249   C752    1.418   .     S
C250   C251    1.390   .     A
C250   H266    1.084   .     S
C251   H256    1.081   .     S
C252   H267    1.080   .     S
C253   H254    1.083   .     S
H255   C749    1.083   1_554 S
H260   C746    1.084   .     S
N269   Zn279   2.010   .     S
N270   Zn280   2.010   .     S
O271   Zn279   1.998   .     S
O272   Zn280   1.999   .     S
O273   Zn279   1.956   .     S
O274   Zn280   1.911   .     S
O275   Zn279   1.999   .     S
O276   Zn280   1.998   .     S
O277   Zn279   1.911   .     S
O278   Zn280   1.956   .     S
Br281  C302    1.923   .     S
C282   O327    1.283   .     A
C282   O328    1.283   .     A
C282   C290    1.419   .     S
C283   C303    1.412   .     A
C283   C300    1.402   .     A
C283   C285    1.460   .     S
C284   C290    1.397   .     A
C284   H313    1.083   .     S
C284   C454    1.370   .     S
C285   O329    1.292   .     A
C285   O330    1.293   .     A
C286   C287    1.397   .     A
C286   H317    1.084   .     S
C287   C296    1.418   .     S
C287   C288    1.397   .     A
C288   H318    1.083   .     S
C289   C290    1.397   .     A
C289   H319    1.084   .     S
C289   C456    1.370   .     S
C291   N326    1.366   .     A
C291   H314    1.081   .     S
C291   C180    1.415   1_655 S
C292   H320    1.081   .     S
C292   N325    1.367   .     A
C293   C303    1.408   .     A
C293   C806    1.426   .     S
C293   C808    1.414   .     S
C294   H321    1.081   .     S
C294   N325    1.366   .     A
C295   H315    1.081   .     S
C295   N326    1.367   .     A
C295   C182    1.415   1_655 S
C296   O331    1.283   .     A
C296   O332    1.283   .     A
C297   O333    1.292   .     A
C297   C299    1.454   .     S
C297   O334    1.292   .     A
C298   C309    1.396   .     A
C298   C809    1.405   1_554 S
C298   H820    1.084   1_554 S
C299   C308    1.389   .     A
C299   C309    1.401   .     A
C300   H324    1.083   .     S
C300   C301    1.387   .     A
C301   C806    1.394   .     S
C301   H815    1.083   .     S
C302   C805    1.394   1_554 S
C302   C797    1.426   1_554 S
C303   C307    1.416   .     A
C304   C308    1.387   .     A
C304   C797    1.414   1_554 S
C304   C809    1.418   1_554 S
C305   C306    1.393   .     A
C305   C802    1.405   .     S
C305   C808    1.418   .     S
C306   C307    1.390   .     A
C306   H322    1.084   .     S
C307   H312    1.081   .     S
C308   H323    1.080   .     S
C309   H310    1.083   .     S
H311   C805    1.083   1_554 S
H316   C802    1.084   .     S
N325   Zn335   2.010   .     S
N326   Zn336   2.010   .     S
O327   Zn335   1.998   .     S
O328   Zn336   1.999   .     S
O329   Zn335   1.956   .     S
O330   Zn336   1.911   .     S
O331   Zn335   1.999   .     S
O332   Zn336   1.998   .     S
O333   Zn335   1.911   .     S
O334   Zn336   1.956   .     S
Br337  C358    1.923   .     S
C338   O383    1.283   .     A
C338   O384    1.283   .     A
C338   C346    1.419   .     S
C339   C359    1.412   .     A
C339   C356    1.402   .     A
C339   C341    1.460   .     S
C340   C346    1.397   .     A
C340   H369    1.083   .     S
C340   C6      1.370   1_565 S
C341   O385    1.292   .     A
C341   O386    1.293   .     A
C342   C343    1.397   .     A
C342   H373    1.084   .     S
C343   C352    1.418   .     S
C343   C344    1.397   .     A
C344   H374    1.083   .     S
C345   C346    1.397   .     A
C345   H375    1.084   .     S
C345   C8      1.370   1_565 S
C347   N382    1.366   .     A
C347   H370    1.081   .     S
C347   C404    1.415   .     S
C348   H376    1.081   .     S
C348   N381    1.367   .     A
C348   C459    1.415   1_455 S
C349   C359    1.408   .     A
C349   C862    1.426   .     S
C349   C864    1.414   .     S
C350   H377    1.081   .     S
C350   N381    1.366   .     A
C350   C463    1.415   1_455 S
C351   H371    1.081   .     S
C351   N382    1.367   .     A
C351   C406    1.415   .     S
C352   O387    1.283   .     A
C352   O388    1.283   .     A
C353   O389    1.292   .     A
C353   C355    1.454   .     S
C353   O390    1.292   .     A
C354   C365    1.396   .     A
C354   C865    1.405   1_554 S
C354   H876    1.084   1_554 S
C355   C364    1.389   .     A
C355   C365    1.401   .     A
C356   H380    1.083   .     S
C356   C357    1.387   .     A
C357   C862    1.394   .     S
C357   H871    1.083   .     S
C358   C861    1.394   1_554 S
C358   C853    1.426   1_554 S
C359   C363    1.416   .     A
C360   C364    1.387   .     A
C360   C853    1.414   1_554 S
C360   C865    1.418   1_554 S
C361   C362    1.393   .     A
C361   C858    1.405   .     S
C361   C864    1.418   .     S
C362   C363    1.390   .     A
C362   H378    1.084   .     S
C363   H368    1.081   .     S
C364   H379    1.080   .     S
C365   H366    1.083   .     S
H367   C861    1.083   1_554 S
H372   C858    1.084   .     S
N381   Zn391   2.010   .     S
N382   Zn392   2.010   .     S
O383   Zn391   1.998   .     S
O384   Zn392   1.999   .     S
O385   Zn391   1.956   .     S
O386   Zn392   1.911   .     S
O387   Zn391   1.999   .     S
O388   Zn392   1.998   .     S
O389   Zn391   1.911   .     S
O390   Zn392   1.956   .     S
Br393  C414    1.923   .     S
C394   O439    1.283   .     A
C394   O440    1.283   .     A
C394   C402    1.419   .     S
C395   C415    1.412   .     A
C395   C412    1.402   .     A
C395   C397    1.460   .     S
C396   C402    1.397   .     A
C396   H425    1.083   .     S
C396   C62     1.370   1_565 S
C397   O441    1.292   .     A
C397   O442    1.293   .     A
C398   C399    1.397   .     A
C398   H429    1.084   .     S
C399   C408    1.418   .     S
C399   C400    1.397   .     A
C400   H430    1.083   .     S
C401   C402    1.397   .     A
C401   H431    1.084   .     S
C401   C64     1.370   1_565 S
C403   N438    1.366   .     A
C403   H426    1.081   .     S
C403   C460    1.415   .     S
C404   H432    1.081   .     S
C404   N437    1.367   .     A
C405   C415    1.408   .     A
C405   C918    1.426   .     S
C405   C920    1.414   .     S
C406   H433    1.081   .     S
C406   N437    1.366   .     A
C407   H427    1.081   .     S
C407   N438    1.367   .     A
C407   C462    1.415   .     S
C408   O443    1.283   .     A
C408   O444    1.283   .     A
C409   O445    1.292   .     A
C409   C411    1.454   .     S
C409   O446    1.292   .     A
C410   C421    1.396   .     A
C410   C921    1.405   1_554 S
C410   H932    1.084   1_554 S
C411   C420    1.389   .     A
C411   C421    1.401   .     A
C412   H436    1.083   .     S
C412   C413    1.387   .     A
C413   C918    1.394   .     S
C413   H927    1.083   .     S
C414   C917    1.394   1_554 S
C414   C909    1.426   1_554 S
C415   C419    1.416   .     A
C416   C420    1.387   .     A
C416   C909    1.414   1_554 S
C416   C921    1.418   1_554 S
C417   C418    1.393   .     A
C417   C914    1.405   .     S
C417   C920    1.418   .     S
C418   C419    1.390   .     A
C418   H434    1.084   .     S
C419   H424    1.081   .     S
C420   H435    1.080   .     S
C421   H422    1.083   .     S
H423   C917    1.083   1_554 S
H428   C914    1.084   .     S
N437   Zn447   2.010   .     S
N438   Zn448   2.010   .     S
O439   Zn447   1.998   .     S
O440   Zn448   1.999   .     S
O441   Zn447   1.956   .     S
O442   Zn448   1.911   .     S
O443   Zn447   1.999   .     S
O444   Zn448   1.998   .     S
O445   Zn447   1.911   .     S
O446   Zn448   1.956   .     S
Br449  C470    1.923   .     S
C450   O495    1.283   .     A
C450   O496    1.283   .     A
C450   C458    1.419   .     S
C451   C471    1.412   .     A
C451   C468    1.402   .     A
C451   C453    1.460   .     S
C452   C458    1.397   .     A
C452   H481    1.083   .     S
C452   C118    1.370   1_565 S
C453   O497    1.292   .     A
C453   O498    1.293   .     A
C454   C455    1.397   .     A
C454   H485    1.084   .     S
C455   C464    1.418   .     S
C455   C456    1.397   .     A
C456   H486    1.083   .     S
C457   C458    1.397   .     A
C457   H487    1.084   .     S
C457   C120    1.370   1_565 S
C459   N494    1.366   .     A
C459   H482    1.081   .     S
C459   C348    1.415   1_655 S
C460   H488    1.081   .     S
C460   N493    1.367   .     A
C461   C471    1.408   .     A
C461   C974    1.426   .     S
C461   C976    1.414   .     S
C462   H489    1.081   .     S
C462   N493    1.366   .     A
C463   H483    1.081   .     S
C463   N494    1.367   .     A
C463   C350    1.415   1_655 S
C464   O499    1.283   .     A
C464   O500    1.283   .     A
C465   O501    1.292   .     A
C465   C467    1.454   .     S
C465   O502    1.292   .     A
C466   C477    1.396   .     A
C466   C977    1.405   1_554 S
C466   H988    1.084   1_554 S
C467   C476    1.389   .     A
C467   C477    1.401   .     A
C468   H492    1.083   .     S
C468   C469    1.387   .     A
C469   C974    1.394   .     S
C469   H983    1.083   .     S
C470   C973    1.394   1_554 S
C470   C965    1.426   1_554 S
C471   C475    1.416   .     A
C472   C476    1.387   .     A
C472   C965    1.414   1_554 S
C472   C977    1.418   1_554 S
C473   C474    1.393   .     A
C473   C970    1.405   .     S
C473   C976    1.418   .     S
C474   C475    1.390   .     A
C474   H490    1.084   .     S
C475   H480    1.081   .     S
C476   H491    1.080   .     S
C477   H478    1.083   .     S
H479   C973    1.083   1_554 S
H484   C970    1.084   .     S
N493   Zn503   2.010   .     S
N494   Zn504   2.010   .     S
O495   Zn503   1.998   .     S
O496   Zn504   1.999   .     S
O497   Zn503   1.956   .     S
O498   Zn504   1.911   .     S
O499   Zn503   1.999   .     S
O500   Zn504   1.998   .     S
O501   Zn503   1.911   .     S
O502   Zn504   1.956   .     S
Br505  C526    1.923   .     S
C506   O551    1.283   .     A
C506   O552    1.283   .     A
C506   C514    1.419   .     S
C507   C527    1.412   .     A
C507   C524    1.402   .     A
C507   C509    1.460   .     S
C508   C514    1.397   .     A
C508   H537    1.083   .     S
C508   C678    1.370   .     S
C509   O553    1.292   .     A
C509   O554    1.293   .     A
C510   C511    1.397   .     A
C510   H541    1.084   .     S
C510   C844    1.370   1_545 S
C511   C520    1.418   .     S
C511   C512    1.397   .     A
C512   H542    1.083   .     S
C512   C849    1.370   1_545 S
C513   C514    1.397   .     A
C513   H543    1.084   .     S
C513   C680    1.370   .     S
C515   N550    1.366   .     A
C515   H538    1.081   .     S
C515   C572    1.415   .     S
C516   H544    1.081   .     S
C516   N549    1.367   .     A
C516   C627    1.415   1_455 S
C517   C527    1.408   .     A
C517   C22     1.426   1_556 S
C517   C24     1.414   1_556 S
C518   H545    1.081   .     S
C518   N549    1.366   .     A
C518   C631    1.415   1_455 S
C519   H539    1.081   .     S
C519   N550    1.367   .     A
C519   C574    1.415   .     S
C520   O555    1.283   .     A
C520   O556    1.283   .     A
C521   O557    1.292   .     A
C521   C523    1.454   .     S
C521   O558    1.292   .     A
C522   C533    1.396   .     A
C523   C532    1.389   .     A
C523   C533    1.401   .     A
C524   H548    1.083   .     S
C524   C525    1.387   .     A
C525   C22     1.394   1_556 S
C525   H31     1.083   1_556 S
C527   C531    1.416   .     A
C528   C532    1.387   .     A
C529   C530    1.393   .     A
C529   C18     1.405   1_556 S
C529   C24     1.418   1_556 S
C530   C531    1.390   .     A
C530   H546    1.084   .     S
C531   H536    1.081   .     S
C532   H547    1.080   .     S
C533   H534    1.083   .     S
H540   C18     1.084   1_556 S
N549   Zn559   2.010   .     S
N550   Zn560   2.010   .     S
O551   Zn559   1.998   .     S
O552   Zn560   1.999   .     S
O553   Zn559   1.956   .     S
O554   Zn560   1.911   .     S
O555   Zn559   1.999   .     S
O556   Zn560   1.998   .     S
O557   Zn559   1.911   .     S
O558   Zn560   1.956   .     S
Br561  C582    1.923   .     S
C562   O607    1.283   .     A
C562   O608    1.283   .     A
C562   C570    1.419   .     S
C563   C583    1.412   .     A
C563   C580    1.402   .     A
C563   C565    1.460   .     S
C564   C570    1.397   .     A
C564   H593    1.083   .     S
C564   C734    1.370   .     S
C565   O609    1.292   .     A
C565   O610    1.293   .     A
C566   C567    1.397   .     A
C566   H597    1.084   .     S
C566   C900    1.370   1_545 S
C567   C576    1.418   .     S
C567   C568    1.397   .     A
C568   H598    1.083   .     S
C568   C905    1.370   1_545 S
C569   C570    1.397   .     A
C569   H599    1.084   .     S
C569   C736    1.370   .     S
C571   N606    1.366   .     A
C571   H594    1.081   .     S
C571   C628    1.415   .     S
C572   H600    1.081   .     S
C572   N605    1.367   .     A
C573   C583    1.408   .     A
C573   C78     1.426   1_556 S
C573   C80     1.414   1_556 S
C574   H601    1.081   .     S
C574   N605    1.366   .     A
C575   H595    1.081   .     S
C575   N606    1.367   .     A
C575   C630    1.415   .     S
C576   O611    1.283   .     A
C576   O612    1.283   .     A
C577   O613    1.292   .     A
C577   C579    1.454   .     S
C577   O614    1.292   .     A
C578   C589    1.396   .     A
C579   C588    1.389   .     A
C579   C589    1.401   .     A
C580   H604    1.083   .     S
C580   C581    1.387   .     A
C581   C78     1.394   1_556 S
C581   H87     1.083   1_556 S
C583   C587    1.416   .     A
C584   C588    1.387   .     A
C585   C586    1.393   .     A
C585   C74     1.405   1_556 S
C585   C80     1.418   1_556 S
C586   C587    1.390   .     A
C586   H602    1.084   .     S
C587   H592    1.081   .     S
C588   H603    1.080   .     S
C589   H590    1.083   .     S
H596   C74     1.084   1_556 S
N605   Zn615   2.010   .     S
N606   Zn616   2.010   .     S
O607   Zn615   1.998   .     S
O608   Zn616   1.999   .     S
O609   Zn615   1.956   .     S
O610   Zn616   1.911   .     S
O611   Zn615   1.999   .     S
O612   Zn616   1.998   .     S
O613   Zn615   1.911   .     S
O614   Zn616   1.956   .     S
Br617  C638    1.923   .     S
C618   O663    1.283   .     A
C618   O664    1.283   .     A
C618   C626    1.419   .     S
C619   C639    1.412   .     A
C619   C636    1.402   .     A
C619   C621    1.460   .     S
C620   C626    1.397   .     A
C620   H649    1.083   .     S
C620   C790    1.370   .     S
C621   O665    1.292   .     A
C621   O666    1.293   .     A
C622   C623    1.397   .     A
C622   H653    1.084   .     S
C622   C956    1.370   1_545 S
C623   C632    1.418   .     S
C623   C624    1.397   .     A
C624   H654    1.083   .     S
C624   C961    1.370   1_545 S
C625   C626    1.397   .     A
C625   H655    1.084   .     S
C625   C792    1.370   .     S
C627   N662    1.366   .     A
C627   H650    1.081   .     S
C627   C516    1.415   1_655 S
C628   H656    1.081   .     S
C628   N661    1.367   .     A
C629   C639    1.408   .     A
C629   C134    1.426   1_556 S
C629   C136    1.414   1_556 S
C630   H657    1.081   .     S
C630   N661    1.366   .     A
C631   H651    1.081   .     S
C631   N662    1.367   .     A
C631   C518    1.415   1_655 S
C632   O667    1.283   .     A
C632   O668    1.283   .     A
C633   O669    1.292   .     A
C633   C635    1.454   .     S
C633   O670    1.292   .     A
C634   C645    1.396   .     A
C635   C644    1.389   .     A
C635   C645    1.401   .     A
C636   H660    1.083   .     S
C636   C637    1.387   .     A
C637   C134    1.394   1_556 S
C637   H143    1.083   1_556 S
C639   C643    1.416   .     A
C640   C644    1.387   .     A
C641   C642    1.393   .     A
C641   C130    1.405   1_556 S
C641   C136    1.418   1_556 S
C642   C643    1.390   .     A
C642   H658    1.084   .     S
C643   H648    1.081   .     S
C644   H659    1.080   .     S
C645   H646    1.083   .     S
H652   C130    1.084   1_556 S
N661   Zn671   2.010   .     S
N662   Zn672   2.010   .     S
O663   Zn671   1.998   .     S
O664   Zn672   1.999   .     S
O665   Zn671   1.956   .     S
O666   Zn672   1.911   .     S
O667   Zn671   1.999   .     S
O668   Zn672   1.998   .     S
O669   Zn671   1.911   .     S
O670   Zn672   1.956   .     S
Br673  C694    1.923   .     S
C674   O719    1.283   .     A
C674   O720    1.283   .     A
C674   C682    1.419   .     S
C675   C695    1.412   .     A
C675   C692    1.402   .     A
C675   C677    1.460   .     S
C676   C682    1.397   .     A
C676   H705    1.083   .     S
C676   C846    1.370   .     S
C677   O721    1.292   .     A
C677   O722    1.293   .     A
C678   C679    1.397   .     A
C678   H709    1.084   .     S
C679   C688    1.418   .     S
C679   C680    1.397   .     A
C680   H710    1.083   .     S
C681   C682    1.397   .     A
C681   H711    1.084   .     S
C681   C848    1.370   .     S
C683   N718    1.366   .     A
C683   H706    1.081   .     S
C683   C740    1.415   .     S
C684   H712    1.081   .     S
C684   N717    1.367   .     A
C684   C795    1.415   1_455 S
C685   C695    1.408   .     A
C685   C190    1.426   1_556 S
C685   C192    1.414   1_556 S
C686   H713    1.081   .     S
C686   N717    1.366   .     A
C686   C799    1.415   1_455 S
C687   H707    1.081   .     S
C687   N718    1.367   .     A
C687   C742    1.415   .     S
C688   O723    1.283   .     A
C688   O724    1.283   .     A
C689   O725    1.292   .     A
C689   C691    1.454   .     S
C689   O726    1.292   .     A
C690   C701    1.396   .     A
C691   C700    1.389   .     A
C691   C701    1.401   .     A
C692   H716    1.083   .     S
C692   C693    1.387   .     A
C693   C190    1.394   1_556 S
C693   H199    1.083   1_556 S
C695   C699    1.416   .     A
C696   C700    1.387   .     A
C697   C698    1.393   .     A
C697   C186    1.405   1_556 S
C697   C192    1.418   1_556 S
C698   C699    1.390   .     A
C698   H714    1.084   .     S
C699   H704    1.081   .     S
C700   H715    1.080   .     S
C701   H702    1.083   .     S
H708   C186    1.084   1_556 S
N717   Zn727   2.010   .     S
N718   Zn728   2.010   .     S
O719   Zn727   1.998   .     S
O720   Zn728   1.999   .     S
O721   Zn727   1.956   .     S
O722   Zn728   1.911   .     S
O723   Zn727   1.999   .     S
O724   Zn728   1.998   .     S
O725   Zn727   1.911   .     S
O726   Zn728   1.956   .     S
Br729  C750    1.923   .     S
C730   O775    1.283   .     A
C730   O776    1.283   .     A
C730   C738    1.419   .     S
C731   C751    1.412   .     A
C731   C748    1.402   .     A
C731   C733    1.460   .     S
C732   C738    1.397   .     A
C732   H761    1.083   .     S
C732   C902    1.370   .     S
C733   O777    1.292   .     A
C733   O778    1.293   .     A
C734   C735    1.397   .     A
C734   H765    1.084   .     S
C735   C744    1.418   .     S
C735   C736    1.397   .     A
C736   H766    1.083   .     S
C737   C738    1.397   .     A
C737   H767    1.084   .     S
C737   C904    1.370   .     S
C739   N774    1.366   .     A
C739   H762    1.081   .     S
C739   C796    1.415   .     S
C740   H768    1.081   .     S
C740   N773    1.367   .     A
C741   C751    1.408   .     A
C741   C246    1.426   1_556 S
C741   C248    1.414   1_556 S
C742   H769    1.081   .     S
C742   N773    1.366   .     A
C743   H763    1.081   .     S
C743   N774    1.367   .     A
C743   C798    1.415   .     S
C744   O779    1.283   .     A
C744   O780    1.283   .     A
C745   O781    1.292   .     A
C745   C747    1.454   .     S
C745   O782    1.292   .     A
C746   C757    1.396   .     A
C747   C756    1.389   .     A
C747   C757    1.401   .     A
C748   H772    1.083   .     S
C748   C749    1.387   .     A
C749   C246    1.394   1_556 S
C749   H255    1.083   1_556 S
C751   C755    1.416   .     A
C752   C756    1.387   .     A
C753   C754    1.393   .     A
C753   C242    1.405   1_556 S
C753   C248    1.418   1_556 S
C754   C755    1.390   .     A
C754   H770    1.084   .     S
C755   H760    1.081   .     S
C756   H771    1.080   .     S
C757   H758    1.083   .     S
H764   C242    1.084   1_556 S
N773   Zn783   2.010   .     S
N774   Zn784   2.010   .     S
O775   Zn783   1.998   .     S
O776   Zn784   1.999   .     S
O777   Zn783   1.956   .     S
O778   Zn784   1.911   .     S
O779   Zn783   1.999   .     S
O780   Zn784   1.998   .     S
O781   Zn783   1.911   .     S
O782   Zn784   1.956   .     S
Br785  C806    1.923   .     S
C786   O831    1.283   .     A
C786   O832    1.283   .     A
C786   C794    1.419   .     S
C787   C807    1.412   .     A
C787   C804    1.402   .     A
C787   C789    1.460   .     S
C788   C794    1.397   .     A
C788   H817    1.083   .     S
C788   C958    1.370   .     S
C789   O833    1.292   .     A
C789   O834    1.293   .     A
C790   C791    1.397   .     A
C790   H821    1.084   .     S
C791   C800    1.418   .     S
C791   C792    1.397   .     A
C792   H822    1.083   .     S
C793   C794    1.397   .     A
C793   H823    1.084   .     S
C793   C960    1.370   .     S
C795   N830    1.366   .     A
C795   H818    1.081   .     S
C795   C684    1.415   1_655 S
C796   H824    1.081   .     S
C796   N829    1.367   .     A
C797   C807    1.408   .     A
C797   C302    1.426   1_556 S
C797   C304    1.414   1_556 S
C798   H825    1.081   .     S
C798   N829    1.366   .     A
C799   H819    1.081   .     S
C799   N830    1.367   .     A
C799   C686    1.415   1_655 S
C800   O835    1.283   .     A
C800   O836    1.283   .     A
C801   O837    1.292   .     A
C801   C803    1.454   .     S
C801   O838    1.292   .     A
C802   C813    1.396   .     A
C803   C812    1.389   .     A
C803   C813    1.401   .     A
C804   H828    1.083   .     S
C804   C805    1.387   .     A
C805   C302    1.394   1_556 S
C805   H311    1.083   1_556 S
C807   C811    1.416   .     A
C808   C812    1.387   .     A
C809   C810    1.393   .     A
C809   C298    1.405   1_556 S
C809   C304    1.418   1_556 S
C810   C811    1.390   .     A
C810   H826    1.084   .     S
C811   H816    1.081   .     S
C812   H827    1.080   .     S
C813   H814    1.083   .     S
H820   C298    1.084   1_556 S
N829   Zn839   2.010   .     S
N830   Zn840   2.010   .     S
O831   Zn839   1.998   .     S
O832   Zn840   1.999   .     S
O833   Zn839   1.956   .     S
O834   Zn840   1.911   .     S
O835   Zn839   1.999   .     S
O836   Zn840   1.998   .     S
O837   Zn839   1.911   .     S
O838   Zn840   1.956   .     S
Br841  C862    1.923   .     S
C842   O887    1.283   .     A
C842   O888    1.283   .     A
C842   C850    1.419   .     S
C843   C863    1.412   .     A
C843   C860    1.402   .     A
C843   C845    1.460   .     S
C844   C850    1.397   .     A
C844   H873    1.083   .     S
C844   C510    1.370   1_565 S
C845   O889    1.292   .     A
C845   O890    1.293   .     A
C846   C847    1.397   .     A
C846   H877    1.084   .     S
C847   C856    1.418   .     S
C847   C848    1.397   .     A
C848   H878    1.083   .     S
C849   C850    1.397   .     A
C849   H879    1.084   .     S
C849   C512    1.370   1_565 S
C851   N886    1.366   .     A
C851   H874    1.081   .     S
C851   C908    1.415   .     S
C852   H880    1.081   .     S
C852   N885    1.367   .     A
C852   C963    1.415   1_455 S
C853   C863    1.408   .     A
C853   C358    1.426   1_556 S
C853   C360    1.414   1_556 S
C854   H881    1.081   .     S
C854   N885    1.366   .     A
C854   C967    1.415   1_455 S
C855   H875    1.081   .     S
C855   N886    1.367   .     A
C855   C910    1.415   .     S
C856   O891    1.283   .     A
C856   O892    1.283   .     A
C857   O893    1.292   .     A
C857   C859    1.454   .     S
C857   O894    1.292   .     A
C858   C869    1.396   .     A
C859   C868    1.389   .     A
C859   C869    1.401   .     A
C860   H884    1.083   .     S
C860   C861    1.387   .     A
C861   C358    1.394   1_556 S
C861   H367    1.083   1_556 S
C863   C867    1.416   .     A
C864   C868    1.387   .     A
C865   C866    1.393   .     A
C865   C354    1.405   1_556 S
C865   C360    1.418   1_556 S
C866   C867    1.390   .     A
C866   H882    1.084   .     S
C867   H872    1.081   .     S
C868   H883    1.080   .     S
C869   H870    1.083   .     S
H876   C354    1.084   1_556 S
N885   Zn895   2.010   .     S
N886   Zn896   2.010   .     S
O887   Zn895   1.998   .     S
O888   Zn896   1.999   .     S
O889   Zn895   1.956   .     S
O890   Zn896   1.911   .     S
O891   Zn895   1.999   .     S
O892   Zn896   1.998   .     S
O893   Zn895   1.911   .     S
O894   Zn896   1.956   .     S
Br897  C918    1.923   .     S
C898   O943    1.283   .     A
C898   O944    1.283   .     A
C898   C906    1.419   .     S
C899   C919    1.412   .     A
C899   C916    1.402   .     A
C899   C901    1.460   .     S
C900   C906    1.397   .     A
C900   H929    1.083   .     S
C900   C566    1.370   1_565 S
C901   O945    1.292   .     A
C901   O946    1.293   .     A
C902   C903    1.397   .     A
C902   H933    1.084   .     S
C903   C912    1.418   .     S
C903   C904    1.397   .     A
C904   H934    1.083   .     S
C905   C906    1.397   .     A
C905   H935    1.084   .     S
C905   C568    1.370   1_565 S
C907   N942    1.366   .     A
C907   H930    1.081   .     S
C907   C964    1.415   .     S
C908   H936    1.081   .     S
C908   N941    1.367   .     A
C909   C919    1.408   .     A
C909   C414    1.426   1_556 S
C909   C416    1.414   1_556 S
C910   H937    1.081   .     S
C910   N941    1.366   .     A
C911   H931    1.081   .     S
C911   N942    1.367   .     A
C911   C966    1.415   .     S
C912   O947    1.283   .     A
C912   O948    1.283   .     A
C913   O949    1.292   .     A
C913   C915    1.454   .     S
C913   O950    1.292   .     A
C914   C925    1.396   .     A
C915   C924    1.389   .     A
C915   C925    1.401   .     A
C916   H940    1.083   .     S
C916   C917    1.387   .     A
C917   C414    1.394   1_556 S
C917   H423    1.083   1_556 S
C919   C923    1.416   .     A
C920   C924    1.387   .     A
C921   C922    1.393   .     A
C921   C410    1.405   1_556 S
C921   C416    1.418   1_556 S
C922   C923    1.390   .     A
C922   H938    1.084   .     S
C923   H928    1.081   .     S
C924   H939    1.080   .     S
C925   H926    1.083   .     S
H932   C410    1.084   1_556 S
N941   Zn951   2.010   .     S
N942   Zn952   2.010   .     S
O943   Zn951   1.998   .     S
O944   Zn952   1.999   .     S
O945   Zn951   1.956   .     S
O946   Zn952   1.911   .     S
O947   Zn951   1.999   .     S
O948   Zn952   1.998   .     S
O949   Zn951   1.911   .     S
O950   Zn952   1.956   .     S
Br953  C974    1.923   .     S
C954   O999    1.283   .     A
C954   O1000   1.283   .     A
C954   C962    1.419   .     S
C955   C975    1.412   .     A
C955   C972    1.402   .     A
C955   C957    1.460   .     S
C956   C962    1.397   .     A
C956   H985    1.083   .     S
C956   C622    1.370   1_565 S
C957   O1001   1.292   .     A
C957   O1002   1.293   .     A
C958   C959    1.397   .     A
C958   H989    1.084   .     S
C959   C968    1.418   .     S
C959   C960    1.397   .     A
C960   H990    1.083   .     S
C961   C962    1.397   .     A
C961   H991    1.084   .     S
C961   C624    1.370   1_565 S
C963   N998    1.366   .     A
C963   H986    1.081   .     S
C963   C852    1.415   1_655 S
C964   H992    1.081   .     S
C964   N997    1.367   .     A
C965   C975    1.408   .     A
C965   C470    1.426   1_556 S
C965   C472    1.414   1_556 S
C966   H993    1.081   .     S
C966   N997    1.366   .     A
C967   H987    1.081   .     S
C967   N998    1.367   .     A
C967   C854    1.415   1_655 S
C968   O1003   1.283   .     A
C968   O1004   1.283   .     A
C969   O1005   1.292   .     A
C969   C971    1.454   .     S
C969   O1006   1.292   .     A
C970   C981    1.396   .     A
C971   C980    1.389   .     A
C971   C981    1.401   .     A
C972   H996    1.083   .     S
C972   C973    1.387   .     A
C973   C470    1.394   1_556 S
C973   H479    1.083   1_556 S
C975   C979    1.416   .     A
C976   C980    1.387   .     A
C977   C978    1.393   .     A
C977   C466    1.405   1_556 S
C977   C472    1.418   1_556 S
C978   C979    1.390   .     A
C978   H994    1.084   .     S
C979   H984    1.081   .     S
C980   H995    1.080   .     S
C981   H982    1.083   .     S
H988   C466    1.084   1_556 S
N997   Zn1007  2.010   .     S
N998   Zn1008  2.010   .     S
O999   Zn1007  1.998   .     S
O1000  Zn1008  1.999   .     S
O1001  Zn1007  1.956   .     S
O1002  Zn1008  1.911   .     S
O1003  Zn1007  1.999   .     S
O1004  Zn1008  1.998   .     S
O1005  Zn1007  1.911   .     S
O1006  Zn1008  1.956   .     S
