data_str_m1_o10_o18_pcu_sym.258
_audit_creation_date              2020-01-03
_audit_creation_method            'Materials Studio'
_symmetry_space_group_name_H-M    'P1'
_symmetry_Int_Tables_number       1
_symmetry_cell_setting            triclinic
loop_
_symmetry_equiv_pos_as_xyz
  x,y,z
_cell_length_a                    32.5337
_cell_length_b                    32.6408
_cell_length_c                    35.7176
_cell_angle_alpha                 98.2530
_cell_angle_beta                  73.0541
_cell_angle_gamma                 98.8135
loop_
_atom_site_label
_atom_site_type_symbol
_atom_site_fract_x
_atom_site_fract_y
_atom_site_fract_z
_atom_site_U_iso_or_equiv
_atom_site_adp_type
_atom_site_occupancy
C1     C     0.05252   0.15990   0.25864   0.00000  Uiso   1.00
C2     C     0.16915   0.11693   0.46964   0.00000  Uiso   1.00
C3     C     0.19110   0.09568   0.48749   0.00000  Uiso   1.00
C4     C     0.28106   0.17360   0.24119   0.00000  Uiso   1.00
C5     C     0.19912   0.11224   0.02307   0.00000  Uiso   1.00
C6     C     0.18682   0.15195   0.04045   0.00000  Uiso   1.00
C7     C     0.21423   0.08709   0.04375   0.00000  Uiso   1.00
C8     C     0.21321   0.09912   0.08293   0.00000  Uiso   1.00
C9     C     0.18324   0.16191   0.08087   0.00000  Uiso   1.00
C10    C     0.32709   0.17638   0.23765   0.00000  Uiso   1.00
C11    C     0.00712   0.15739   0.26193   0.00000  Uiso   1.00
C12    C     0.11929   0.23436   0.41800   0.00000  Uiso   1.00
C13    C     0.18166   0.32250   0.23797   0.00000  Uiso   1.00
C14    C     0.15155   0.01235   0.26178   0.00000  Uiso   1.00
C15    C     0.15541   0.05631   0.25925   0.00000  Uiso   1.00
C16    C     0.17700   0.27776   0.24129   0.00000  Uiso   1.00
C17    C     0.18822   0.14513   0.14406   0.00000  Uiso   1.00
C18    C     0.14585   0.18810   0.35607   0.00000  Uiso   1.00
C19    C     0.13958   0.19936   0.39859   0.00000  Uiso   1.00
C20    C     0.19661   0.13600   0.10169   0.00000  Uiso   1.00
C21    C     0.11925   0.24842   0.45698   0.00000  Uiso   1.00
C22    C     0.22027   0.00872   0.20784   0.00000  Uiso   1.00
C23    C     0.15624   0.17617   0.41941   0.00000  Uiso   1.00
C24    C     0.10085   0.28864   0.47544   0.00000  Uiso   1.00
C25    C     0.19311   0.24837   0.05720   0.00000  Uiso   1.00
C26    C     0.14522   0.08996   0.44268   0.00000  Uiso   1.00
C27    C     0.15168   0.18614   0.45983   0.00000  Uiso   1.00
C28    C     0.13761   0.22517   0.47742   0.00000  Uiso   1.00
C29    C     0.16480   0.16014   0.48203   0.00000  Uiso   1.00
C30    C     0.17395   0.17806   0.01811   0.00000  Uiso   1.00
C31    C     0.16917   0.22110   0.03045   0.00000  Uiso   1.00
C32    C     0.14626   0.24185   0.01301   0.00000  Uiso   1.00
F33    F     0.11605   0.32910   0.28852   0.00000  Uiso   1.00
H34    H     0.13998   0.27337   0.02512   0.00000  Uiso   1.00
H35    H     0.24210   0.31897   0.19048   0.00000  Uiso   1.00
H36    H     0.20896   0.02319   0.18688   0.00000  Uiso   1.00
H37    H     0.23953   0.03302   0.22291   0.00000  Uiso   1.00
H38    H     0.08550   0.30095   0.45604   0.00000  Uiso   1.00
H39    H     0.07577   0.28334   0.00355   0.00000  Uiso   1.00
H40    H     0.12701   0.31275   0.48105   0.00000  Uiso   1.00
H41    H     0.17043   0.25602   0.08649   0.00000  Uiso   1.00
H42    H     0.22065   0.23400   0.06007   0.00000  Uiso   1.00
H43    H     0.20768   0.27813   0.04445   0.00000  Uiso   1.00
H44    H     0.11790   0.10460   0.43970   0.00000  Uiso   1.00
H45    H     0.22436   0.05699   0.03036   0.00000  Uiso   1.00
H46    H     0.16797   0.08231   0.41343   0.00000  Uiso   1.00
H47    H     0.13033   0.06018   0.45527   0.00000  Uiso   1.00
H48    H     0.01685   0.19392   0.21522   0.00000  Uiso   1.00
H49    H     0.31802   0.13970   0.28455   0.00000  Uiso   1.00
H50    H     0.16677   0.18780   0.09752   0.00000  Uiso   1.00
H51    H     0.22306   0.07862   0.09920   0.00000  Uiso   1.00
H52    H     0.19670   0.06370   0.47631   0.00000  Uiso   1.00
H53    H     0.10605   0.25233   0.40199   0.00000  Uiso   1.00
H54    H     0.17463   0.15127   0.40334   0.00000  Uiso   1.00
O55    O     0.16667   0.16667   0.25000   0.00000  Uiso   1.00
O56    O     0.15693   0.12393   0.16625   0.00000  Uiso   1.00
O57    O     0.12687   0.20646   0.33749   0.00000  Uiso   1.00
O58    O     0.21088   0.17493   0.15877   0.00000  Uiso   1.00
O59    O     0.17198   0.16135   0.33749   0.00000  Uiso   1.00
O60    O     0.17849   0.08101   0.27820   0.00000  Uiso   1.00
O61    O     0.14581   0.26136   0.26767   0.00000  Uiso   1.00
O62    O     0.07452   0.13251   0.23607   0.00000  Uiso   1.00
O63    O     0.26785   0.19179   0.21805   0.00000  Uiso   1.00
O64    O     0.06990   0.18960   0.27820   0.00000  Uiso   1.00
O65    O     0.25440   0.15277   0.26767   0.00000  Uiso   1.00
O66    O     0.13800   0.06903   0.23607   0.00000  Uiso   1.00
O67    O     0.20437   0.25527   0.21805   0.00000  Uiso   1.00
Zn68   Zn    0.19244   0.14090   0.28277   0.00000  Uiso   1.00
Zn69   Zn    0.13459   0.12378   0.22257   0.00000  Uiso   1.00
Zn70   Zn    0.21166   0.19664   0.21188   0.00000  Uiso   1.00
Zn71   Zn    0.12798   0.20535   0.28277   0.00000  Uiso   1.00
C72    C     0.38585   0.15990   0.25864   0.00000  Uiso   1.00
C73    C     0.50248   0.11693   0.46964   0.00000  Uiso   1.00
C74    C     0.52443   0.09568   0.48749   0.00000  Uiso   1.00
C75    C     0.61440   0.17360   0.24119   0.00000  Uiso   1.00
C76    C     0.53246   0.11224   0.02307   0.00000  Uiso   1.00
C77    C     0.52015   0.15195   0.04045   0.00000  Uiso   1.00
C78    C     0.54756   0.08709   0.04375   0.00000  Uiso   1.00
C79    C     0.54654   0.09912   0.08293   0.00000  Uiso   1.00
C80    C     0.51657   0.16191   0.08087   0.00000  Uiso   1.00
C81    C     0.66042   0.17638   0.23765   0.00000  Uiso   1.00
C82    C     0.34045   0.15739   0.26193   0.00000  Uiso   1.00
C83    C     0.45263   0.23436   0.41800   0.00000  Uiso   1.00
C84    C     0.51499   0.32250   0.23797   0.00000  Uiso   1.00
C85    C     0.48488   0.01235   0.26178   0.00000  Uiso   1.00
C86    C     0.48874   0.05631   0.25925   0.00000  Uiso   1.00
C87    C     0.51033   0.27776   0.24129   0.00000  Uiso   1.00
C88    C     0.52156   0.14513   0.14406   0.00000  Uiso   1.00
C89    C     0.47918   0.18810   0.35607   0.00000  Uiso   1.00
C90    C     0.47291   0.19936   0.39859   0.00000  Uiso   1.00
C91    C     0.52994   0.13600   0.10169   0.00000  Uiso   1.00
C92    C     0.45259   0.24842   0.45698   0.00000  Uiso   1.00
C93    C     0.55360   0.00872   0.20784   0.00000  Uiso   1.00
C94    C     0.48958   0.17617   0.41941   0.00000  Uiso   1.00
C95    C     0.43418   0.28864   0.47544   0.00000  Uiso   1.00
C96    C     0.52644   0.24837   0.05720   0.00000  Uiso   1.00
C97    C     0.47855   0.08996   0.44268   0.00000  Uiso   1.00
C98    C     0.48502   0.18614   0.45983   0.00000  Uiso   1.00
C99    C     0.47095   0.22517   0.47742   0.00000  Uiso   1.00
C100   C     0.49814   0.16014   0.48203   0.00000  Uiso   1.00
C101   C     0.50728   0.17806   0.01811   0.00000  Uiso   1.00
C102   C     0.50250   0.22110   0.03045   0.00000  Uiso   1.00
C103   C     0.47960   0.24185   0.01301   0.00000  Uiso   1.00
F104   F     0.44938   0.32910   0.28852   0.00000  Uiso   1.00
H105   H     0.47332   0.27337   0.02512   0.00000  Uiso   1.00
H106   H     0.57544   0.31897   0.19048   0.00000  Uiso   1.00
H107   H     0.54230   0.02319   0.18688   0.00000  Uiso   1.00
H108   H     0.57286   0.03302   0.22291   0.00000  Uiso   1.00
H109   H     0.41884   0.30095   0.45604   0.00000  Uiso   1.00
H110   H     0.40910   0.28334   0.00355   0.00000  Uiso   1.00
H111   H     0.46035   0.31275   0.48105   0.00000  Uiso   1.00
H112   H     0.50376   0.25602   0.08649   0.00000  Uiso   1.00
H113   H     0.55398   0.23400   0.06007   0.00000  Uiso   1.00
H114   H     0.54101   0.27813   0.04445   0.00000  Uiso   1.00
H115   H     0.45123   0.10460   0.43970   0.00000  Uiso   1.00
H116   H     0.55769   0.05699   0.03036   0.00000  Uiso   1.00
H117   H     0.50130   0.08231   0.41343   0.00000  Uiso   1.00
H118   H     0.46366   0.06018   0.45527   0.00000  Uiso   1.00
H119   H     0.35018   0.19392   0.21522   0.00000  Uiso   1.00
H120   H     0.65135   0.13970   0.28455   0.00000  Uiso   1.00
H121   H     0.50011   0.18780   0.09752   0.00000  Uiso   1.00
H122   H     0.55640   0.07862   0.09920   0.00000  Uiso   1.00
H123   H     0.53003   0.06370   0.47631   0.00000  Uiso   1.00
H124   H     0.43938   0.25233   0.40199   0.00000  Uiso   1.00
H125   H     0.50797   0.15127   0.40334   0.00000  Uiso   1.00
O126   O     0.50000   0.16667   0.25000   0.00000  Uiso   1.00
O127   O     0.49027   0.12393   0.16625   0.00000  Uiso   1.00
O128   O     0.46020   0.20646   0.33749   0.00000  Uiso   1.00
O129   O     0.54421   0.17493   0.15877   0.00000  Uiso   1.00
O130   O     0.50532   0.16135   0.33749   0.00000  Uiso   1.00
O131   O     0.51182   0.08101   0.27820   0.00000  Uiso   1.00
O132   O     0.47914   0.26136   0.26767   0.00000  Uiso   1.00
O133   O     0.40785   0.13251   0.23607   0.00000  Uiso   1.00
O134   O     0.60119   0.19179   0.21805   0.00000  Uiso   1.00
O135   O     0.40323   0.18960   0.27820   0.00000  Uiso   1.00
O136   O     0.58773   0.15277   0.26767   0.00000  Uiso   1.00
O137   O     0.47133   0.06903   0.23607   0.00000  Uiso   1.00
O138   O     0.53771   0.25527   0.21805   0.00000  Uiso   1.00
Zn139  Zn    0.52577   0.14090   0.28277   0.00000  Uiso   1.00
Zn140  Zn    0.46792   0.12378   0.22257   0.00000  Uiso   1.00
Zn141  Zn    0.54500   0.19664   0.21188   0.00000  Uiso   1.00
Zn142  Zn    0.46131   0.20535   0.28277   0.00000  Uiso   1.00
C143   C     0.71918   0.15990   0.25864   0.00000  Uiso   1.00
C144   C     0.83581   0.11693   0.46964   0.00000  Uiso   1.00
C145   C     0.85776   0.09568   0.48749   0.00000  Uiso   1.00
C146   C     0.94773   0.17360   0.24119   0.00000  Uiso   1.00
C147   C     0.86579   0.11224   0.02307   0.00000  Uiso   1.00
C148   C     0.85348   0.15195   0.04045   0.00000  Uiso   1.00
C149   C     0.88090   0.08709   0.04375   0.00000  Uiso   1.00
C150   C     0.87987   0.09912   0.08293   0.00000  Uiso   1.00
C151   C     0.84990   0.16191   0.08087   0.00000  Uiso   1.00
C152   C     0.99375   0.17638   0.23765   0.00000  Uiso   1.00
C153   C     0.67379   0.15739   0.26193   0.00000  Uiso   1.00
C154   C     0.78596   0.23436   0.41800   0.00000  Uiso   1.00
C155   C     0.84832   0.32250   0.23797   0.00000  Uiso   1.00
C156   C     0.81821   0.01235   0.26178   0.00000  Uiso   1.00
C157   C     0.82208   0.05631   0.25925   0.00000  Uiso   1.00
C158   C     0.84367   0.27776   0.24129   0.00000  Uiso   1.00
C159   C     0.85489   0.14513   0.14406   0.00000  Uiso   1.00
C160   C     0.81252   0.18810   0.35607   0.00000  Uiso   1.00
C161   C     0.80625   0.19936   0.39859   0.00000  Uiso   1.00
C162   C     0.86328   0.13600   0.10169   0.00000  Uiso   1.00
C163   C     0.78592   0.24842   0.45698   0.00000  Uiso   1.00
C164   C     0.88693   0.00872   0.20784   0.00000  Uiso   1.00
C165   C     0.82291   0.17617   0.41941   0.00000  Uiso   1.00
C166   C     0.76752   0.28864   0.47544   0.00000  Uiso   1.00
C167   C     0.85978   0.24837   0.05720   0.00000  Uiso   1.00
C168   C     0.81188   0.08996   0.44268   0.00000  Uiso   1.00
C169   C     0.81835   0.18614   0.45983   0.00000  Uiso   1.00
C170   C     0.80428   0.22517   0.47742   0.00000  Uiso   1.00
C171   C     0.83147   0.16014   0.48203   0.00000  Uiso   1.00
C172   C     0.84062   0.17806   0.01811   0.00000  Uiso   1.00
C173   C     0.83584   0.22110   0.03045   0.00000  Uiso   1.00
C174   C     0.81293   0.24185   0.01301   0.00000  Uiso   1.00
F175   F     0.78272   0.32910   0.28852   0.00000  Uiso   1.00
H176   H     0.80665   0.27337   0.02512   0.00000  Uiso   1.00
H177   H     0.90877   0.31897   0.19048   0.00000  Uiso   1.00
H178   H     0.87563   0.02319   0.18688   0.00000  Uiso   1.00
H179   H     0.90620   0.03302   0.22291   0.00000  Uiso   1.00
H180   H     0.75217   0.30095   0.45604   0.00000  Uiso   1.00
H181   H     0.74244   0.28334   0.00355   0.00000  Uiso   1.00
H182   H     0.79368   0.31275   0.48105   0.00000  Uiso   1.00
H183   H     0.83710   0.25602   0.08649   0.00000  Uiso   1.00
H184   H     0.88731   0.23400   0.06007   0.00000  Uiso   1.00
H185   H     0.87435   0.27813   0.04445   0.00000  Uiso   1.00
H186   H     0.78456   0.10460   0.43970   0.00000  Uiso   1.00
H187   H     0.89103   0.05699   0.03036   0.00000  Uiso   1.00
H188   H     0.83463   0.08231   0.41343   0.00000  Uiso   1.00
H189   H     0.79700   0.06018   0.45527   0.00000  Uiso   1.00
H190   H     0.68352   0.19392   0.21522   0.00000  Uiso   1.00
H191   H     0.98469   0.13970   0.28455   0.00000  Uiso   1.00
H192   H     0.83344   0.18780   0.09752   0.00000  Uiso   1.00
H193   H     0.88973   0.07862   0.09920   0.00000  Uiso   1.00
H194   H     0.86337   0.06370   0.47631   0.00000  Uiso   1.00
H195   H     0.77271   0.25233   0.40199   0.00000  Uiso   1.00
H196   H     0.84130   0.15127   0.40334   0.00000  Uiso   1.00
O197   O     0.83333   0.16667   0.25000   0.00000  Uiso   1.00
O198   O     0.82360   0.12393   0.16625   0.00000  Uiso   1.00
O199   O     0.79354   0.20646   0.33749   0.00000  Uiso   1.00
O200   O     0.87755   0.17493   0.15877   0.00000  Uiso   1.00
O201   O     0.83865   0.16135   0.33749   0.00000  Uiso   1.00
O202   O     0.84515   0.08101   0.27820   0.00000  Uiso   1.00
O203   O     0.81247   0.26136   0.26767   0.00000  Uiso   1.00
O204   O     0.74119   0.13251   0.23607   0.00000  Uiso   1.00
O205   O     0.93452   0.19179   0.21805   0.00000  Uiso   1.00
O206   O     0.73656   0.18960   0.27820   0.00000  Uiso   1.00
O207   O     0.92106   0.15277   0.26767   0.00000  Uiso   1.00
O208   O     0.80467   0.06903   0.23607   0.00000  Uiso   1.00
O209   O     0.87104   0.25527   0.21805   0.00000  Uiso   1.00
Zn210  Zn    0.85910   0.14090   0.28277   0.00000  Uiso   1.00
Zn211  Zn    0.80125   0.12378   0.22257   0.00000  Uiso   1.00
Zn212  Zn    0.87833   0.19664   0.21188   0.00000  Uiso   1.00
Zn213  Zn    0.79465   0.20535   0.28277   0.00000  Uiso   1.00
C214   C     0.05252   0.49324   0.25864   0.00000  Uiso   1.00
C215   C     0.16915   0.45027   0.46964   0.00000  Uiso   1.00
C216   C     0.19110   0.42901   0.48749   0.00000  Uiso   1.00
C217   C     0.28106   0.50693   0.24119   0.00000  Uiso   1.00
C218   C     0.19912   0.44557   0.02307   0.00000  Uiso   1.00
C219   C     0.18682   0.48529   0.04045   0.00000  Uiso   1.00
C220   C     0.21423   0.42042   0.04375   0.00000  Uiso   1.00
C221   C     0.21321   0.43245   0.08293   0.00000  Uiso   1.00
C222   C     0.18324   0.49524   0.08087   0.00000  Uiso   1.00
C223   C     0.32709   0.50972   0.23765   0.00000  Uiso   1.00
C224   C     0.00712   0.49073   0.26193   0.00000  Uiso   1.00
C225   C     0.11929   0.56770   0.41800   0.00000  Uiso   1.00
C226   C     0.18166   0.65583   0.23797   0.00000  Uiso   1.00
C227   C     0.15155   0.34568   0.26178   0.00000  Uiso   1.00
C228   C     0.15541   0.38964   0.25925   0.00000  Uiso   1.00
C229   C     0.17700   0.61109   0.24129   0.00000  Uiso   1.00
C230   C     0.18822   0.47847   0.14406   0.00000  Uiso   1.00
C231   C     0.14585   0.52143   0.35607   0.00000  Uiso   1.00
C232   C     0.13958   0.53269   0.39859   0.00000  Uiso   1.00
C233   C     0.19661   0.46933   0.10169   0.00000  Uiso   1.00
C234   C     0.11925   0.58175   0.45698   0.00000  Uiso   1.00
C235   C     0.22027   0.34206   0.20784   0.00000  Uiso   1.00
C236   C     0.15624   0.50950   0.41941   0.00000  Uiso   1.00
C237   C     0.10085   0.62197   0.47544   0.00000  Uiso   1.00
C238   C     0.19311   0.58171   0.05720   0.00000  Uiso   1.00
C239   C     0.14522   0.42330   0.44268   0.00000  Uiso   1.00
C240   C     0.15168   0.51947   0.45983   0.00000  Uiso   1.00
C241   C     0.13761   0.55850   0.47742   0.00000  Uiso   1.00
C242   C     0.16480   0.49348   0.48203   0.00000  Uiso   1.00
C243   C     0.17395   0.51139   0.01811   0.00000  Uiso   1.00
C244   C     0.16917   0.55444   0.03045   0.00000  Uiso   1.00
C245   C     0.14626   0.57519   0.01301   0.00000  Uiso   1.00
F246   F     0.11605   0.66243   0.28852   0.00000  Uiso   1.00
H247   H     0.13998   0.60671   0.02512   0.00000  Uiso   1.00
H248   H     0.24210   0.65230   0.19048   0.00000  Uiso   1.00
H249   H     0.20896   0.35652   0.18688   0.00000  Uiso   1.00
H250   H     0.23953   0.36635   0.22291   0.00000  Uiso   1.00
H251   H     0.08550   0.63428   0.45604   0.00000  Uiso   1.00
H252   H     0.07577   0.61668   0.00355   0.00000  Uiso   1.00
H253   H     0.12701   0.64608   0.48105   0.00000  Uiso   1.00
H254   H     0.17043   0.58936   0.08649   0.00000  Uiso   1.00
H255   H     0.22065   0.56733   0.06007   0.00000  Uiso   1.00
H256   H     0.20768   0.61147   0.04445   0.00000  Uiso   1.00
H257   H     0.11790   0.43794   0.43970   0.00000  Uiso   1.00
H258   H     0.22436   0.39032   0.03036   0.00000  Uiso   1.00
H259   H     0.16797   0.41564   0.41343   0.00000  Uiso   1.00
H260   H     0.13033   0.39351   0.45527   0.00000  Uiso   1.00
H261   H     0.01685   0.52726   0.21522   0.00000  Uiso   1.00
H262   H     0.31802   0.47303   0.28455   0.00000  Uiso   1.00
H263   H     0.16677   0.52114   0.09752   0.00000  Uiso   1.00
H264   H     0.22306   0.41195   0.09920   0.00000  Uiso   1.00
H265   H     0.19670   0.39703   0.47631   0.00000  Uiso   1.00
H266   H     0.10605   0.58566   0.40199   0.00000  Uiso   1.00
H267   H     0.17463   0.48460   0.40334   0.00000  Uiso   1.00
O268   O     0.16667   0.50000   0.25000   0.00000  Uiso   1.00
O269   O     0.15693   0.45726   0.16625   0.00000  Uiso   1.00
O270   O     0.12687   0.53979   0.33749   0.00000  Uiso   1.00
O271   O     0.21088   0.50826   0.15877   0.00000  Uiso   1.00
O272   O     0.17198   0.49468   0.33749   0.00000  Uiso   1.00
O273   O     0.17849   0.41434   0.27820   0.00000  Uiso   1.00
O274   O     0.14581   0.59469   0.26767   0.00000  Uiso   1.00
O275   O     0.07452   0.46584   0.23607   0.00000  Uiso   1.00
O276   O     0.26785   0.52512   0.21805   0.00000  Uiso   1.00
O277   O     0.06990   0.52293   0.27820   0.00000  Uiso   1.00
O278   O     0.25440   0.48610   0.26767   0.00000  Uiso   1.00
O279   O     0.13800   0.40236   0.23607   0.00000  Uiso   1.00
O280   O     0.20437   0.58860   0.21805   0.00000  Uiso   1.00
Zn281  Zn    0.19244   0.47423   0.28277   0.00000  Uiso   1.00
Zn282  Zn    0.13459   0.45711   0.22257   0.00000  Uiso   1.00
Zn283  Zn    0.21166   0.52997   0.21188   0.00000  Uiso   1.00
Zn284  Zn    0.12798   0.53868   0.28277   0.00000  Uiso   1.00
C285   C     0.38585   0.49324   0.25864   0.00000  Uiso   1.00
C286   C     0.50248   0.45027   0.46964   0.00000  Uiso   1.00
C287   C     0.52443   0.42901   0.48749   0.00000  Uiso   1.00
C288   C     0.61440   0.50693   0.24119   0.00000  Uiso   1.00
C289   C     0.53246   0.44557   0.02307   0.00000  Uiso   1.00
C290   C     0.52015   0.48529   0.04045   0.00000  Uiso   1.00
C291   C     0.54756   0.42042   0.04375   0.00000  Uiso   1.00
C292   C     0.54654   0.43245   0.08293   0.00000  Uiso   1.00
C293   C     0.51657   0.49524   0.08087   0.00000  Uiso   1.00
C294   C     0.66042   0.50972   0.23765   0.00000  Uiso   1.00
C295   C     0.34045   0.49073   0.26193   0.00000  Uiso   1.00
C296   C     0.45263   0.56770   0.41800   0.00000  Uiso   1.00
C297   C     0.51499   0.65583   0.23797   0.00000  Uiso   1.00
C298   C     0.48488   0.34568   0.26178   0.00000  Uiso   1.00
C299   C     0.48874   0.38964   0.25925   0.00000  Uiso   1.00
C300   C     0.51033   0.61109   0.24129   0.00000  Uiso   1.00
C301   C     0.52156   0.47847   0.14406   0.00000  Uiso   1.00
C302   C     0.47918   0.52143   0.35607   0.00000  Uiso   1.00
C303   C     0.47291   0.53269   0.39859   0.00000  Uiso   1.00
C304   C     0.52994   0.46933   0.10169   0.00000  Uiso   1.00
C305   C     0.45259   0.58175   0.45698   0.00000  Uiso   1.00
C306   C     0.55360   0.34206   0.20784   0.00000  Uiso   1.00
C307   C     0.48958   0.50950   0.41941   0.00000  Uiso   1.00
C308   C     0.43418   0.62197   0.47544   0.00000  Uiso   1.00
C309   C     0.52644   0.58171   0.05720   0.00000  Uiso   1.00
C310   C     0.47855   0.42330   0.44268   0.00000  Uiso   1.00
C311   C     0.48502   0.51947   0.45983   0.00000  Uiso   1.00
C312   C     0.47095   0.55850   0.47742   0.00000  Uiso   1.00
C313   C     0.49814   0.49348   0.48203   0.00000  Uiso   1.00
C314   C     0.50728   0.51139   0.01811   0.00000  Uiso   1.00
C315   C     0.50250   0.55444   0.03045   0.00000  Uiso   1.00
C316   C     0.47960   0.57519   0.01301   0.00000  Uiso   1.00
F317   F     0.44938   0.66243   0.28852   0.00000  Uiso   1.00
H318   H     0.47332   0.60671   0.02512   0.00000  Uiso   1.00
H319   H     0.57544   0.65230   0.19048   0.00000  Uiso   1.00
H320   H     0.54230   0.35652   0.18688   0.00000  Uiso   1.00
H321   H     0.57286   0.36635   0.22291   0.00000  Uiso   1.00
H322   H     0.41884   0.63428   0.45604   0.00000  Uiso   1.00
H323   H     0.40910   0.61668   0.00355   0.00000  Uiso   1.00
H324   H     0.46035   0.64608   0.48105   0.00000  Uiso   1.00
H325   H     0.50376   0.58936   0.08649   0.00000  Uiso   1.00
H326   H     0.55398   0.56733   0.06007   0.00000  Uiso   1.00
H327   H     0.54101   0.61147   0.04445   0.00000  Uiso   1.00
H328   H     0.45123   0.43794   0.43970   0.00000  Uiso   1.00
H329   H     0.55769   0.39032   0.03036   0.00000  Uiso   1.00
H330   H     0.50130   0.41564   0.41343   0.00000  Uiso   1.00
H331   H     0.46366   0.39351   0.45527   0.00000  Uiso   1.00
H332   H     0.35018   0.52726   0.21522   0.00000  Uiso   1.00
H333   H     0.65135   0.47303   0.28455   0.00000  Uiso   1.00
H334   H     0.50011   0.52114   0.09752   0.00000  Uiso   1.00
H335   H     0.55640   0.41195   0.09920   0.00000  Uiso   1.00
H336   H     0.53003   0.39703   0.47631   0.00000  Uiso   1.00
H337   H     0.43938   0.58566   0.40199   0.00000  Uiso   1.00
H338   H     0.50797   0.48460   0.40334   0.00000  Uiso   1.00
O339   O     0.50000   0.50000   0.25000   0.00000  Uiso   1.00
O340   O     0.49027   0.45726   0.16625   0.00000  Uiso   1.00
O341   O     0.46020   0.53979   0.33749   0.00000  Uiso   1.00
O342   O     0.54421   0.50826   0.15877   0.00000  Uiso   1.00
O343   O     0.50532   0.49468   0.33749   0.00000  Uiso   1.00
O344   O     0.51182   0.41434   0.27820   0.00000  Uiso   1.00
O345   O     0.47914   0.59469   0.26767   0.00000  Uiso   1.00
O346   O     0.40785   0.46584   0.23607   0.00000  Uiso   1.00
O347   O     0.60119   0.52512   0.21805   0.00000  Uiso   1.00
O348   O     0.40323   0.52293   0.27820   0.00000  Uiso   1.00
O349   O     0.58773   0.48610   0.26767   0.00000  Uiso   1.00
O350   O     0.47133   0.40236   0.23607   0.00000  Uiso   1.00
O351   O     0.53771   0.58860   0.21805   0.00000  Uiso   1.00
Zn352  Zn    0.52577   0.47423   0.28277   0.00000  Uiso   1.00
Zn353  Zn    0.46792   0.45711   0.22257   0.00000  Uiso   1.00
Zn354  Zn    0.54500   0.52997   0.21188   0.00000  Uiso   1.00
Zn355  Zn    0.46131   0.53868   0.28277   0.00000  Uiso   1.00
C356   C     0.71918   0.49324   0.25864   0.00000  Uiso   1.00
C357   C     0.83581   0.45027   0.46964   0.00000  Uiso   1.00
C358   C     0.85776   0.42901   0.48749   0.00000  Uiso   1.00
C359   C     0.94773   0.50693   0.24119   0.00000  Uiso   1.00
C360   C     0.86579   0.44557   0.02307   0.00000  Uiso   1.00
C361   C     0.85348   0.48529   0.04045   0.00000  Uiso   1.00
C362   C     0.88090   0.42042   0.04375   0.00000  Uiso   1.00
C363   C     0.87987   0.43245   0.08293   0.00000  Uiso   1.00
C364   C     0.84990   0.49524   0.08087   0.00000  Uiso   1.00
C365   C     0.99375   0.50972   0.23765   0.00000  Uiso   1.00
C366   C     0.67379   0.49073   0.26193   0.00000  Uiso   1.00
C367   C     0.78596   0.56770   0.41800   0.00000  Uiso   1.00
C368   C     0.84832   0.65583   0.23797   0.00000  Uiso   1.00
C369   C     0.81821   0.34568   0.26178   0.00000  Uiso   1.00
C370   C     0.82208   0.38964   0.25925   0.00000  Uiso   1.00
C371   C     0.84367   0.61109   0.24129   0.00000  Uiso   1.00
C372   C     0.85489   0.47847   0.14406   0.00000  Uiso   1.00
C373   C     0.81252   0.52143   0.35607   0.00000  Uiso   1.00
C374   C     0.80625   0.53269   0.39859   0.00000  Uiso   1.00
C375   C     0.86328   0.46933   0.10169   0.00000  Uiso   1.00
C376   C     0.78592   0.58175   0.45698   0.00000  Uiso   1.00
C377   C     0.88693   0.34206   0.20784   0.00000  Uiso   1.00
C378   C     0.82291   0.50950   0.41941   0.00000  Uiso   1.00
C379   C     0.76752   0.62197   0.47544   0.00000  Uiso   1.00
C380   C     0.85978   0.58171   0.05720   0.00000  Uiso   1.00
C381   C     0.81188   0.42330   0.44268   0.00000  Uiso   1.00
C382   C     0.81835   0.51947   0.45983   0.00000  Uiso   1.00
C383   C     0.80428   0.55850   0.47742   0.00000  Uiso   1.00
C384   C     0.83147   0.49348   0.48203   0.00000  Uiso   1.00
C385   C     0.84062   0.51139   0.01811   0.00000  Uiso   1.00
C386   C     0.83584   0.55444   0.03045   0.00000  Uiso   1.00
C387   C     0.81293   0.57519   0.01301   0.00000  Uiso   1.00
F388   F     0.78272   0.66243   0.28852   0.00000  Uiso   1.00
H389   H     0.80665   0.60671   0.02512   0.00000  Uiso   1.00
H390   H     0.90877   0.65230   0.19048   0.00000  Uiso   1.00
H391   H     0.87563   0.35652   0.18688   0.00000  Uiso   1.00
H392   H     0.90620   0.36635   0.22291   0.00000  Uiso   1.00
H393   H     0.75217   0.63428   0.45604   0.00000  Uiso   1.00
H394   H     0.74244   0.61668   0.00355   0.00000  Uiso   1.00
H395   H     0.79368   0.64608   0.48105   0.00000  Uiso   1.00
H396   H     0.83710   0.58936   0.08649   0.00000  Uiso   1.00
H397   H     0.88731   0.56733   0.06007   0.00000  Uiso   1.00
H398   H     0.87435   0.61147   0.04445   0.00000  Uiso   1.00
H399   H     0.78456   0.43794   0.43970   0.00000  Uiso   1.00
H400   H     0.89103   0.39032   0.03036   0.00000  Uiso   1.00
H401   H     0.83463   0.41564   0.41343   0.00000  Uiso   1.00
H402   H     0.79700   0.39351   0.45527   0.00000  Uiso   1.00
H403   H     0.68352   0.52726   0.21522   0.00000  Uiso   1.00
H404   H     0.98469   0.47303   0.28455   0.00000  Uiso   1.00
H405   H     0.83344   0.52114   0.09752   0.00000  Uiso   1.00
H406   H     0.88973   0.41195   0.09920   0.00000  Uiso   1.00
H407   H     0.86337   0.39703   0.47631   0.00000  Uiso   1.00
H408   H     0.77271   0.58566   0.40199   0.00000  Uiso   1.00
H409   H     0.84130   0.48460   0.40334   0.00000  Uiso   1.00
O410   O     0.83333   0.50000   0.25000   0.00000  Uiso   1.00
O411   O     0.82360   0.45726   0.16625   0.00000  Uiso   1.00
O412   O     0.79354   0.53979   0.33749   0.00000  Uiso   1.00
O413   O     0.87755   0.50826   0.15877   0.00000  Uiso   1.00
O414   O     0.83865   0.49468   0.33749   0.00000  Uiso   1.00
O415   O     0.84515   0.41434   0.27820   0.00000  Uiso   1.00
O416   O     0.81247   0.59469   0.26767   0.00000  Uiso   1.00
O417   O     0.74119   0.46584   0.23607   0.00000  Uiso   1.00
O418   O     0.93452   0.52512   0.21805   0.00000  Uiso   1.00
O419   O     0.73656   0.52293   0.27820   0.00000  Uiso   1.00
O420   O     0.92106   0.48610   0.26767   0.00000  Uiso   1.00
O421   O     0.80467   0.40236   0.23607   0.00000  Uiso   1.00
O422   O     0.87104   0.58860   0.21805   0.00000  Uiso   1.00
Zn423  Zn    0.85910   0.47423   0.28277   0.00000  Uiso   1.00
Zn424  Zn    0.80125   0.45711   0.22257   0.00000  Uiso   1.00
Zn425  Zn    0.87833   0.52997   0.21188   0.00000  Uiso   1.00
Zn426  Zn    0.79465   0.53868   0.28277   0.00000  Uiso   1.00
C427   C     0.05252   0.82657   0.25864   0.00000  Uiso   1.00
C428   C     0.16915   0.78360   0.46964   0.00000  Uiso   1.00
C429   C     0.19110   0.76235   0.48749   0.00000  Uiso   1.00
C430   C     0.28106   0.84026   0.24119   0.00000  Uiso   1.00
C431   C     0.19912   0.77891   0.02307   0.00000  Uiso   1.00
C432   C     0.18682   0.81862   0.04045   0.00000  Uiso   1.00
C433   C     0.21423   0.75375   0.04375   0.00000  Uiso   1.00
C434   C     0.21321   0.76578   0.08293   0.00000  Uiso   1.00
C435   C     0.18324   0.82857   0.08087   0.00000  Uiso   1.00
C436   C     0.32709   0.84305   0.23765   0.00000  Uiso   1.00
C437   C     0.00712   0.82406   0.26193   0.00000  Uiso   1.00
C438   C     0.11929   0.90103   0.41800   0.00000  Uiso   1.00
C439   C     0.18166   0.98917   0.23797   0.00000  Uiso   1.00
C440   C     0.15155   0.67902   0.26178   0.00000  Uiso   1.00
C441   C     0.15541   0.72298   0.25925   0.00000  Uiso   1.00
C442   C     0.17700   0.94442   0.24129   0.00000  Uiso   1.00
C443   C     0.18822   0.81180   0.14406   0.00000  Uiso   1.00
C444   C     0.14585   0.85476   0.35607   0.00000  Uiso   1.00
C445   C     0.13958   0.86603   0.39859   0.00000  Uiso   1.00
C446   C     0.19661   0.80266   0.10169   0.00000  Uiso   1.00
C447   C     0.11925   0.91508   0.45698   0.00000  Uiso   1.00
C448   C     0.22027   0.67539   0.20784   0.00000  Uiso   1.00
C449   C     0.15624   0.84283   0.41941   0.00000  Uiso   1.00
C450   C     0.10085   0.95530   0.47544   0.00000  Uiso   1.00
C451   C     0.19311   0.91504   0.05720   0.00000  Uiso   1.00
C452   C     0.14522   0.75663   0.44268   0.00000  Uiso   1.00
C453   C     0.15168   0.85280   0.45983   0.00000  Uiso   1.00
C454   C     0.13761   0.89184   0.47742   0.00000  Uiso   1.00
C455   C     0.16480   0.82681   0.48203   0.00000  Uiso   1.00
C456   C     0.17395   0.84472   0.01811   0.00000  Uiso   1.00
C457   C     0.16917   0.88777   0.03045   0.00000  Uiso   1.00
C458   C     0.14626   0.90852   0.01301   0.00000  Uiso   1.00
F459   F     0.11605   0.99576   0.28852   0.00000  Uiso   1.00
H460   H     0.13998   0.94004   0.02512   0.00000  Uiso   1.00
H461   H     0.24210   0.98563   0.19048   0.00000  Uiso   1.00
H462   H     0.20896   0.68986   0.18688   0.00000  Uiso   1.00
H463   H     0.23953   0.69968   0.22291   0.00000  Uiso   1.00
H464   H     0.08550   0.96761   0.45604   0.00000  Uiso   1.00
H465   H     0.07577   0.95001   0.00355   0.00000  Uiso   1.00
H466   H     0.12701   0.97941   0.48105   0.00000  Uiso   1.00
H467   H     0.17043   0.92269   0.08649   0.00000  Uiso   1.00
H468   H     0.22065   0.90066   0.06007   0.00000  Uiso   1.00
H469   H     0.20768   0.94480   0.04445   0.00000  Uiso   1.00
H470   H     0.11790   0.77127   0.43970   0.00000  Uiso   1.00
H471   H     0.22436   0.72365   0.03036   0.00000  Uiso   1.00
H472   H     0.16797   0.74898   0.41343   0.00000  Uiso   1.00
H473   H     0.13033   0.72685   0.45527   0.00000  Uiso   1.00
H474   H     0.01685   0.86059   0.21522   0.00000  Uiso   1.00
H475   H     0.31802   0.80637   0.28455   0.00000  Uiso   1.00
H476   H     0.16677   0.85447   0.09752   0.00000  Uiso   1.00
H477   H     0.22306   0.74529   0.09920   0.00000  Uiso   1.00
H478   H     0.19670   0.73036   0.47631   0.00000  Uiso   1.00
H479   H     0.10605   0.91899   0.40199   0.00000  Uiso   1.00
H480   H     0.17463   0.81793   0.40334   0.00000  Uiso   1.00
O481   O     0.16667   0.83333   0.25000   0.00000  Uiso   1.00
O482   O     0.15693   0.79060   0.16625   0.00000  Uiso   1.00
O483   O     0.12687   0.87313   0.33749   0.00000  Uiso   1.00
O484   O     0.21088   0.84159   0.15877   0.00000  Uiso   1.00
O485   O     0.17198   0.82802   0.33749   0.00000  Uiso   1.00
O486   O     0.17849   0.74768   0.27820   0.00000  Uiso   1.00
O487   O     0.14581   0.92803   0.26767   0.00000  Uiso   1.00
O488   O     0.07452   0.79917   0.23607   0.00000  Uiso   1.00
O489   O     0.26785   0.85845   0.21805   0.00000  Uiso   1.00
O490   O     0.06990   0.85627   0.27820   0.00000  Uiso   1.00
O491   O     0.25440   0.81944   0.26767   0.00000  Uiso   1.00
O492   O     0.13800   0.73570   0.23607   0.00000  Uiso   1.00
O493   O     0.20437   0.92193   0.21805   0.00000  Uiso   1.00
Zn494  Zn    0.19244   0.80756   0.28277   0.00000  Uiso   1.00
Zn495  Zn    0.13459   0.79044   0.22257   0.00000  Uiso   1.00
Zn496  Zn    0.21166   0.86331   0.21188   0.00000  Uiso   1.00
Zn497  Zn    0.12798   0.87202   0.28277   0.00000  Uiso   1.00
C498   C     0.38585   0.82657   0.25864   0.00000  Uiso   1.00
C499   C     0.50248   0.78360   0.46964   0.00000  Uiso   1.00
C500   C     0.52443   0.76235   0.48749   0.00000  Uiso   1.00
C501   C     0.61440   0.84026   0.24119   0.00000  Uiso   1.00
C502   C     0.53246   0.77891   0.02307   0.00000  Uiso   1.00
C503   C     0.52015   0.81862   0.04045   0.00000  Uiso   1.00
C504   C     0.54756   0.75375   0.04375   0.00000  Uiso   1.00
C505   C     0.54654   0.76578   0.08293   0.00000  Uiso   1.00
C506   C     0.51657   0.82857   0.08087   0.00000  Uiso   1.00
C507   C     0.66042   0.84305   0.23765   0.00000  Uiso   1.00
C508   C     0.34045   0.82406   0.26193   0.00000  Uiso   1.00
C509   C     0.45263   0.90103   0.41800   0.00000  Uiso   1.00
C510   C     0.51499   0.98917   0.23797   0.00000  Uiso   1.00
C511   C     0.48488   0.67902   0.26178   0.00000  Uiso   1.00
C512   C     0.48874   0.72298   0.25925   0.00000  Uiso   1.00
C513   C     0.51033   0.94442   0.24129   0.00000  Uiso   1.00
C514   C     0.52156   0.81180   0.14406   0.00000  Uiso   1.00
C515   C     0.47918   0.85476   0.35607   0.00000  Uiso   1.00
C516   C     0.47291   0.86603   0.39859   0.00000  Uiso   1.00
C517   C     0.52994   0.80266   0.10169   0.00000  Uiso   1.00
C518   C     0.45259   0.91508   0.45698   0.00000  Uiso   1.00
C519   C     0.55360   0.67539   0.20784   0.00000  Uiso   1.00
C520   C     0.48958   0.84283   0.41941   0.00000  Uiso   1.00
C521   C     0.43418   0.95530   0.47544   0.00000  Uiso   1.00
C522   C     0.52644   0.91504   0.05720   0.00000  Uiso   1.00
C523   C     0.47855   0.75663   0.44268   0.00000  Uiso   1.00
C524   C     0.48502   0.85280   0.45983   0.00000  Uiso   1.00
C525   C     0.47095   0.89184   0.47742   0.00000  Uiso   1.00
C526   C     0.49814   0.82681   0.48203   0.00000  Uiso   1.00
C527   C     0.50728   0.84472   0.01811   0.00000  Uiso   1.00
C528   C     0.50250   0.88777   0.03045   0.00000  Uiso   1.00
C529   C     0.47960   0.90852   0.01301   0.00000  Uiso   1.00
F530   F     0.44938   0.99576   0.28852   0.00000  Uiso   1.00
H531   H     0.47332   0.94004   0.02512   0.00000  Uiso   1.00
H532   H     0.57544   0.98563   0.19048   0.00000  Uiso   1.00
H533   H     0.54230   0.68986   0.18688   0.00000  Uiso   1.00
H534   H     0.57286   0.69968   0.22291   0.00000  Uiso   1.00
H535   H     0.41884   0.96761   0.45604   0.00000  Uiso   1.00
H536   H     0.40910   0.95001   0.00355   0.00000  Uiso   1.00
H537   H     0.46035   0.97941   0.48105   0.00000  Uiso   1.00
H538   H     0.50376   0.92269   0.08649   0.00000  Uiso   1.00
H539   H     0.55398   0.90066   0.06007   0.00000  Uiso   1.00
H540   H     0.54101   0.94480   0.04445   0.00000  Uiso   1.00
H541   H     0.45123   0.77127   0.43970   0.00000  Uiso   1.00
H542   H     0.55769   0.72365   0.03036   0.00000  Uiso   1.00
H543   H     0.50130   0.74898   0.41343   0.00000  Uiso   1.00
H544   H     0.46366   0.72685   0.45527   0.00000  Uiso   1.00
H545   H     0.35018   0.86059   0.21522   0.00000  Uiso   1.00
H546   H     0.65135   0.80637   0.28455   0.00000  Uiso   1.00
H547   H     0.50011   0.85447   0.09752   0.00000  Uiso   1.00
H548   H     0.55640   0.74529   0.09920   0.00000  Uiso   1.00
H549   H     0.53003   0.73036   0.47631   0.00000  Uiso   1.00
H550   H     0.43938   0.91899   0.40199   0.00000  Uiso   1.00
H551   H     0.50797   0.81793   0.40334   0.00000  Uiso   1.00
O552   O     0.50000   0.83333   0.25000   0.00000  Uiso   1.00
O553   O     0.49027   0.79060   0.16625   0.00000  Uiso   1.00
O554   O     0.46020   0.87313   0.33749   0.00000  Uiso   1.00
O555   O     0.54421   0.84159   0.15877   0.00000  Uiso   1.00
O556   O     0.50532   0.82802   0.33749   0.00000  Uiso   1.00
O557   O     0.51182   0.74768   0.27820   0.00000  Uiso   1.00
O558   O     0.47914   0.92803   0.26767   0.00000  Uiso   1.00
O559   O     0.40785   0.79917   0.23607   0.00000  Uiso   1.00
O560   O     0.60119   0.85845   0.21805   0.00000  Uiso   1.00
O561   O     0.40323   0.85627   0.27820   0.00000  Uiso   1.00
O562   O     0.58773   0.81944   0.26767   0.00000  Uiso   1.00
O563   O     0.47133   0.73570   0.23607   0.00000  Uiso   1.00
O564   O     0.53771   0.92193   0.21805   0.00000  Uiso   1.00
Zn565  Zn    0.52577   0.80756   0.28277   0.00000  Uiso   1.00
Zn566  Zn    0.46792   0.79044   0.22257   0.00000  Uiso   1.00
Zn567  Zn    0.54500   0.86331   0.21188   0.00000  Uiso   1.00
Zn568  Zn    0.46131   0.87202   0.28277   0.00000  Uiso   1.00
C569   C     0.71918   0.82657   0.25864   0.00000  Uiso   1.00
C570   C     0.83581   0.78360   0.46964   0.00000  Uiso   1.00
C571   C     0.85776   0.76235   0.48749   0.00000  Uiso   1.00
C572   C     0.94773   0.84026   0.24119   0.00000  Uiso   1.00
C573   C     0.86579   0.77891   0.02307   0.00000  Uiso   1.00
C574   C     0.85348   0.81862   0.04045   0.00000  Uiso   1.00
C575   C     0.88090   0.75375   0.04375   0.00000  Uiso   1.00
C576   C     0.87987   0.76578   0.08293   0.00000  Uiso   1.00
C577   C     0.84990   0.82857   0.08087   0.00000  Uiso   1.00
C578   C     0.99375   0.84305   0.23765   0.00000  Uiso   1.00
C579   C     0.67379   0.82406   0.26193   0.00000  Uiso   1.00
C580   C     0.78596   0.90103   0.41800   0.00000  Uiso   1.00
C581   C     0.84832   0.98917   0.23797   0.00000  Uiso   1.00
C582   C     0.81821   0.67902   0.26178   0.00000  Uiso   1.00
C583   C     0.82208   0.72298   0.25925   0.00000  Uiso   1.00
C584   C     0.84367   0.94442   0.24129   0.00000  Uiso   1.00
C585   C     0.85489   0.81180   0.14406   0.00000  Uiso   1.00
C586   C     0.81252   0.85476   0.35607   0.00000  Uiso   1.00
C587   C     0.80625   0.86603   0.39859   0.00000  Uiso   1.00
C588   C     0.86328   0.80266   0.10169   0.00000  Uiso   1.00
C589   C     0.78592   0.91508   0.45698   0.00000  Uiso   1.00
C590   C     0.88693   0.67539   0.20784   0.00000  Uiso   1.00
C591   C     0.82291   0.84283   0.41941   0.00000  Uiso   1.00
C592   C     0.76752   0.95530   0.47544   0.00000  Uiso   1.00
C593   C     0.85978   0.91504   0.05720   0.00000  Uiso   1.00
C594   C     0.81188   0.75663   0.44268   0.00000  Uiso   1.00
C595   C     0.81835   0.85280   0.45983   0.00000  Uiso   1.00
C596   C     0.80428   0.89184   0.47742   0.00000  Uiso   1.00
C597   C     0.83147   0.82681   0.48203   0.00000  Uiso   1.00
C598   C     0.84062   0.84472   0.01811   0.00000  Uiso   1.00
C599   C     0.83584   0.88777   0.03045   0.00000  Uiso   1.00
C600   C     0.81293   0.90852   0.01301   0.00000  Uiso   1.00
F601   F     0.78272   0.99576   0.28852   0.00000  Uiso   1.00
H602   H     0.80665   0.94004   0.02512   0.00000  Uiso   1.00
H603   H     0.90877   0.98563   0.19048   0.00000  Uiso   1.00
H604   H     0.87563   0.68986   0.18688   0.00000  Uiso   1.00
H605   H     0.90620   0.69968   0.22291   0.00000  Uiso   1.00
H606   H     0.75217   0.96761   0.45604   0.00000  Uiso   1.00
H607   H     0.74244   0.95001   0.00355   0.00000  Uiso   1.00
H608   H     0.79368   0.97941   0.48105   0.00000  Uiso   1.00
H609   H     0.83710   0.92269   0.08649   0.00000  Uiso   1.00
H610   H     0.88731   0.90066   0.06007   0.00000  Uiso   1.00
H611   H     0.87435   0.94480   0.04445   0.00000  Uiso   1.00
H612   H     0.78456   0.77127   0.43970   0.00000  Uiso   1.00
H613   H     0.89103   0.72365   0.03036   0.00000  Uiso   1.00
H614   H     0.83463   0.74898   0.41343   0.00000  Uiso   1.00
H615   H     0.79700   0.72685   0.45527   0.00000  Uiso   1.00
H616   H     0.68352   0.86059   0.21522   0.00000  Uiso   1.00
H617   H     0.98469   0.80637   0.28455   0.00000  Uiso   1.00
H618   H     0.83344   0.85447   0.09752   0.00000  Uiso   1.00
H619   H     0.88973   0.74529   0.09920   0.00000  Uiso   1.00
H620   H     0.86337   0.73036   0.47631   0.00000  Uiso   1.00
H621   H     0.77271   0.91899   0.40199   0.00000  Uiso   1.00
H622   H     0.84130   0.81793   0.40334   0.00000  Uiso   1.00
O623   O     0.83333   0.83333   0.25000   0.00000  Uiso   1.00
O624   O     0.82360   0.79060   0.16625   0.00000  Uiso   1.00
O625   O     0.79354   0.87313   0.33749   0.00000  Uiso   1.00
O626   O     0.87755   0.84159   0.15877   0.00000  Uiso   1.00
O627   O     0.83865   0.82802   0.33749   0.00000  Uiso   1.00
O628   O     0.84515   0.74768   0.27820   0.00000  Uiso   1.00
O629   O     0.81247   0.92803   0.26767   0.00000  Uiso   1.00
O630   O     0.74119   0.79917   0.23607   0.00000  Uiso   1.00
O631   O     0.93452   0.85845   0.21805   0.00000  Uiso   1.00
O632   O     0.73656   0.85627   0.27820   0.00000  Uiso   1.00
O633   O     0.92106   0.81944   0.26767   0.00000  Uiso   1.00
O634   O     0.80467   0.73570   0.23607   0.00000  Uiso   1.00
O635   O     0.87104   0.92193   0.21805   0.00000  Uiso   1.00
Zn636  Zn    0.85910   0.80756   0.28277   0.00000  Uiso   1.00
Zn637  Zn    0.80125   0.79044   0.22257   0.00000  Uiso   1.00
Zn638  Zn    0.87833   0.86331   0.21188   0.00000  Uiso   1.00
Zn639  Zn    0.79465   0.87202   0.28277   0.00000  Uiso   1.00
C640   C     0.05252   0.15990   0.75864   0.00000  Uiso   1.00
C641   C     0.16915   0.11693   0.96964   0.00000  Uiso   1.00
C642   C     0.19110   0.09568   0.98749   0.00000  Uiso   1.00
C643   C     0.28106   0.17360   0.74119   0.00000  Uiso   1.00
C644   C     0.19912   0.11224   0.52307   0.00000  Uiso   1.00
C645   C     0.18682   0.15195   0.54045   0.00000  Uiso   1.00
C646   C     0.21423   0.08709   0.54375   0.00000  Uiso   1.00
C647   C     0.21321   0.09912   0.58293   0.00000  Uiso   1.00
C648   C     0.18324   0.16191   0.58087   0.00000  Uiso   1.00
C649   C     0.32709   0.17638   0.73765   0.00000  Uiso   1.00
C650   C     0.00712   0.15739   0.76193   0.00000  Uiso   1.00
C651   C     0.11929   0.23436   0.91800   0.00000  Uiso   1.00
C652   C     0.18166   0.32250   0.73797   0.00000  Uiso   1.00
C653   C     0.15155   0.01235   0.76178   0.00000  Uiso   1.00
C654   C     0.15541   0.05631   0.75925   0.00000  Uiso   1.00
C655   C     0.17700   0.27776   0.74129   0.00000  Uiso   1.00
C656   C     0.18822   0.14513   0.64406   0.00000  Uiso   1.00
C657   C     0.14585   0.18810   0.85607   0.00000  Uiso   1.00
C658   C     0.13958   0.19936   0.89859   0.00000  Uiso   1.00
C659   C     0.19661   0.13600   0.60169   0.00000  Uiso   1.00
C660   C     0.11925   0.24842   0.95698   0.00000  Uiso   1.00
C661   C     0.22027   0.00872   0.70784   0.00000  Uiso   1.00
C662   C     0.15624   0.17617   0.91941   0.00000  Uiso   1.00
C663   C     0.10085   0.28864   0.97544   0.00000  Uiso   1.00
C664   C     0.19311   0.24837   0.55720   0.00000  Uiso   1.00
C665   C     0.14522   0.08996   0.94268   0.00000  Uiso   1.00
C666   C     0.15168   0.18614   0.95983   0.00000  Uiso   1.00
C667   C     0.13761   0.22517   0.97742   0.00000  Uiso   1.00
C668   C     0.16480   0.16014   0.98203   0.00000  Uiso   1.00
C669   C     0.17395   0.17806   0.51811   0.00000  Uiso   1.00
C670   C     0.16917   0.22110   0.53045   0.00000  Uiso   1.00
C671   C     0.14626   0.24185   0.51301   0.00000  Uiso   1.00
F672   F     0.11605   0.32910   0.78852   0.00000  Uiso   1.00
H673   H     0.13998   0.27337   0.52512   0.00000  Uiso   1.00
H674   H     0.24210   0.31897   0.69048   0.00000  Uiso   1.00
H675   H     0.20896   0.02319   0.68688   0.00000  Uiso   1.00
H676   H     0.23953   0.03302   0.72291   0.00000  Uiso   1.00
H677   H     0.08550   0.30095   0.95604   0.00000  Uiso   1.00
H678   H     0.07577   0.28334   0.50355   0.00000  Uiso   1.00
H679   H     0.12701   0.31275   0.98105   0.00000  Uiso   1.00
H680   H     0.17043   0.25602   0.58649   0.00000  Uiso   1.00
H681   H     0.22065   0.23400   0.56007   0.00000  Uiso   1.00
H682   H     0.20768   0.27813   0.54445   0.00000  Uiso   1.00
H683   H     0.11790   0.10460   0.93970   0.00000  Uiso   1.00
H684   H     0.22436   0.05699   0.53036   0.00000  Uiso   1.00
H685   H     0.16797   0.08231   0.91343   0.00000  Uiso   1.00
H686   H     0.13033   0.06018   0.95527   0.00000  Uiso   1.00
H687   H     0.01685   0.19392   0.71522   0.00000  Uiso   1.00
H688   H     0.31802   0.13970   0.78455   0.00000  Uiso   1.00
H689   H     0.16677   0.18780   0.59752   0.00000  Uiso   1.00
H690   H     0.22306   0.07862   0.59920   0.00000  Uiso   1.00
H691   H     0.19670   0.06370   0.97631   0.00000  Uiso   1.00
H692   H     0.10605   0.25233   0.90199   0.00000  Uiso   1.00
H693   H     0.17463   0.15127   0.90334   0.00000  Uiso   1.00
O694   O     0.16667   0.16667   0.75000   0.00000  Uiso   1.00
O695   O     0.15693   0.12393   0.66625   0.00000  Uiso   1.00
O696   O     0.12687   0.20646   0.83749   0.00000  Uiso   1.00
O697   O     0.21088   0.17493   0.65877   0.00000  Uiso   1.00
O698   O     0.17198   0.16135   0.83749   0.00000  Uiso   1.00
O699   O     0.17849   0.08101   0.77820   0.00000  Uiso   1.00
O700   O     0.14581   0.26136   0.76767   0.00000  Uiso   1.00
O701   O     0.07452   0.13251   0.73607   0.00000  Uiso   1.00
O702   O     0.26785   0.19179   0.71805   0.00000  Uiso   1.00
O703   O     0.06990   0.18960   0.77820   0.00000  Uiso   1.00
O704   O     0.25440   0.15277   0.76767   0.00000  Uiso   1.00
O705   O     0.13800   0.06903   0.73607   0.00000  Uiso   1.00
O706   O     0.20437   0.25527   0.71805   0.00000  Uiso   1.00
Zn707  Zn    0.19244   0.14090   0.78277   0.00000  Uiso   1.00
Zn708  Zn    0.13459   0.12378   0.72257   0.00000  Uiso   1.00
Zn709  Zn    0.21166   0.19664   0.71188   0.00000  Uiso   1.00
Zn710  Zn    0.12798   0.20535   0.78277   0.00000  Uiso   1.00
C711   C     0.38585   0.15990   0.75864   0.00000  Uiso   1.00
C712   C     0.50248   0.11693   0.96964   0.00000  Uiso   1.00
C713   C     0.52443   0.09568   0.98749   0.00000  Uiso   1.00
C714   C     0.61440   0.17360   0.74119   0.00000  Uiso   1.00
C715   C     0.53246   0.11224   0.52307   0.00000  Uiso   1.00
C716   C     0.52015   0.15195   0.54045   0.00000  Uiso   1.00
C717   C     0.54756   0.08709   0.54375   0.00000  Uiso   1.00
C718   C     0.54654   0.09912   0.58293   0.00000  Uiso   1.00
C719   C     0.51657   0.16191   0.58087   0.00000  Uiso   1.00
C720   C     0.66042   0.17638   0.73765   0.00000  Uiso   1.00
C721   C     0.34045   0.15739   0.76193   0.00000  Uiso   1.00
C722   C     0.45263   0.23436   0.91800   0.00000  Uiso   1.00
C723   C     0.51499   0.32250   0.73797   0.00000  Uiso   1.00
C724   C     0.48488   0.01235   0.76178   0.00000  Uiso   1.00
C725   C     0.48874   0.05631   0.75925   0.00000  Uiso   1.00
C726   C     0.51033   0.27776   0.74129   0.00000  Uiso   1.00
C727   C     0.52156   0.14513   0.64406   0.00000  Uiso   1.00
C728   C     0.47918   0.18810   0.85607   0.00000  Uiso   1.00
C729   C     0.47291   0.19936   0.89859   0.00000  Uiso   1.00
C730   C     0.52994   0.13600   0.60169   0.00000  Uiso   1.00
C731   C     0.45259   0.24842   0.95698   0.00000  Uiso   1.00
C732   C     0.55360   0.00872   0.70784   0.00000  Uiso   1.00
C733   C     0.48958   0.17617   0.91941   0.00000  Uiso   1.00
C734   C     0.43418   0.28864   0.97544   0.00000  Uiso   1.00
C735   C     0.52644   0.24837   0.55720   0.00000  Uiso   1.00
C736   C     0.47855   0.08996   0.94268   0.00000  Uiso   1.00
C737   C     0.48502   0.18614   0.95983   0.00000  Uiso   1.00
C738   C     0.47095   0.22517   0.97742   0.00000  Uiso   1.00
C739   C     0.49814   0.16014   0.98203   0.00000  Uiso   1.00
C740   C     0.50728   0.17806   0.51811   0.00000  Uiso   1.00
C741   C     0.50250   0.22110   0.53045   0.00000  Uiso   1.00
C742   C     0.47960   0.24185   0.51301   0.00000  Uiso   1.00
F743   F     0.44938   0.32910   0.78852   0.00000  Uiso   1.00
H744   H     0.47332   0.27337   0.52512   0.00000  Uiso   1.00
H745   H     0.57544   0.31897   0.69048   0.00000  Uiso   1.00
H746   H     0.54230   0.02319   0.68688   0.00000  Uiso   1.00
H747   H     0.57286   0.03302   0.72291   0.00000  Uiso   1.00
H748   H     0.41884   0.30095   0.95604   0.00000  Uiso   1.00
H749   H     0.40910   0.28334   0.50355   0.00000  Uiso   1.00
H750   H     0.46035   0.31275   0.98105   0.00000  Uiso   1.00
H751   H     0.50376   0.25602   0.58649   0.00000  Uiso   1.00
H752   H     0.55398   0.23400   0.56007   0.00000  Uiso   1.00
H753   H     0.54101   0.27813   0.54445   0.00000  Uiso   1.00
H754   H     0.45123   0.10460   0.93970   0.00000  Uiso   1.00
H755   H     0.55769   0.05699   0.53036   0.00000  Uiso   1.00
H756   H     0.50130   0.08231   0.91343   0.00000  Uiso   1.00
H757   H     0.46366   0.06018   0.95527   0.00000  Uiso   1.00
H758   H     0.35018   0.19392   0.71522   0.00000  Uiso   1.00
H759   H     0.65135   0.13970   0.78455   0.00000  Uiso   1.00
H760   H     0.50011   0.18780   0.59752   0.00000  Uiso   1.00
H761   H     0.55640   0.07862   0.59920   0.00000  Uiso   1.00
H762   H     0.53003   0.06370   0.97631   0.00000  Uiso   1.00
H763   H     0.43938   0.25233   0.90199   0.00000  Uiso   1.00
H764   H     0.50797   0.15127   0.90334   0.00000  Uiso   1.00
O765   O     0.50000   0.16667   0.75000   0.00000  Uiso   1.00
O766   O     0.49027   0.12393   0.66625   0.00000  Uiso   1.00
O767   O     0.46020   0.20646   0.83749   0.00000  Uiso   1.00
O768   O     0.54421   0.17493   0.65877   0.00000  Uiso   1.00
O769   O     0.50532   0.16135   0.83749   0.00000  Uiso   1.00
O770   O     0.51182   0.08101   0.77820   0.00000  Uiso   1.00
O771   O     0.47914   0.26136   0.76767   0.00000  Uiso   1.00
O772   O     0.40785   0.13251   0.73607   0.00000  Uiso   1.00
O773   O     0.60119   0.19179   0.71805   0.00000  Uiso   1.00
O774   O     0.40323   0.18960   0.77820   0.00000  Uiso   1.00
O775   O     0.58773   0.15277   0.76767   0.00000  Uiso   1.00
O776   O     0.47133   0.06903   0.73607   0.00000  Uiso   1.00
O777   O     0.53771   0.25527   0.71805   0.00000  Uiso   1.00
Zn778  Zn    0.52577   0.14090   0.78277   0.00000  Uiso   1.00
Zn779  Zn    0.46792   0.12378   0.72257   0.00000  Uiso   1.00
Zn780  Zn    0.54500   0.19664   0.71188   0.00000  Uiso   1.00
Zn781  Zn    0.46131   0.20535   0.78277   0.00000  Uiso   1.00
C782   C     0.71918   0.15990   0.75864   0.00000  Uiso   1.00
C783   C     0.83581   0.11693   0.96964   0.00000  Uiso   1.00
C784   C     0.85776   0.09568   0.98749   0.00000  Uiso   1.00
C785   C     0.94773   0.17360   0.74119   0.00000  Uiso   1.00
C786   C     0.86579   0.11224   0.52307   0.00000  Uiso   1.00
C787   C     0.85348   0.15195   0.54045   0.00000  Uiso   1.00
C788   C     0.88090   0.08709   0.54375   0.00000  Uiso   1.00
C789   C     0.87987   0.09912   0.58293   0.00000  Uiso   1.00
C790   C     0.84990   0.16191   0.58087   0.00000  Uiso   1.00
C791   C     0.99375   0.17638   0.73765   0.00000  Uiso   1.00
C792   C     0.67379   0.15739   0.76193   0.00000  Uiso   1.00
C793   C     0.78596   0.23436   0.91800   0.00000  Uiso   1.00
C794   C     0.84832   0.32250   0.73797   0.00000  Uiso   1.00
C795   C     0.81821   0.01235   0.76178   0.00000  Uiso   1.00
C796   C     0.82208   0.05631   0.75925   0.00000  Uiso   1.00
C797   C     0.84367   0.27776   0.74129   0.00000  Uiso   1.00
C798   C     0.85489   0.14513   0.64406   0.00000  Uiso   1.00
C799   C     0.81252   0.18810   0.85607   0.00000  Uiso   1.00
C800   C     0.80625   0.19936   0.89859   0.00000  Uiso   1.00
C801   C     0.86328   0.13600   0.60169   0.00000  Uiso   1.00
C802   C     0.78592   0.24842   0.95698   0.00000  Uiso   1.00
C803   C     0.88693   0.00872   0.70784   0.00000  Uiso   1.00
C804   C     0.82291   0.17617   0.91941   0.00000  Uiso   1.00
C805   C     0.76752   0.28864   0.97544   0.00000  Uiso   1.00
C806   C     0.85978   0.24837   0.55720   0.00000  Uiso   1.00
C807   C     0.81188   0.08996   0.94268   0.00000  Uiso   1.00
C808   C     0.81835   0.18614   0.95983   0.00000  Uiso   1.00
C809   C     0.80428   0.22517   0.97742   0.00000  Uiso   1.00
C810   C     0.83147   0.16014   0.98203   0.00000  Uiso   1.00
C811   C     0.84062   0.17806   0.51811   0.00000  Uiso   1.00
C812   C     0.83584   0.22110   0.53045   0.00000  Uiso   1.00
C813   C     0.81293   0.24185   0.51301   0.00000  Uiso   1.00
F814   F     0.78272   0.32910   0.78852   0.00000  Uiso   1.00
H815   H     0.80665   0.27337   0.52512   0.00000  Uiso   1.00
H816   H     0.90877   0.31897   0.69048   0.00000  Uiso   1.00
H817   H     0.87563   0.02319   0.68688   0.00000  Uiso   1.00
H818   H     0.90620   0.03302   0.72291   0.00000  Uiso   1.00
H819   H     0.75217   0.30095   0.95604   0.00000  Uiso   1.00
H820   H     0.74244   0.28334   0.50355   0.00000  Uiso   1.00
H821   H     0.79368   0.31275   0.98105   0.00000  Uiso   1.00
H822   H     0.83710   0.25602   0.58649   0.00000  Uiso   1.00
H823   H     0.88731   0.23400   0.56007   0.00000  Uiso   1.00
H824   H     0.87435   0.27813   0.54445   0.00000  Uiso   1.00
H825   H     0.78456   0.10460   0.93970   0.00000  Uiso   1.00
H826   H     0.89103   0.05699   0.53036   0.00000  Uiso   1.00
H827   H     0.83463   0.08231   0.91343   0.00000  Uiso   1.00
H828   H     0.79700   0.06018   0.95527   0.00000  Uiso   1.00
H829   H     0.68352   0.19392   0.71522   0.00000  Uiso   1.00
H830   H     0.98469   0.13970   0.78455   0.00000  Uiso   1.00
H831   H     0.83344   0.18780   0.59752   0.00000  Uiso   1.00
H832   H     0.88973   0.07862   0.59920   0.00000  Uiso   1.00
H833   H     0.86337   0.06370   0.97631   0.00000  Uiso   1.00
H834   H     0.77271   0.25233   0.90199   0.00000  Uiso   1.00
H835   H     0.84130   0.15127   0.90334   0.00000  Uiso   1.00
O836   O     0.83333   0.16667   0.75000   0.00000  Uiso   1.00
O837   O     0.82360   0.12393   0.66625   0.00000  Uiso   1.00
O838   O     0.79354   0.20646   0.83749   0.00000  Uiso   1.00
O839   O     0.87755   0.17493   0.65877   0.00000  Uiso   1.00
O840   O     0.83865   0.16135   0.83749   0.00000  Uiso   1.00
O841   O     0.84515   0.08101   0.77820   0.00000  Uiso   1.00
O842   O     0.81247   0.26136   0.76767   0.00000  Uiso   1.00
O843   O     0.74119   0.13251   0.73607   0.00000  Uiso   1.00
O844   O     0.93452   0.19179   0.71805   0.00000  Uiso   1.00
O845   O     0.73656   0.18960   0.77820   0.00000  Uiso   1.00
O846   O     0.92106   0.15277   0.76767   0.00000  Uiso   1.00
O847   O     0.80467   0.06903   0.73607   0.00000  Uiso   1.00
O848   O     0.87104   0.25527   0.71805   0.00000  Uiso   1.00
Zn849  Zn    0.85910   0.14090   0.78277   0.00000  Uiso   1.00
Zn850  Zn    0.80125   0.12378   0.72257   0.00000  Uiso   1.00
Zn851  Zn    0.87833   0.19664   0.71188   0.00000  Uiso   1.00
Zn852  Zn    0.79465   0.20535   0.78277   0.00000  Uiso   1.00
C853   C     0.05252   0.49324   0.75864   0.00000  Uiso   1.00
C854   C     0.16915   0.45027   0.96964   0.00000  Uiso   1.00
C855   C     0.19110   0.42901   0.98749   0.00000  Uiso   1.00
C856   C     0.28106   0.50693   0.74119   0.00000  Uiso   1.00
C857   C     0.19912   0.44557   0.52307   0.00000  Uiso   1.00
C858   C     0.18682   0.48529   0.54045   0.00000  Uiso   1.00
C859   C     0.21423   0.42042   0.54375   0.00000  Uiso   1.00
C860   C     0.21321   0.43245   0.58293   0.00000  Uiso   1.00
C861   C     0.18324   0.49524   0.58087   0.00000  Uiso   1.00
C862   C     0.32709   0.50972   0.73765   0.00000  Uiso   1.00
C863   C     0.00712   0.49073   0.76193   0.00000  Uiso   1.00
C864   C     0.11929   0.56770   0.91800   0.00000  Uiso   1.00
C865   C     0.18166   0.65583   0.73797   0.00000  Uiso   1.00
C866   C     0.15155   0.34568   0.76178   0.00000  Uiso   1.00
C867   C     0.15541   0.38964   0.75925   0.00000  Uiso   1.00
C868   C     0.17700   0.61109   0.74129   0.00000  Uiso   1.00
C869   C     0.18822   0.47847   0.64406   0.00000  Uiso   1.00
C870   C     0.14585   0.52143   0.85607   0.00000  Uiso   1.00
C871   C     0.13958   0.53269   0.89859   0.00000  Uiso   1.00
C872   C     0.19661   0.46933   0.60169   0.00000  Uiso   1.00
C873   C     0.11925   0.58175   0.95698   0.00000  Uiso   1.00
C874   C     0.22027   0.34206   0.70784   0.00000  Uiso   1.00
C875   C     0.15624   0.50950   0.91941   0.00000  Uiso   1.00
C876   C     0.10085   0.62197   0.97544   0.00000  Uiso   1.00
C877   C     0.19311   0.58171   0.55720   0.00000  Uiso   1.00
C878   C     0.14522   0.42330   0.94268   0.00000  Uiso   1.00
C879   C     0.15168   0.51947   0.95983   0.00000  Uiso   1.00
C880   C     0.13761   0.55850   0.97742   0.00000  Uiso   1.00
C881   C     0.16480   0.49348   0.98203   0.00000  Uiso   1.00
C882   C     0.17395   0.51139   0.51811   0.00000  Uiso   1.00
C883   C     0.16917   0.55444   0.53045   0.00000  Uiso   1.00
C884   C     0.14626   0.57519   0.51301   0.00000  Uiso   1.00
F885   F     0.11605   0.66243   0.78852   0.00000  Uiso   1.00
H886   H     0.13998   0.60671   0.52512   0.00000  Uiso   1.00
H887   H     0.24210   0.65230   0.69048   0.00000  Uiso   1.00
H888   H     0.20896   0.35652   0.68688   0.00000  Uiso   1.00
H889   H     0.23953   0.36635   0.72291   0.00000  Uiso   1.00
H890   H     0.08550   0.63428   0.95604   0.00000  Uiso   1.00
H891   H     0.07577   0.61668   0.50355   0.00000  Uiso   1.00
H892   H     0.12701   0.64608   0.98105   0.00000  Uiso   1.00
H893   H     0.17043   0.58936   0.58649   0.00000  Uiso   1.00
H894   H     0.22065   0.56733   0.56007   0.00000  Uiso   1.00
H895   H     0.20768   0.61147   0.54445   0.00000  Uiso   1.00
H896   H     0.11790   0.43794   0.93970   0.00000  Uiso   1.00
H897   H     0.22436   0.39032   0.53036   0.00000  Uiso   1.00
H898   H     0.16797   0.41564   0.91343   0.00000  Uiso   1.00
H899   H     0.13033   0.39351   0.95527   0.00000  Uiso   1.00
H900   H     0.01685   0.52726   0.71522   0.00000  Uiso   1.00
H901   H     0.31802   0.47303   0.78455   0.00000  Uiso   1.00
H902   H     0.16677   0.52114   0.59752   0.00000  Uiso   1.00
H903   H     0.22306   0.41195   0.59920   0.00000  Uiso   1.00
H904   H     0.19670   0.39703   0.97631   0.00000  Uiso   1.00
H905   H     0.10605   0.58566   0.90199   0.00000  Uiso   1.00
H906   H     0.17463   0.48460   0.90334   0.00000  Uiso   1.00
O907   O     0.16667   0.50000   0.75000   0.00000  Uiso   1.00
O908   O     0.15693   0.45726   0.66625   0.00000  Uiso   1.00
O909   O     0.12687   0.53979   0.83749   0.00000  Uiso   1.00
O910   O     0.21088   0.50826   0.65877   0.00000  Uiso   1.00
O911   O     0.17198   0.49468   0.83749   0.00000  Uiso   1.00
O912   O     0.17849   0.41434   0.77820   0.00000  Uiso   1.00
O913   O     0.14581   0.59469   0.76767   0.00000  Uiso   1.00
O914   O     0.07452   0.46584   0.73607   0.00000  Uiso   1.00
O915   O     0.26785   0.52512   0.71805   0.00000  Uiso   1.00
O916   O     0.06990   0.52293   0.77820   0.00000  Uiso   1.00
O917   O     0.25440   0.48610   0.76767   0.00000  Uiso   1.00
O918   O     0.13800   0.40236   0.73607   0.00000  Uiso   1.00
O919   O     0.20437   0.58860   0.71805   0.00000  Uiso   1.00
Zn920  Zn    0.19244   0.47423   0.78277   0.00000  Uiso   1.00
Zn921  Zn    0.13459   0.45711   0.72257   0.00000  Uiso   1.00
Zn922  Zn    0.21166   0.52997   0.71188   0.00000  Uiso   1.00
Zn923  Zn    0.12798   0.53868   0.78277   0.00000  Uiso   1.00
C924   C     0.38585   0.49324   0.75864   0.00000  Uiso   1.00
C925   C     0.50248   0.45027   0.96964   0.00000  Uiso   1.00
C926   C     0.52443   0.42901   0.98749   0.00000  Uiso   1.00
C927   C     0.61440   0.50693   0.74119   0.00000  Uiso   1.00
C928   C     0.53246   0.44557   0.52307   0.00000  Uiso   1.00
C929   C     0.52015   0.48529   0.54045   0.00000  Uiso   1.00
C930   C     0.54756   0.42042   0.54375   0.00000  Uiso   1.00
C931   C     0.54654   0.43245   0.58293   0.00000  Uiso   1.00
C932   C     0.51657   0.49524   0.58087   0.00000  Uiso   1.00
C933   C     0.66042   0.50972   0.73765   0.00000  Uiso   1.00
C934   C     0.34045   0.49073   0.76193   0.00000  Uiso   1.00
C935   C     0.45263   0.56770   0.91800   0.00000  Uiso   1.00
C936   C     0.51499   0.65583   0.73797   0.00000  Uiso   1.00
C937   C     0.48488   0.34568   0.76178   0.00000  Uiso   1.00
C938   C     0.48874   0.38964   0.75925   0.00000  Uiso   1.00
C939   C     0.51033   0.61109   0.74129   0.00000  Uiso   1.00
C940   C     0.52156   0.47847   0.64406   0.00000  Uiso   1.00
C941   C     0.47918   0.52143   0.85607   0.00000  Uiso   1.00
C942   C     0.47291   0.53269   0.89859   0.00000  Uiso   1.00
C943   C     0.52994   0.46933   0.60169   0.00000  Uiso   1.00
C944   C     0.45259   0.58175   0.95698   0.00000  Uiso   1.00
C945   C     0.55360   0.34206   0.70784   0.00000  Uiso   1.00
C946   C     0.48958   0.50950   0.91941   0.00000  Uiso   1.00
C947   C     0.43418   0.62197   0.97544   0.00000  Uiso   1.00
C948   C     0.52644   0.58171   0.55720   0.00000  Uiso   1.00
C949   C     0.47855   0.42330   0.94268   0.00000  Uiso   1.00
C950   C     0.48502   0.51947   0.95983   0.00000  Uiso   1.00
C951   C     0.47095   0.55850   0.97742   0.00000  Uiso   1.00
C952   C     0.49814   0.49348   0.98203   0.00000  Uiso   1.00
C953   C     0.50728   0.51139   0.51811   0.00000  Uiso   1.00
C954   C     0.50250   0.55444   0.53045   0.00000  Uiso   1.00
C955   C     0.47960   0.57519   0.51301   0.00000  Uiso   1.00
F956   F     0.44938   0.66243   0.78852   0.00000  Uiso   1.00
H957   H     0.47332   0.60671   0.52512   0.00000  Uiso   1.00
H958   H     0.57544   0.65230   0.69048   0.00000  Uiso   1.00
H959   H     0.54230   0.35652   0.68688   0.00000  Uiso   1.00
H960   H     0.57286   0.36635   0.72291   0.00000  Uiso   1.00
H961   H     0.41884   0.63428   0.95604   0.00000  Uiso   1.00
H962   H     0.40910   0.61668   0.50355   0.00000  Uiso   1.00
H963   H     0.46035   0.64608   0.98105   0.00000  Uiso   1.00
H964   H     0.50376   0.58936   0.58649   0.00000  Uiso   1.00
H965   H     0.55398   0.56733   0.56007   0.00000  Uiso   1.00
H966   H     0.54101   0.61147   0.54445   0.00000  Uiso   1.00
H967   H     0.45123   0.43794   0.93970   0.00000  Uiso   1.00
H968   H     0.55769   0.39032   0.53036   0.00000  Uiso   1.00
H969   H     0.50130   0.41564   0.91343   0.00000  Uiso   1.00
H970   H     0.46366   0.39351   0.95527   0.00000  Uiso   1.00
H971   H     0.35018   0.52726   0.71522   0.00000  Uiso   1.00
H972   H     0.65135   0.47303   0.78455   0.00000  Uiso   1.00
H973   H     0.50011   0.52114   0.59752   0.00000  Uiso   1.00
H974   H     0.55640   0.41195   0.59920   0.00000  Uiso   1.00
H975   H     0.53003   0.39703   0.97631   0.00000  Uiso   1.00
H976   H     0.43938   0.58566   0.90199   0.00000  Uiso   1.00
H977   H     0.50797   0.48460   0.90334   0.00000  Uiso   1.00
O978   O     0.50000   0.50000   0.75000   0.00000  Uiso   1.00
O979   O     0.49027   0.45726   0.66625   0.00000  Uiso   1.00
O980   O     0.46020   0.53979   0.83749   0.00000  Uiso   1.00
O981   O     0.54421   0.50826   0.65877   0.00000  Uiso   1.00
O982   O     0.50532   0.49468   0.83749   0.00000  Uiso   1.00
O983   O     0.51182   0.41434   0.77820   0.00000  Uiso   1.00
O984   O     0.47914   0.59469   0.76767   0.00000  Uiso   1.00
O985   O     0.40785   0.46584   0.73607   0.00000  Uiso   1.00
O986   O     0.60119   0.52512   0.71805   0.00000  Uiso   1.00
O987   O     0.40323   0.52293   0.77820   0.00000  Uiso   1.00
O988   O     0.58773   0.48610   0.76767   0.00000  Uiso   1.00
O989   O     0.47133   0.40236   0.73607   0.00000  Uiso   1.00
O990   O     0.53771   0.58860   0.71805   0.00000  Uiso   1.00
Zn991  Zn    0.52577   0.47423   0.78277   0.00000  Uiso   1.00
Zn992  Zn    0.46792   0.45711   0.72257   0.00000  Uiso   1.00
Zn993  Zn    0.54500   0.52997   0.71188   0.00000  Uiso   1.00
Zn994  Zn    0.46131   0.53868   0.78277   0.00000  Uiso   1.00
C995   C     0.71918   0.49324   0.75864   0.00000  Uiso   1.00
C996   C     0.83581   0.45027   0.96964   0.00000  Uiso   1.00
C997   C     0.85776   0.42901   0.98749   0.00000  Uiso   1.00
C998   C     0.94773   0.50693   0.74119   0.00000  Uiso   1.00
C999   C     0.86579   0.44557   0.52307   0.00000  Uiso   1.00
C1000  C     0.85348   0.48529   0.54045   0.00000  Uiso   1.00
C1001  C     0.88090   0.42042   0.54375   0.00000  Uiso   1.00
C1002  C     0.87987   0.43245   0.58293   0.00000  Uiso   1.00
C1003  C     0.84990   0.49524   0.58087   0.00000  Uiso   1.00
C1004  C     0.99375   0.50972   0.73765   0.00000  Uiso   1.00
C1005  C     0.67379   0.49073   0.76193   0.00000  Uiso   1.00
C1006  C     0.78596   0.56770   0.91800   0.00000  Uiso   1.00
C1007  C     0.84832   0.65583   0.73797   0.00000  Uiso   1.00
C1008  C     0.81821   0.34568   0.76178   0.00000  Uiso   1.00
C1009  C     0.82208   0.38964   0.75925   0.00000  Uiso   1.00
C1010  C     0.84367   0.61109   0.74129   0.00000  Uiso   1.00
C1011  C     0.85489   0.47847   0.64406   0.00000  Uiso   1.00
C1012  C     0.81252   0.52143   0.85607   0.00000  Uiso   1.00
C1013  C     0.80625   0.53269   0.89859   0.00000  Uiso   1.00
C1014  C     0.86328   0.46933   0.60169   0.00000  Uiso   1.00
C1015  C     0.78592   0.58175   0.95698   0.00000  Uiso   1.00
C1016  C     0.88693   0.34206   0.70784   0.00000  Uiso   1.00
C1017  C     0.82291   0.50950   0.91941   0.00000  Uiso   1.00
C1018  C     0.76752   0.62197   0.97544   0.00000  Uiso   1.00
C1019  C     0.85978   0.58171   0.55720   0.00000  Uiso   1.00
C1020  C     0.81188   0.42330   0.94268   0.00000  Uiso   1.00
C1021  C     0.81835   0.51947   0.95983   0.00000  Uiso   1.00
C1022  C     0.80428   0.55850   0.97742   0.00000  Uiso   1.00
C1023  C     0.83147   0.49348   0.98203   0.00000  Uiso   1.00
C1024  C     0.84062   0.51139   0.51811   0.00000  Uiso   1.00
C1025  C     0.83584   0.55444   0.53045   0.00000  Uiso   1.00
C1026  C     0.81293   0.57519   0.51301   0.00000  Uiso   1.00
F1027  F     0.78272   0.66243   0.78852   0.00000  Uiso   1.00
H1028  H     0.80665   0.60671   0.52512   0.00000  Uiso   1.00
H1029  H     0.90877   0.65230   0.69048   0.00000  Uiso   1.00
H1030  H     0.87563   0.35652   0.68688   0.00000  Uiso   1.00
H1031  H     0.90620   0.36635   0.72291   0.00000  Uiso   1.00
H1032  H     0.75217   0.63428   0.95604   0.00000  Uiso   1.00
H1033  H     0.74244   0.61668   0.50355   0.00000  Uiso   1.00
H1034  H     0.79368   0.64608   0.98105   0.00000  Uiso   1.00
H1035  H     0.83710   0.58936   0.58649   0.00000  Uiso   1.00
H1036  H     0.88731   0.56733   0.56007   0.00000  Uiso   1.00
H1037  H     0.87435   0.61147   0.54445   0.00000  Uiso   1.00
H1038  H     0.78456   0.43794   0.93970   0.00000  Uiso   1.00
H1039  H     0.89103   0.39032   0.53036   0.00000  Uiso   1.00
H1040  H     0.83463   0.41564   0.91343   0.00000  Uiso   1.00
H1041  H     0.79700   0.39351   0.95527   0.00000  Uiso   1.00
H1042  H     0.68352   0.52726   0.71522   0.00000  Uiso   1.00
H1043  H     0.98469   0.47303   0.78455   0.00000  Uiso   1.00
H1044  H     0.83344   0.52114   0.59752   0.00000  Uiso   1.00
H1045  H     0.88973   0.41195   0.59920   0.00000  Uiso   1.00
H1046  H     0.86337   0.39703   0.97631   0.00000  Uiso   1.00
H1047  H     0.77271   0.58566   0.90199   0.00000  Uiso   1.00
H1048  H     0.84130   0.48460   0.90334   0.00000  Uiso   1.00
O1049  O     0.83333   0.50000   0.75000   0.00000  Uiso   1.00
O1050  O     0.82360   0.45726   0.66625   0.00000  Uiso   1.00
O1051  O     0.79354   0.53979   0.83749   0.00000  Uiso   1.00
O1052  O     0.87755   0.50826   0.65877   0.00000  Uiso   1.00
O1053  O     0.83865   0.49468   0.83749   0.00000  Uiso   1.00
O1054  O     0.84515   0.41434   0.77820   0.00000  Uiso   1.00
O1055  O     0.81247   0.59469   0.76767   0.00000  Uiso   1.00
O1056  O     0.74119   0.46584   0.73607   0.00000  Uiso   1.00
O1057  O     0.93452   0.52512   0.71805   0.00000  Uiso   1.00
O1058  O     0.73656   0.52293   0.77820   0.00000  Uiso   1.00
O1059  O     0.92106   0.48610   0.76767   0.00000  Uiso   1.00
O1060  O     0.80467   0.40236   0.73607   0.00000  Uiso   1.00
O1061  O     0.87104   0.58860   0.71805   0.00000  Uiso   1.00
Zn1062 Zn    0.85910   0.47423   0.78277   0.00000  Uiso   1.00
Zn1063 Zn    0.80125   0.45711   0.72257   0.00000  Uiso   1.00
Zn1064 Zn    0.87833   0.52997   0.71188   0.00000  Uiso   1.00
Zn1065 Zn    0.79465   0.53868   0.78277   0.00000  Uiso   1.00
C1066  C     0.05252   0.82657   0.75864   0.00000  Uiso   1.00
C1067  C     0.16915   0.78360   0.96964   0.00000  Uiso   1.00
C1068  C     0.19110   0.76235   0.98749   0.00000  Uiso   1.00
C1069  C     0.28106   0.84026   0.74119   0.00000  Uiso   1.00
C1070  C     0.19912   0.77891   0.52307   0.00000  Uiso   1.00
C1071  C     0.18682   0.81862   0.54045   0.00000  Uiso   1.00
C1072  C     0.21423   0.75375   0.54375   0.00000  Uiso   1.00
C1073  C     0.21321   0.76578   0.58293   0.00000  Uiso   1.00
C1074  C     0.18324   0.82857   0.58087   0.00000  Uiso   1.00
C1075  C     0.32709   0.84305   0.73765   0.00000  Uiso   1.00
C1076  C     0.00712   0.82406   0.76193   0.00000  Uiso   1.00
C1077  C     0.11929   0.90103   0.91800   0.00000  Uiso   1.00
C1078  C     0.18166   0.98917   0.73797   0.00000  Uiso   1.00
C1079  C     0.15155   0.67902   0.76178   0.00000  Uiso   1.00
C1080  C     0.15541   0.72298   0.75925   0.00000  Uiso   1.00
C1081  C     0.17700   0.94442   0.74129   0.00000  Uiso   1.00
C1082  C     0.18822   0.81180   0.64406   0.00000  Uiso   1.00
C1083  C     0.14585   0.85476   0.85607   0.00000  Uiso   1.00
C1084  C     0.13958   0.86603   0.89859   0.00000  Uiso   1.00
C1085  C     0.19661   0.80266   0.60169   0.00000  Uiso   1.00
C1086  C     0.11925   0.91508   0.95698   0.00000  Uiso   1.00
C1087  C     0.22027   0.67539   0.70784   0.00000  Uiso   1.00
C1088  C     0.15624   0.84283   0.91941   0.00000  Uiso   1.00
C1089  C     0.10085   0.95530   0.97544   0.00000  Uiso   1.00
C1090  C     0.19311   0.91504   0.55720   0.00000  Uiso   1.00
C1091  C     0.14522   0.75663   0.94268   0.00000  Uiso   1.00
C1092  C     0.15168   0.85280   0.95983   0.00000  Uiso   1.00
C1093  C     0.13761   0.89184   0.97742   0.00000  Uiso   1.00
C1094  C     0.16480   0.82681   0.98203   0.00000  Uiso   1.00
C1095  C     0.17395   0.84472   0.51811   0.00000  Uiso   1.00
C1096  C     0.16917   0.88777   0.53045   0.00000  Uiso   1.00
C1097  C     0.14626   0.90852   0.51301   0.00000  Uiso   1.00
F1098  F     0.11605   0.99576   0.78852   0.00000  Uiso   1.00
H1099  H     0.13998   0.94004   0.52512   0.00000  Uiso   1.00
H1100  H     0.24210   0.98563   0.69048   0.00000  Uiso   1.00
H1101  H     0.20896   0.68986   0.68688   0.00000  Uiso   1.00
H1102  H     0.23953   0.69968   0.72291   0.00000  Uiso   1.00
H1103  H     0.08550   0.96761   0.95604   0.00000  Uiso   1.00
H1104  H     0.07577   0.95001   0.50355   0.00000  Uiso   1.00
H1105  H     0.12701   0.97941   0.98105   0.00000  Uiso   1.00
H1106  H     0.17043   0.92269   0.58649   0.00000  Uiso   1.00
H1107  H     0.22065   0.90066   0.56007   0.00000  Uiso   1.00
H1108  H     0.20768   0.94480   0.54445   0.00000  Uiso   1.00
H1109  H     0.11790   0.77127   0.93970   0.00000  Uiso   1.00
H1110  H     0.22436   0.72365   0.53036   0.00000  Uiso   1.00
H1111  H     0.16797   0.74898   0.91343   0.00000  Uiso   1.00
H1112  H     0.13033   0.72685   0.95527   0.00000  Uiso   1.00
H1113  H     0.01685   0.86059   0.71522   0.00000  Uiso   1.00
H1114  H     0.31802   0.80637   0.78455   0.00000  Uiso   1.00
H1115  H     0.16677   0.85447   0.59752   0.00000  Uiso   1.00
H1116  H     0.22306   0.74529   0.59920   0.00000  Uiso   1.00
H1117  H     0.19670   0.73036   0.97631   0.00000  Uiso   1.00
H1118  H     0.10605   0.91899   0.90199   0.00000  Uiso   1.00
H1119  H     0.17463   0.81793   0.90334   0.00000  Uiso   1.00
O1120  O     0.16667   0.83333   0.75000   0.00000  Uiso   1.00
O1121  O     0.15693   0.79060   0.66625   0.00000  Uiso   1.00
O1122  O     0.12687   0.87313   0.83749   0.00000  Uiso   1.00
O1123  O     0.21088   0.84159   0.65877   0.00000  Uiso   1.00
O1124  O     0.17198   0.82802   0.83749   0.00000  Uiso   1.00
O1125  O     0.17849   0.74768   0.77820   0.00000  Uiso   1.00
O1126  O     0.14581   0.92803   0.76767   0.00000  Uiso   1.00
O1127  O     0.07452   0.79917   0.73607   0.00000  Uiso   1.00
O1128  O     0.26785   0.85845   0.71805   0.00000  Uiso   1.00
O1129  O     0.06990   0.85627   0.77820   0.00000  Uiso   1.00
O1130  O     0.25440   0.81944   0.76767   0.00000  Uiso   1.00
O1131  O     0.13800   0.73570   0.73607   0.00000  Uiso   1.00
O1132  O     0.20437   0.92193   0.71805   0.00000  Uiso   1.00
Zn1133 Zn    0.19244   0.80756   0.78277   0.00000  Uiso   1.00
Zn1134 Zn    0.13459   0.79044   0.72257   0.00000  Uiso   1.00
Zn1135 Zn    0.21166   0.86331   0.71188   0.00000  Uiso   1.00
Zn1136 Zn    0.12798   0.87202   0.78277   0.00000  Uiso   1.00
C1137  C     0.38585   0.82657   0.75864   0.00000  Uiso   1.00
C1138  C     0.50248   0.78360   0.96964   0.00000  Uiso   1.00
C1139  C     0.52443   0.76235   0.98749   0.00000  Uiso   1.00
C1140  C     0.61440   0.84026   0.74119   0.00000  Uiso   1.00
C1141  C     0.53246   0.77891   0.52307   0.00000  Uiso   1.00
C1142  C     0.52015   0.81862   0.54045   0.00000  Uiso   1.00
C1143  C     0.54756   0.75375   0.54375   0.00000  Uiso   1.00
C1144  C     0.54654   0.76578   0.58293   0.00000  Uiso   1.00
C1145  C     0.51657   0.82857   0.58087   0.00000  Uiso   1.00
C1146  C     0.66042   0.84305   0.73765   0.00000  Uiso   1.00
C1147  C     0.34045   0.82406   0.76193   0.00000  Uiso   1.00
C1148  C     0.45263   0.90103   0.91800   0.00000  Uiso   1.00
C1149  C     0.51499   0.98917   0.73797   0.00000  Uiso   1.00
C1150  C     0.48488   0.67902   0.76178   0.00000  Uiso   1.00
C1151  C     0.48874   0.72298   0.75925   0.00000  Uiso   1.00
C1152  C     0.51033   0.94442   0.74129   0.00000  Uiso   1.00
C1153  C     0.52156   0.81180   0.64406   0.00000  Uiso   1.00
C1154  C     0.47918   0.85476   0.85607   0.00000  Uiso   1.00
C1155  C     0.47291   0.86603   0.89859   0.00000  Uiso   1.00
C1156  C     0.52994   0.80266   0.60169   0.00000  Uiso   1.00
C1157  C     0.45259   0.91508   0.95698   0.00000  Uiso   1.00
C1158  C     0.55360   0.67539   0.70784   0.00000  Uiso   1.00
C1159  C     0.48958   0.84283   0.91941   0.00000  Uiso   1.00
C1160  C     0.43418   0.95530   0.97544   0.00000  Uiso   1.00
C1161  C     0.52644   0.91504   0.55720   0.00000  Uiso   1.00
C1162  C     0.47855   0.75663   0.94268   0.00000  Uiso   1.00
C1163  C     0.48502   0.85280   0.95983   0.00000  Uiso   1.00
C1164  C     0.47095   0.89184   0.97742   0.00000  Uiso   1.00
C1165  C     0.49814   0.82681   0.98203   0.00000  Uiso   1.00
C1166  C     0.50728   0.84472   0.51811   0.00000  Uiso   1.00
C1167  C     0.50250   0.88777   0.53045   0.00000  Uiso   1.00
C1168  C     0.47960   0.90852   0.51301   0.00000  Uiso   1.00
F1169  F     0.44938   0.99576   0.78852   0.00000  Uiso   1.00
H1170  H     0.47332   0.94004   0.52512   0.00000  Uiso   1.00
H1171  H     0.57544   0.98563   0.69048   0.00000  Uiso   1.00
H1172  H     0.54230   0.68986   0.68688   0.00000  Uiso   1.00
H1173  H     0.57286   0.69968   0.72291   0.00000  Uiso   1.00
H1174  H     0.41884   0.96761   0.95604   0.00000  Uiso   1.00
H1175  H     0.40910   0.95001   0.50355   0.00000  Uiso   1.00
H1176  H     0.46035   0.97941   0.98105   0.00000  Uiso   1.00
H1177  H     0.50376   0.92269   0.58649   0.00000  Uiso   1.00
H1178  H     0.55398   0.90066   0.56007   0.00000  Uiso   1.00
H1179  H     0.54101   0.94480   0.54445   0.00000  Uiso   1.00
H1180  H     0.45123   0.77127   0.93970   0.00000  Uiso   1.00
H1181  H     0.55769   0.72365   0.53036   0.00000  Uiso   1.00
H1182  H     0.50130   0.74898   0.91343   0.00000  Uiso   1.00
H1183  H     0.46366   0.72685   0.95527   0.00000  Uiso   1.00
H1184  H     0.35018   0.86059   0.71522   0.00000  Uiso   1.00
H1185  H     0.65135   0.80637   0.78455   0.00000  Uiso   1.00
H1186  H     0.50011   0.85447   0.59752   0.00000  Uiso   1.00
H1187  H     0.55640   0.74529   0.59920   0.00000  Uiso   1.00
H1188  H     0.53003   0.73036   0.97631   0.00000  Uiso   1.00
H1189  H     0.43938   0.91899   0.90199   0.00000  Uiso   1.00
H1190  H     0.50797   0.81793   0.90334   0.00000  Uiso   1.00
O1191  O     0.50000   0.83333   0.75000   0.00000  Uiso   1.00
O1192  O     0.49027   0.79060   0.66625   0.00000  Uiso   1.00
O1193  O     0.46020   0.87313   0.83749   0.00000  Uiso   1.00
O1194  O     0.54421   0.84159   0.65877   0.00000  Uiso   1.00
O1195  O     0.50532   0.82802   0.83749   0.00000  Uiso   1.00
O1196  O     0.51182   0.74768   0.77820   0.00000  Uiso   1.00
O1197  O     0.47914   0.92803   0.76767   0.00000  Uiso   1.00
O1198  O     0.40785   0.79917   0.73607   0.00000  Uiso   1.00
O1199  O     0.60119   0.85845   0.71805   0.00000  Uiso   1.00
O1200  O     0.40323   0.85627   0.77820   0.00000  Uiso   1.00
O1201  O     0.58773   0.81944   0.76767   0.00000  Uiso   1.00
O1202  O     0.47133   0.73570   0.73607   0.00000  Uiso   1.00
O1203  O     0.53771   0.92193   0.71805   0.00000  Uiso   1.00
Zn1204 Zn    0.52577   0.80756   0.78277   0.00000  Uiso   1.00
Zn1205 Zn    0.46792   0.79044   0.72257   0.00000  Uiso   1.00
Zn1206 Zn    0.54500   0.86331   0.71188   0.00000  Uiso   1.00
Zn1207 Zn    0.46131   0.87202   0.78277   0.00000  Uiso   1.00
C1208  C     0.71918   0.82657   0.75864   0.00000  Uiso   1.00
C1209  C     0.83581   0.78360   0.96964   0.00000  Uiso   1.00
C1210  C     0.85776   0.76235   0.98749   0.00000  Uiso   1.00
C1211  C     0.94773   0.84026   0.74119   0.00000  Uiso   1.00
C1212  C     0.86579   0.77891   0.52307   0.00000  Uiso   1.00
C1213  C     0.85348   0.81862   0.54045   0.00000  Uiso   1.00
C1214  C     0.88090   0.75375   0.54375   0.00000  Uiso   1.00
C1215  C     0.87987   0.76578   0.58293   0.00000  Uiso   1.00
C1216  C     0.84990   0.82857   0.58087   0.00000  Uiso   1.00
C1217  C     0.99375   0.84305   0.73765   0.00000  Uiso   1.00
C1218  C     0.67379   0.82406   0.76193   0.00000  Uiso   1.00
C1219  C     0.78596   0.90103   0.91800   0.00000  Uiso   1.00
C1220  C     0.84832   0.98917   0.73797   0.00000  Uiso   1.00
C1221  C     0.81821   0.67902   0.76178   0.00000  Uiso   1.00
C1222  C     0.82208   0.72298   0.75925   0.00000  Uiso   1.00
C1223  C     0.84367   0.94442   0.74129   0.00000  Uiso   1.00
C1224  C     0.85489   0.81180   0.64406   0.00000  Uiso   1.00
C1225  C     0.81252   0.85476   0.85607   0.00000  Uiso   1.00
C1226  C     0.80625   0.86603   0.89859   0.00000  Uiso   1.00
C1227  C     0.86328   0.80266   0.60169   0.00000  Uiso   1.00
C1228  C     0.78592   0.91508   0.95698   0.00000  Uiso   1.00
C1229  C     0.88693   0.67539   0.70784   0.00000  Uiso   1.00
C1230  C     0.82291   0.84283   0.91941   0.00000  Uiso   1.00
C1231  C     0.76752   0.95530   0.97544   0.00000  Uiso   1.00
C1232  C     0.85978   0.91504   0.55720   0.00000  Uiso   1.00
C1233  C     0.81188   0.75663   0.94268   0.00000  Uiso   1.00
C1234  C     0.81835   0.85280   0.95983   0.00000  Uiso   1.00
C1235  C     0.80428   0.89184   0.97742   0.00000  Uiso   1.00
C1236  C     0.83147   0.82681   0.98203   0.00000  Uiso   1.00
C1237  C     0.84062   0.84472   0.51811   0.00000  Uiso   1.00
C1238  C     0.83584   0.88777   0.53045   0.00000  Uiso   1.00
C1239  C     0.81293   0.90852   0.51301   0.00000  Uiso   1.00
F1240  F     0.78272   0.99576   0.78852   0.00000  Uiso   1.00
H1241  H     0.80665   0.94004   0.52512   0.00000  Uiso   1.00
H1242  H     0.90877   0.98563   0.69048   0.00000  Uiso   1.00
H1243  H     0.87563   0.68986   0.68688   0.00000  Uiso   1.00
H1244  H     0.90620   0.69968   0.72291   0.00000  Uiso   1.00
H1245  H     0.75217   0.96761   0.95604   0.00000  Uiso   1.00
H1246  H     0.74244   0.95001   0.50355   0.00000  Uiso   1.00
H1247  H     0.79368   0.97941   0.98105   0.00000  Uiso   1.00
H1248  H     0.83710   0.92269   0.58649   0.00000  Uiso   1.00
H1249  H     0.88731   0.90066   0.56007   0.00000  Uiso   1.00
H1250  H     0.87435   0.94480   0.54445   0.00000  Uiso   1.00
H1251  H     0.78456   0.77127   0.93970   0.00000  Uiso   1.00
H1252  H     0.89103   0.72365   0.53036   0.00000  Uiso   1.00
H1253  H     0.83463   0.74898   0.91343   0.00000  Uiso   1.00
H1254  H     0.79700   0.72685   0.95527   0.00000  Uiso   1.00
H1255  H     0.68352   0.86059   0.71522   0.00000  Uiso   1.00
H1256  H     0.98469   0.80637   0.78455   0.00000  Uiso   1.00
H1257  H     0.83344   0.85447   0.59752   0.00000  Uiso   1.00
H1258  H     0.88973   0.74529   0.59920   0.00000  Uiso   1.00
H1259  H     0.86337   0.73036   0.97631   0.00000  Uiso   1.00
H1260  H     0.77271   0.91899   0.90199   0.00000  Uiso   1.00
H1261  H     0.84130   0.81793   0.90334   0.00000  Uiso   1.00
O1262  O     0.83333   0.83333   0.75000   0.00000  Uiso   1.00
O1263  O     0.82360   0.79060   0.66625   0.00000  Uiso   1.00
O1264  O     0.79354   0.87313   0.83749   0.00000  Uiso   1.00
O1265  O     0.87755   0.84159   0.65877   0.00000  Uiso   1.00
O1266  O     0.83865   0.82802   0.83749   0.00000  Uiso   1.00
O1267  O     0.84515   0.74768   0.77820   0.00000  Uiso   1.00
O1268  O     0.81247   0.92803   0.76767   0.00000  Uiso   1.00
O1269  O     0.74119   0.79917   0.73607   0.00000  Uiso   1.00
O1270  O     0.93452   0.85845   0.71805   0.00000  Uiso   1.00
O1271  O     0.73656   0.85627   0.77820   0.00000  Uiso   1.00
O1272  O     0.92106   0.81944   0.76767   0.00000  Uiso   1.00
O1273  O     0.80467   0.73570   0.73607   0.00000  Uiso   1.00
O1274  O     0.87104   0.92193   0.71805   0.00000  Uiso   1.00
Zn1275 Zn    0.85910   0.80756   0.78277   0.00000  Uiso   1.00
Zn1276 Zn    0.80125   0.79044   0.72257   0.00000  Uiso   1.00
Zn1277 Zn    0.87833   0.86331   0.71188   0.00000  Uiso   1.00
Zn1278 Zn    0.79465   0.87202   0.78277   0.00000  Uiso   1.00
loop_
_geom_bond_atom_site_label_1
_geom_bond_atom_site_label_2
_geom_bond_distance
_geom_bond_site_symmetry_2
_ccdc_geom_bond_type
C1     C11     1.437   .     S
C1     O62     1.271   .     A
C1     O64     1.271   .     A
C2     C3      1.394   .     A
C2     C26     1.514   .     S
C2     C29     1.432   .     A
C3     H52     1.086   .     S
C3     C644    1.389   .     S
C4     O63     1.283   .     A
C4     O65     1.279   .     A
C4     C10     1.455   .     S
C5     C6      1.417   .     A
C5     C7      1.404   .     A
C5     C642    1.389   1_554 S
C6     C9      1.408   .     A
C6     C30     1.427   .     A
C7     C8      1.390   .     A
C7     H45     1.084   .     S
C8     C20     1.395   .     A
C8     H51     1.084   .     S
C9     C20     1.393   .     A
C9     H50     1.079   .     S
C10    C82     1.335   .     S
C10    H119    1.088   .     S
C11    C152    1.335   1_455 S
C11    H191    1.086   1_455 S
C12    C19     1.399   .     A
C12    C21     1.402   .     A
C12    H53     1.084   .     S
C13    C16     1.463   .     S
C13    C227    1.346   .     S
C13    C235    1.519   .     S
C14    C15     1.435   .     S
C14    C439    1.346   1_545 S
C14    F459    1.361   1_545 S
C15    O60     1.275   .     A
C15    O66     1.274   .     A
C16    O67     1.271   .     A
C16    O61     1.275   .     A
C17    O58     1.275   .     A
C17    O56     1.271   .     A
C17    C20     1.452   .     S
C18    O57     1.284   .     A
C18    O59     1.288   .     A
C18    C19     1.471   .     S
C19    C23     1.394   .     A
C21    C28     1.420   .     A
C21    C24     1.510   .     S
C22    H36     1.111   .     S
C22    H37     1.111   .     S
C22    C439    1.519   1_545 S
C22    H461    1.109   1_545 S
C23    C27     1.403   .     A
C23    H54     1.078   .     S
C24    H38     1.111   .     S
C24    H40     1.110   .     S
C24    H678    1.110   .     S
C25    H42     1.109   .     S
C25    C31     1.513   .     S
C25    H43     1.112   .     S
C25    H41     1.110   .     S
C26    H44     1.109   .     S
C26    H47     1.112   .     S
C26    H46     1.110   .     S
C27    C29     1.426   .     A
C27    C28     1.417   .     A
C28    C671    1.398   .     S
C29    C669    1.430   .     S
C30    C31     1.429   .     A
C30    C668    1.430   1_554 S
C31    C32     1.396   .     A
C32    H34     1.083   .     S
C32    C667    1.398   1_554 S
F33    C227    1.361   .     S
H35    C235    1.109   .     S
H39    C663    1.110   1_554 S
H48    C152    1.088   1_455 S
H49    C82     1.086   .     S
O55    Zn69    1.940   .     S
O55    Zn68    1.963   .     S
O55    Zn70    1.933   .     S
O55    Zn71    1.937   .     S
O56    Zn69    1.930   .     S
O57    Zn71    1.939   .     S
O58    Zn70    1.933   .     S
O59    Zn68    1.926   .     S
O60    Zn68    1.932   .     S
O61    Zn71    1.935   .     S
O62    Zn69    1.927   .     S
O63    Zn70    1.936   .     S
O64    Zn71    1.929   .     S
O65    Zn68    1.921   .     S
O66    Zn69    1.944   .     S
O67    Zn70    1.938   .     S
C72    C82     1.437   .     S
C72    O133    1.271   .     A
C72    O135    1.271   .     A
C73    C74     1.394   .     A
C73    C97     1.514   .     S
C73    C100    1.432   .     A
C74    H123    1.086   .     S
C74    C715    1.389   .     S
C75    O134    1.283   .     A
C75    O136    1.279   .     A
C75    C81     1.455   .     S
C76    C77     1.417   .     A
C76    C78     1.404   .     A
C76    C713    1.389   1_554 S
C77    C80     1.408   .     A
C77    C101    1.427   .     A
C78    C79     1.390   .     A
C78    H116    1.084   .     S
C79    C91     1.395   .     A
C79    H122    1.084   .     S
C80    C91     1.393   .     A
C80    H121    1.079   .     S
C81    C153    1.335   .     S
C81    H190    1.088   .     S
C83    C90     1.399   .     A
C83    C92     1.402   .     A
C83    H124    1.084   .     S
C84    C87     1.463   .     S
C84    C298    1.346   .     S
C84    C306    1.519   .     S
C85    C86     1.435   .     S
C85    C510    1.346   1_545 S
C85    F530    1.361   1_545 S
C86    O131    1.275   .     A
C86    O137    1.274   .     A
C87    O138    1.271   .     A
C87    O132    1.275   .     A
C88    O129    1.275   .     A
C88    O127    1.271   .     A
C88    C91     1.452   .     S
C89    O128    1.284   .     A
C89    O130    1.288   .     A
C89    C90     1.471   .     S
C90    C94     1.394   .     A
C92    C99     1.420   .     A
C92    C95     1.510   .     S
C93    H107    1.111   .     S
C93    H108    1.111   .     S
C93    C510    1.519   1_545 S
C93    H532    1.109   1_545 S
C94    C98     1.403   .     A
C94    H125    1.078   .     S
C95    H109    1.111   .     S
C95    H111    1.110   .     S
C95    H749    1.110   .     S
C96    H113    1.109   .     S
C96    C102    1.513   .     S
C96    H114    1.112   .     S
C96    H112    1.110   .     S
C97    H115    1.109   .     S
C97    H118    1.112   .     S
C97    H117    1.110   .     S
C98    C100    1.426   .     A
C98    C99     1.417   .     A
C99    C742    1.398   .     S
C100   C740    1.430   .     S
C101   C102    1.429   .     A
C101   C739    1.430   1_554 S
C102   C103    1.396   .     A
C103   H105    1.083   .     S
C103   C738    1.398   1_554 S
F104   C298    1.361   .     S
H106   C306    1.109   .     S
H110   C734    1.110   1_554 S
H120   C153    1.086   .     S
O126   Zn140   1.940   .     S
O126   Zn139   1.963   .     S
O126   Zn141   1.933   .     S
O126   Zn142   1.937   .     S
O127   Zn140   1.930   .     S
O128   Zn142   1.939   .     S
O129   Zn141   1.933   .     S
O130   Zn139   1.926   .     S
O131   Zn139   1.932   .     S
O132   Zn142   1.935   .     S
O133   Zn140   1.927   .     S
O134   Zn141   1.936   .     S
O135   Zn142   1.929   .     S
O136   Zn139   1.921   .     S
O137   Zn140   1.944   .     S
O138   Zn141   1.938   .     S
C143   C153    1.437   .     S
C143   O204    1.271   .     A
C143   O206    1.271   .     A
C144   C145    1.394   .     A
C144   C168    1.514   .     S
C144   C171    1.432   .     A
C145   H194    1.086   .     S
C145   C786    1.389   .     S
C146   O205    1.283   .     A
C146   O207    1.279   .     A
C146   C152    1.455   .     S
C147   C148    1.417   .     A
C147   C149    1.404   .     A
C147   C784    1.389   1_554 S
C148   C151    1.408   .     A
C148   C172    1.427   .     A
C149   C150    1.390   .     A
C149   H187    1.084   .     S
C150   C162    1.395   .     A
C150   H193    1.084   .     S
C151   C162    1.393   .     A
C151   H192    1.079   .     S
C152   C11     1.335   1_655 S
C152   H48     1.088   1_655 S
C154   C161    1.399   .     A
C154   C163    1.402   .     A
C154   H195    1.084   .     S
C155   C158    1.463   .     S
C155   C369    1.346   .     S
C155   C377    1.519   .     S
C156   C157    1.435   .     S
C156   C581    1.346   1_545 S
C156   F601    1.361   1_545 S
C157   O202    1.275   .     A
C157   O208    1.274   .     A
C158   O209    1.271   .     A
C158   O203    1.275   .     A
C159   O200    1.275   .     A
C159   O198    1.271   .     A
C159   C162    1.452   .     S
C160   O199    1.284   .     A
C160   O201    1.288   .     A
C160   C161    1.471   .     S
C161   C165    1.394   .     A
C163   C170    1.420   .     A
C163   C166    1.510   .     S
C164   H178    1.111   .     S
C164   H179    1.111   .     S
C164   C581    1.519   1_545 S
C164   H603    1.109   1_545 S
C165   C169    1.403   .     A
C165   H196    1.078   .     S
C166   H180    1.111   .     S
C166   H182    1.110   .     S
C166   H820    1.110   .     S
C167   H184    1.109   .     S
C167   C173    1.513   .     S
C167   H185    1.112   .     S
C167   H183    1.110   .     S
C168   H186    1.109   .     S
C168   H189    1.112   .     S
C168   H188    1.110   .     S
C169   C171    1.426   .     A
C169   C170    1.417   .     A
C170   C813    1.398   .     S
C171   C811    1.430   .     S
C172   C173    1.429   .     A
C172   C810    1.430   1_554 S
C173   C174    1.396   .     A
C174   H176    1.083   .     S
C174   C809    1.398   1_554 S
F175   C369    1.361   .     S
H177   C377    1.109   .     S
H181   C805    1.110   1_554 S
H191   C11     1.086   1_655 S
O197   Zn211   1.940   .     S
O197   Zn210   1.963   .     S
O197   Zn212   1.933   .     S
O197   Zn213   1.937   .     S
O198   Zn211   1.930   .     S
O199   Zn213   1.939   .     S
O200   Zn212   1.933   .     S
O201   Zn210   1.926   .     S
O202   Zn210   1.932   .     S
O203   Zn213   1.935   .     S
O204   Zn211   1.927   .     S
O205   Zn212   1.936   .     S
O206   Zn213   1.929   .     S
O207   Zn210   1.921   .     S
O208   Zn211   1.944   .     S
O209   Zn212   1.938   .     S
C214   C224    1.437   .     S
C214   O275    1.271   .     A
C214   O277    1.271   .     A
C215   C216    1.394   .     A
C215   C239    1.514   .     S
C215   C242    1.432   .     A
C216   H265    1.086   .     S
C216   C857    1.389   .     S
C217   O276    1.283   .     A
C217   O278    1.279   .     A
C217   C223    1.455   .     S
C218   C219    1.417   .     A
C218   C220    1.404   .     A
C218   C855    1.389   1_554 S
C219   C222    1.408   .     A
C219   C243    1.427   .     A
C220   C221    1.390   .     A
C220   H258    1.084   .     S
C221   C233    1.395   .     A
C221   H264    1.084   .     S
C222   C233    1.393   .     A
C222   H263    1.079   .     S
C223   C295    1.335   .     S
C223   H332    1.088   .     S
C224   C365    1.335   1_455 S
C224   H404    1.086   1_455 S
C225   C232    1.399   .     A
C225   C234    1.402   .     A
C225   H266    1.084   .     S
C226   C229    1.463   .     S
C226   C440    1.346   .     S
C226   C448    1.519   .     S
C227   C228    1.435   .     S
C228   O273    1.275   .     A
C228   O279    1.274   .     A
C229   O280    1.271   .     A
C229   O274    1.275   .     A
C230   O271    1.275   .     A
C230   O269    1.271   .     A
C230   C233    1.452   .     S
C231   O270    1.284   .     A
C231   O272    1.288   .     A
C231   C232    1.471   .     S
C232   C236    1.394   .     A
C234   C241    1.420   .     A
C234   C237    1.510   .     S
C235   H249    1.111   .     S
C235   H250    1.111   .     S
C236   C240    1.403   .     A
C236   H267    1.078   .     S
C237   H251    1.111   .     S
C237   H253    1.110   .     S
C237   H891    1.110   .     S
C238   H255    1.109   .     S
C238   C244    1.513   .     S
C238   H256    1.112   .     S
C238   H254    1.110   .     S
C239   H257    1.109   .     S
C239   H260    1.112   .     S
C239   H259    1.110   .     S
C240   C242    1.426   .     A
C240   C241    1.417   .     A
C241   C884    1.398   .     S
C242   C882    1.430   .     S
C243   C244    1.429   .     A
C243   C881    1.430   1_554 S
C244   C245    1.396   .     A
C245   H247    1.083   .     S
C245   C880    1.398   1_554 S
F246   C440    1.361   .     S
H248   C448    1.109   .     S
H252   C876    1.110   1_554 S
H261   C365    1.088   1_455 S
H262   C295    1.086   .     S
O268   Zn282   1.940   .     S
O268   Zn281   1.963   .     S
O268   Zn283   1.933   .     S
O268   Zn284   1.937   .     S
O269   Zn282   1.930   .     S
O270   Zn284   1.939   .     S
O271   Zn283   1.933   .     S
O272   Zn281   1.926   .     S
O273   Zn281   1.932   .     S
O274   Zn284   1.935   .     S
O275   Zn282   1.927   .     S
O276   Zn283   1.936   .     S
O277   Zn284   1.929   .     S
O278   Zn281   1.921   .     S
O279   Zn282   1.944   .     S
O280   Zn283   1.938   .     S
C285   C295    1.437   .     S
C285   O346    1.271   .     A
C285   O348    1.271   .     A
C286   C287    1.394   .     A
C286   C310    1.514   .     S
C286   C313    1.432   .     A
C287   H336    1.086   .     S
C287   C928    1.389   .     S
C288   O347    1.283   .     A
C288   O349    1.279   .     A
C288   C294    1.455   .     S
C289   C290    1.417   .     A
C289   C291    1.404   .     A
C289   C926    1.389   1_554 S
C290   C293    1.408   .     A
C290   C314    1.427   .     A
C291   C292    1.390   .     A
C291   H329    1.084   .     S
C292   C304    1.395   .     A
C292   H335    1.084   .     S
C293   C304    1.393   .     A
C293   H334    1.079   .     S
C294   C366    1.335   .     S
C294   H403    1.088   .     S
C296   C303    1.399   .     A
C296   C305    1.402   .     A
C296   H337    1.084   .     S
C297   C300    1.463   .     S
C297   C511    1.346   .     S
C297   C519    1.519   .     S
C298   C299    1.435   .     S
C299   O344    1.275   .     A
C299   O350    1.274   .     A
C300   O351    1.271   .     A
C300   O345    1.275   .     A
C301   O342    1.275   .     A
C301   O340    1.271   .     A
C301   C304    1.452   .     S
C302   O341    1.284   .     A
C302   O343    1.288   .     A
C302   C303    1.471   .     S
C303   C307    1.394   .     A
C305   C312    1.420   .     A
C305   C308    1.510   .     S
C306   H320    1.111   .     S
C306   H321    1.111   .     S
C307   C311    1.403   .     A
C307   H338    1.078   .     S
C308   H322    1.111   .     S
C308   H324    1.110   .     S
C308   H962    1.110   .     S
C309   H326    1.109   .     S
C309   C315    1.513   .     S
C309   H327    1.112   .     S
C309   H325    1.110   .     S
C310   H328    1.109   .     S
C310   H331    1.112   .     S
C310   H330    1.110   .     S
C311   C313    1.426   .     A
C311   C312    1.417   .     A
C312   C955    1.398   .     S
C313   C953    1.430   .     S
C314   C315    1.429   .     A
C314   C952    1.430   1_554 S
C315   C316    1.396   .     A
C316   H318    1.083   .     S
C316   C951    1.398   1_554 S
F317   C511    1.361   .     S
H319   C519    1.109   .     S
H323   C947    1.110   1_554 S
H333   C366    1.086   .     S
O339   Zn353   1.940   .     S
O339   Zn352   1.963   .     S
O339   Zn354   1.933   .     S
O339   Zn355   1.937   .     S
O340   Zn353   1.930   .     S
O341   Zn355   1.939   .     S
O342   Zn354   1.933   .     S
O343   Zn352   1.926   .     S
O344   Zn352   1.932   .     S
O345   Zn355   1.935   .     S
O346   Zn353   1.927   .     S
O347   Zn354   1.936   .     S
O348   Zn355   1.929   .     S
O349   Zn352   1.921   .     S
O350   Zn353   1.944   .     S
O351   Zn354   1.938   .     S
C356   C366    1.437   .     S
C356   O417    1.271   .     A
C356   O419    1.271   .     A
C357   C358    1.394   .     A
C357   C381    1.514   .     S
C357   C384    1.432   .     A
C358   H407    1.086   .     S
C358   C999    1.389   .     S
C359   O418    1.283   .     A
C359   O420    1.279   .     A
C359   C365    1.455   .     S
C360   C361    1.417   .     A
C360   C362    1.404   .     A
C360   C997    1.389   1_554 S
C361   C364    1.408   .     A
C361   C385    1.427   .     A
C362   C363    1.390   .     A
C362   H400    1.084   .     S
C363   C375    1.395   .     A
C363   H406    1.084   .     S
C364   C375    1.393   .     A
C364   H405    1.079   .     S
C365   C224    1.335   1_655 S
C365   H261    1.088   1_655 S
C367   C374    1.399   .     A
C367   C376    1.402   .     A
C367   H408    1.084   .     S
C368   C371    1.463   .     S
C368   C582    1.346   .     S
C368   C590    1.519   .     S
C369   C370    1.435   .     S
C370   O415    1.275   .     A
C370   O421    1.274   .     A
C371   O422    1.271   .     A
C371   O416    1.275   .     A
C372   O413    1.275   .     A
C372   O411    1.271   .     A
C372   C375    1.452   .     S
C373   O412    1.284   .     A
C373   O414    1.288   .     A
C373   C374    1.471   .     S
C374   C378    1.394   .     A
C376   C383    1.420   .     A
C376   C379    1.510   .     S
C377   H391    1.111   .     S
C377   H392    1.111   .     S
C378   C382    1.403   .     A
C378   H409    1.078   .     S
C379   H393    1.111   .     S
C379   H395    1.110   .     S
C379   H1033   1.110   .     S
C380   H397    1.109   .     S
C380   C386    1.513   .     S
C380   H398    1.112   .     S
C380   H396    1.110   .     S
C381   H399    1.109   .     S
C381   H402    1.112   .     S
C381   H401    1.110   .     S
C382   C384    1.426   .     A
C382   C383    1.417   .     A
C383   C1026   1.398   .     S
C384   C1024   1.430   .     S
C385   C386    1.429   .     A
C385   C1023   1.430   1_554 S
C386   C387    1.396   .     A
C387   H389    1.083   .     S
C387   C1022   1.398   1_554 S
F388   C582    1.361   .     S
H390   C590    1.109   .     S
H394   C1018   1.110   1_554 S
H404   C224    1.086   1_655 S
O410   Zn424   1.940   .     S
O410   Zn423   1.963   .     S
O410   Zn425   1.933   .     S
O410   Zn426   1.937   .     S
O411   Zn424   1.930   .     S
O412   Zn426   1.939   .     S
O413   Zn425   1.933   .     S
O414   Zn423   1.926   .     S
O415   Zn423   1.932   .     S
O416   Zn426   1.935   .     S
O417   Zn424   1.927   .     S
O418   Zn425   1.936   .     S
O419   Zn426   1.929   .     S
O420   Zn423   1.921   .     S
O421   Zn424   1.944   .     S
O422   Zn425   1.938   .     S
C427   C437    1.437   .     S
C427   O488    1.271   .     A
C427   O490    1.271   .     A
C428   C429    1.394   .     A
C428   C452    1.514   .     S
C428   C455    1.432   .     A
C429   H478    1.086   .     S
C429   C1070   1.389   .     S
C430   O489    1.283   .     A
C430   O491    1.279   .     A
C430   C436    1.455   .     S
C431   C432    1.417   .     A
C431   C433    1.404   .     A
C431   C1068   1.389   1_554 S
C432   C435    1.408   .     A
C432   C456    1.427   .     A
C433   C434    1.390   .     A
C433   H471    1.084   .     S
C434   C446    1.395   .     A
C434   H477    1.084   .     S
C435   C446    1.393   .     A
C435   H476    1.079   .     S
C436   C508    1.335   .     S
C436   H545    1.088   .     S
C437   C578    1.335   1_455 S
C437   H617    1.086   1_455 S
C438   C445    1.399   .     A
C438   C447    1.402   .     A
C438   H479    1.084   .     S
C439   C442    1.463   .     S
C439   C14     1.346   1_565 S
C439   C22     1.519   1_565 S
C440   C441    1.435   .     S
C441   O486    1.275   .     A
C441   O492    1.274   .     A
C442   O493    1.271   .     A
C442   O487    1.275   .     A
C443   O484    1.275   .     A
C443   O482    1.271   .     A
C443   C446    1.452   .     S
C444   O483    1.284   .     A
C444   O485    1.288   .     A
C444   C445    1.471   .     S
C445   C449    1.394   .     A
C447   C454    1.420   .     A
C447   C450    1.510   .     S
C448   H462    1.111   .     S
C448   H463    1.111   .     S
C449   C453    1.403   .     A
C449   H480    1.078   .     S
C450   H464    1.111   .     S
C450   H466    1.110   .     S
C450   H1104   1.110   .     S
C451   H468    1.109   .     S
C451   C457    1.513   .     S
C451   H469    1.112   .     S
C451   H467    1.110   .     S
C452   H470    1.109   .     S
C452   H473    1.112   .     S
C452   H472    1.110   .     S
C453   C455    1.426   .     A
C453   C454    1.417   .     A
C454   C1097   1.398   .     S
C455   C1095   1.430   .     S
C456   C457    1.429   .     A
C456   C1094   1.430   1_554 S
C457   C458    1.396   .     A
C458   H460    1.083   .     S
C458   C1093   1.398   1_554 S
F459   C14     1.361   1_565 S
H461   C22     1.109   1_565 S
H465   C1089   1.110   1_554 S
H474   C578    1.088   1_455 S
H475   C508    1.086   .     S
O481   Zn495   1.940   .     S
O481   Zn494   1.963   .     S
O481   Zn496   1.933   .     S
O481   Zn497   1.937   .     S
O482   Zn495   1.930   .     S
O483   Zn497   1.939   .     S
O484   Zn496   1.933   .     S
O485   Zn494   1.926   .     S
O486   Zn494   1.932   .     S
O487   Zn497   1.935   .     S
O488   Zn495   1.927   .     S
O489   Zn496   1.936   .     S
O490   Zn497   1.929   .     S
O491   Zn494   1.921   .     S
O492   Zn495   1.944   .     S
O493   Zn496   1.938   .     S
C498   C508    1.437   .     S
C498   O559    1.271   .     A
C498   O561    1.271   .     A
C499   C500    1.394   .     A
C499   C523    1.514   .     S
C499   C526    1.432   .     A
C500   H549    1.086   .     S
C500   C1141   1.389   .     S
C501   O560    1.283   .     A
C501   O562    1.279   .     A
C501   C507    1.455   .     S
C502   C503    1.417   .     A
C502   C504    1.404   .     A
C502   C1139   1.389   1_554 S
C503   C506    1.408   .     A
C503   C527    1.427   .     A
C504   C505    1.390   .     A
C504   H542    1.084   .     S
C505   C517    1.395   .     A
C505   H548    1.084   .     S
C506   C517    1.393   .     A
C506   H547    1.079   .     S
C507   C579    1.335   .     S
C507   H616    1.088   .     S
C509   C516    1.399   .     A
C509   C518    1.402   .     A
C509   H550    1.084   .     S
C510   C513    1.463   .     S
C510   C85     1.346   1_565 S
C510   C93     1.519   1_565 S
C511   C512    1.435   .     S
C512   O557    1.275   .     A
C512   O563    1.274   .     A
C513   O564    1.271   .     A
C513   O558    1.275   .     A
C514   O555    1.275   .     A
C514   O553    1.271   .     A
C514   C517    1.452   .     S
C515   O554    1.284   .     A
C515   O556    1.288   .     A
C515   C516    1.471   .     S
C516   C520    1.394   .     A
C518   C525    1.420   .     A
C518   C521    1.510   .     S
C519   H533    1.111   .     S
C519   H534    1.111   .     S
C520   C524    1.403   .     A
C520   H551    1.078   .     S
C521   H535    1.111   .     S
C521   H537    1.110   .     S
C521   H1175   1.110   .     S
C522   H539    1.109   .     S
C522   C528    1.513   .     S
C522   H540    1.112   .     S
C522   H538    1.110   .     S
C523   H541    1.109   .     S
C523   H544    1.112   .     S
C523   H543    1.110   .     S
C524   C526    1.426   .     A
C524   C525    1.417   .     A
C525   C1168   1.398   .     S
C526   C1166   1.430   .     S
C527   C528    1.429   .     A
C527   C1165   1.430   1_554 S
C528   C529    1.396   .     A
C529   H531    1.083   .     S
C529   C1164   1.398   1_554 S
F530   C85     1.361   1_565 S
H532   C93     1.109   1_565 S
H536   C1160   1.110   1_554 S
H546   C579    1.086   .     S
O552   Zn566   1.940   .     S
O552   Zn565   1.963   .     S
O552   Zn567   1.933   .     S
O552   Zn568   1.937   .     S
O553   Zn566   1.930   .     S
O554   Zn568   1.939   .     S
O555   Zn567   1.933   .     S
O556   Zn565   1.926   .     S
O557   Zn565   1.932   .     S
O558   Zn568   1.935   .     S
O559   Zn566   1.927   .     S
O560   Zn567   1.936   .     S
O561   Zn568   1.929   .     S
O562   Zn565   1.921   .     S
O563   Zn566   1.944   .     S
O564   Zn567   1.938   .     S
C569   C579    1.437   .     S
C569   O630    1.271   .     A
C569   O632    1.271   .     A
C570   C571    1.394   .     A
C570   C594    1.514   .     S
C570   C597    1.432   .     A
C571   H620    1.086   .     S
C571   C1212   1.389   .     S
C572   O631    1.283   .     A
C572   O633    1.279   .     A
C572   C578    1.455   .     S
C573   C574    1.417   .     A
C573   C575    1.404   .     A
C573   C1210   1.389   1_554 S
C574   C577    1.408   .     A
C574   C598    1.427   .     A
C575   C576    1.390   .     A
C575   H613    1.084   .     S
C576   C588    1.395   .     A
C576   H619    1.084   .     S
C577   C588    1.393   .     A
C577   H618    1.079   .     S
C578   C437    1.335   1_655 S
C578   H474    1.088   1_655 S
C580   C587    1.399   .     A
C580   C589    1.402   .     A
C580   H621    1.084   .     S
C581   C584    1.463   .     S
C581   C156    1.346   1_565 S
C581   C164    1.519   1_565 S
C582   C583    1.435   .     S
C583   O628    1.275   .     A
C583   O634    1.274   .     A
C584   O635    1.271   .     A
C584   O629    1.275   .     A
C585   O626    1.275   .     A
C585   O624    1.271   .     A
C585   C588    1.452   .     S
C586   O625    1.284   .     A
C586   O627    1.288   .     A
C586   C587    1.471   .     S
C587   C591    1.394   .     A
C589   C596    1.420   .     A
C589   C592    1.510   .     S
C590   H604    1.111   .     S
C590   H605    1.111   .     S
C591   C595    1.403   .     A
C591   H622    1.078   .     S
C592   H606    1.111   .     S
C592   H608    1.110   .     S
C592   H1246   1.110   .     S
C593   H610    1.109   .     S
C593   C599    1.513   .     S
C593   H611    1.112   .     S
C593   H609    1.110   .     S
C594   H612    1.109   .     S
C594   H615    1.112   .     S
C594   H614    1.110   .     S
C595   C597    1.426   .     A
C595   C596    1.417   .     A
C596   C1239   1.398   .     S
C597   C1237   1.430   .     S
C598   C599    1.429   .     A
C598   C1236   1.430   1_554 S
C599   C600    1.396   .     A
C600   H602    1.083   .     S
C600   C1235   1.398   1_554 S
F601   C156    1.361   1_565 S
H603   C164    1.109   1_565 S
H607   C1231   1.110   1_554 S
H617   C437    1.086   1_655 S
O623   Zn637   1.940   .     S
O623   Zn636   1.963   .     S
O623   Zn638   1.933   .     S
O623   Zn639   1.937   .     S
O624   Zn637   1.930   .     S
O625   Zn639   1.939   .     S
O626   Zn638   1.933   .     S
O627   Zn636   1.926   .     S
O628   Zn636   1.932   .     S
O629   Zn639   1.935   .     S
O630   Zn637   1.927   .     S
O631   Zn638   1.936   .     S
O632   Zn639   1.929   .     S
O633   Zn636   1.921   .     S
O634   Zn637   1.944   .     S
O635   Zn638   1.938   .     S
C640   C650    1.437   .     S
C640   O701    1.271   .     A
C640   O703    1.271   .     A
C641   C642    1.394   .     A
C641   C665    1.514   .     S
C641   C668    1.432   .     A
C642   H691    1.086   .     S
C642   C5      1.389   1_556 S
C643   O702    1.283   .     A
C643   O704    1.279   .     A
C643   C649    1.455   .     S
C644   C645    1.417   .     A
C644   C646    1.404   .     A
C645   C648    1.408   .     A
C645   C669    1.427   .     A
C646   C647    1.390   .     A
C646   H684    1.084   .     S
C647   C659    1.395   .     A
C647   H690    1.084   .     S
C648   C659    1.393   .     A
C648   H689    1.079   .     S
C649   C721    1.335   .     S
C649   H758    1.088   .     S
C650   C791    1.335   1_455 S
C650   H830    1.086   1_455 S
C651   C658    1.399   .     A
C651   C660    1.402   .     A
C651   H692    1.084   .     S
C652   C655    1.463   .     S
C652   C866    1.346   .     S
C652   C874    1.519   .     S
C653   C654    1.435   .     S
C653   C1078   1.346   1_545 S
C653   F1098   1.361   1_545 S
C654   O699    1.275   .     A
C654   O705    1.274   .     A
C655   O706    1.271   .     A
C655   O700    1.275   .     A
C656   O697    1.275   .     A
C656   O695    1.271   .     A
C656   C659    1.452   .     S
C657   O696    1.284   .     A
C657   O698    1.288   .     A
C657   C658    1.471   .     S
C658   C662    1.394   .     A
C660   C667    1.420   .     A
C660   C663    1.510   .     S
C661   H675    1.111   .     S
C661   H676    1.111   .     S
C661   C1078   1.519   1_545 S
C661   H1100   1.109   1_545 S
C662   C666    1.403   .     A
C662   H693    1.078   .     S
C663   H677    1.111   .     S
C663   H679    1.110   .     S
C663   H39     1.110   1_556 S
C664   H681    1.109   .     S
C664   C670    1.513   .     S
C664   H682    1.112   .     S
C664   H680    1.110   .     S
C665   H683    1.109   .     S
C665   H686    1.112   .     S
C665   H685    1.110   .     S
C666   C668    1.426   .     A
C666   C667    1.417   .     A
C667   C32     1.398   1_556 S
C668   C30     1.430   1_556 S
C669   C670    1.429   .     A
C670   C671    1.396   .     A
C671   H673    1.083   .     S
F672   C866    1.361   .     S
H674   C874    1.109   .     S
H687   C791    1.088   1_455 S
H688   C721    1.086   .     S
O694   Zn708   1.940   .     S
O694   Zn707   1.963   .     S
O694   Zn709   1.933   .     S
O694   Zn710   1.937   .     S
O695   Zn708   1.930   .     S
O696   Zn710   1.939   .     S
O697   Zn709   1.933   .     S
O698   Zn707   1.926   .     S
O699   Zn707   1.932   .     S
O700   Zn710   1.935   .     S
O701   Zn708   1.927   .     S
O702   Zn709   1.936   .     S
O703   Zn710   1.929   .     S
O704   Zn707   1.921   .     S
O705   Zn708   1.944   .     S
O706   Zn709   1.938   .     S
C711   C721    1.437   .     S
C711   O772    1.271   .     A
C711   O774    1.271   .     A
C712   C713    1.394   .     A
C712   C736    1.514   .     S
C712   C739    1.432   .     A
C713   H762    1.086   .     S
C713   C76     1.389   1_556 S
C714   O773    1.283   .     A
C714   O775    1.279   .     A
C714   C720    1.455   .     S
C715   C716    1.417   .     A
C715   C717    1.404   .     A
C716   C719    1.408   .     A
C716   C740    1.427   .     A
C717   C718    1.390   .     A
C717   H755    1.084   .     S
C718   C730    1.395   .     A
C718   H761    1.084   .     S
C719   C730    1.393   .     A
C719   H760    1.079   .     S
C720   C792    1.335   .     S
C720   H829    1.088   .     S
C722   C729    1.399   .     A
C722   C731    1.402   .     A
C722   H763    1.084   .     S
C723   C726    1.463   .     S
C723   C937    1.346   .     S
C723   C945    1.519   .     S
C724   C725    1.435   .     S
C724   C1149   1.346   1_545 S
C724   F1169   1.361   1_545 S
C725   O770    1.275   .     A
C725   O776    1.274   .     A
C726   O777    1.271   .     A
C726   O771    1.275   .     A
C727   O768    1.275   .     A
C727   O766    1.271   .     A
C727   C730    1.452   .     S
C728   O767    1.284   .     A
C728   O769    1.288   .     A
C728   C729    1.471   .     S
C729   C733    1.394   .     A
C731   C738    1.420   .     A
C731   C734    1.510   .     S
C732   H746    1.111   .     S
C732   H747    1.111   .     S
C732   C1149   1.519   1_545 S
C732   H1171   1.109   1_545 S
C733   C737    1.403   .     A
C733   H764    1.078   .     S
C734   H748    1.111   .     S
C734   H750    1.110   .     S
C734   H110    1.110   1_556 S
C735   H752    1.109   .     S
C735   C741    1.513   .     S
C735   H753    1.112   .     S
C735   H751    1.110   .     S
C736   H754    1.109   .     S
C736   H757    1.112   .     S
C736   H756    1.110   .     S
C737   C739    1.426   .     A
C737   C738    1.417   .     A
C738   C103    1.398   1_556 S
C739   C101    1.430   1_556 S
C740   C741    1.429   .     A
C741   C742    1.396   .     A
C742   H744    1.083   .     S
F743   C937    1.361   .     S
H745   C945    1.109   .     S
H759   C792    1.086   .     S
O765   Zn779   1.940   .     S
O765   Zn778   1.963   .     S
O765   Zn780   1.933   .     S
O765   Zn781   1.937   .     S
O766   Zn779   1.930   .     S
O767   Zn781   1.939   .     S
O768   Zn780   1.933   .     S
O769   Zn778   1.926   .     S
O770   Zn778   1.932   .     S
O771   Zn781   1.935   .     S
O772   Zn779   1.927   .     S
O773   Zn780   1.936   .     S
O774   Zn781   1.929   .     S
O775   Zn778   1.921   .     S
O776   Zn779   1.944   .     S
O777   Zn780   1.938   .     S
C782   C792    1.437   .     S
C782   O843    1.271   .     A
C782   O845    1.271   .     A
C783   C784    1.394   .     A
C783   C807    1.514   .     S
C783   C810    1.432   .     A
C784   H833    1.086   .     S
C784   C147    1.389   1_556 S
C785   O844    1.283   .     A
C785   O846    1.279   .     A
C785   C791    1.455   .     S
C786   C787    1.417   .     A
C786   C788    1.404   .     A
C787   C790    1.408   .     A
C787   C811    1.427   .     A
C788   C789    1.390   .     A
C788   H826    1.084   .     S
C789   C801    1.395   .     A
C789   H832    1.084   .     S
C790   C801    1.393   .     A
C790   H831    1.079   .     S
C791   C650    1.335   1_655 S
C791   H687    1.088   1_655 S
C793   C800    1.399   .     A
C793   C802    1.402   .     A
C793   H834    1.084   .     S
C794   C797    1.463   .     S
C794   C1008   1.346   .     S
C794   C1016   1.519   .     S
C795   C796    1.435   .     S
C795   C1220   1.346   1_545 S
C795   F1240   1.361   1_545 S
C796   O841    1.275   .     A
C796   O847    1.274   .     A
C797   O848    1.271   .     A
C797   O842    1.275   .     A
C798   O839    1.275   .     A
C798   O837    1.271   .     A
C798   C801    1.452   .     S
C799   O838    1.284   .     A
C799   O840    1.288   .     A
C799   C800    1.471   .     S
C800   C804    1.394   .     A
C802   C809    1.420   .     A
C802   C805    1.510   .     S
C803   H817    1.111   .     S
C803   H818    1.111   .     S
C803   C1220   1.519   1_545 S
C803   H1242   1.109   1_545 S
C804   C808    1.403   .     A
C804   H835    1.078   .     S
C805   H819    1.111   .     S
C805   H821    1.110   .     S
C805   H181    1.110   1_556 S
C806   H823    1.109   .     S
C806   C812    1.513   .     S
C806   H824    1.112   .     S
C806   H822    1.110   .     S
C807   H825    1.109   .     S
C807   H828    1.112   .     S
C807   H827    1.110   .     S
C808   C810    1.426   .     A
C808   C809    1.417   .     A
C809   C174    1.398   1_556 S
C810   C172    1.430   1_556 S
C811   C812    1.429   .     A
C812   C813    1.396   .     A
C813   H815    1.083   .     S
F814   C1008   1.361   .     S
H816   C1016   1.109   .     S
H830   C650    1.086   1_655 S
O836   Zn850   1.940   .     S
O836   Zn849   1.963   .     S
O836   Zn851   1.933   .     S
O836   Zn852   1.937   .     S
O837   Zn850   1.930   .     S
O838   Zn852   1.939   .     S
O839   Zn851   1.933   .     S
O840   Zn849   1.926   .     S
O841   Zn849   1.932   .     S
O842   Zn852   1.935   .     S
O843   Zn850   1.927   .     S
O844   Zn851   1.936   .     S
O845   Zn852   1.929   .     S
O846   Zn849   1.921   .     S
O847   Zn850   1.944   .     S
O848   Zn851   1.938   .     S
C853   C863    1.437   .     S
C853   O914    1.271   .     A
C853   O916    1.271   .     A
C854   C855    1.394   .     A
C854   C878    1.514   .     S
C854   C881    1.432   .     A
C855   H904    1.086   .     S
C855   C218    1.389   1_556 S
C856   O915    1.283   .     A
C856   O917    1.279   .     A
C856   C862    1.455   .     S
C857   C858    1.417   .     A
C857   C859    1.404   .     A
C858   C861    1.408   .     A
C858   C882    1.427   .     A
C859   C860    1.390   .     A
C859   H897    1.084   .     S
C860   C872    1.395   .     A
C860   H903    1.084   .     S
C861   C872    1.393   .     A
C861   H902    1.079   .     S
C862   C934    1.335   .     S
C862   H971    1.088   .     S
C863   C1004   1.335   1_455 S
C863   H1043   1.086   1_455 S
C864   C871    1.399   .     A
C864   C873    1.402   .     A
C864   H905    1.084   .     S
C865   C868    1.463   .     S
C865   C1079   1.346   .     S
C865   C1087   1.519   .     S
C866   C867    1.435   .     S
C867   O912    1.275   .     A
C867   O918    1.274   .     A
C868   O919    1.271   .     A
C868   O913    1.275   .     A
C869   O910    1.275   .     A
C869   O908    1.271   .     A
C869   C872    1.452   .     S
C870   O909    1.284   .     A
C870   O911    1.288   .     A
C870   C871    1.471   .     S
C871   C875    1.394   .     A
C873   C880    1.420   .     A
C873   C876    1.510   .     S
C874   H888    1.111   .     S
C874   H889    1.111   .     S
C875   C879    1.403   .     A
C875   H906    1.078   .     S
C876   H890    1.111   .     S
C876   H892    1.110   .     S
C876   H252    1.110   1_556 S
C877   H894    1.109   .     S
C877   C883    1.513   .     S
C877   H895    1.112   .     S
C877   H893    1.110   .     S
C878   H896    1.109   .     S
C878   H899    1.112   .     S
C878   H898    1.110   .     S
C879   C881    1.426   .     A
C879   C880    1.417   .     A
C880   C245    1.398   1_556 S
C881   C243    1.430   1_556 S
C882   C883    1.429   .     A
C883   C884    1.396   .     A
C884   H886    1.083   .     S
F885   C1079   1.361   .     S
H887   C1087   1.109   .     S
H900   C1004   1.088   1_455 S
H901   C934    1.086   .     S
O907   Zn921   1.940   .     S
O907   Zn920   1.963   .     S
O907   Zn922   1.933   .     S
O907   Zn923   1.937   .     S
O908   Zn921   1.930   .     S
O909   Zn923   1.939   .     S
O910   Zn922   1.933   .     S
O911   Zn920   1.926   .     S
O912   Zn920   1.932   .     S
O913   Zn923   1.935   .     S
O914   Zn921   1.927   .     S
O915   Zn922   1.936   .     S
O916   Zn923   1.929   .     S
O917   Zn920   1.921   .     S
O918   Zn921   1.944   .     S
O919   Zn922   1.938   .     S
C924   C934    1.437   .     S
C924   O985    1.271   .     A
C924   O987    1.271   .     A
C925   C926    1.394   .     A
C925   C949    1.514   .     S
C925   C952    1.432   .     A
C926   H975    1.086   .     S
C926   C289    1.389   1_556 S
C927   O986    1.283   .     A
C927   O988    1.279   .     A
C927   C933    1.455   .     S
C928   C929    1.417   .     A
C928   C930    1.404   .     A
C929   C932    1.408   .     A
C929   C953    1.427   .     A
C930   C931    1.390   .     A
C930   H968    1.084   .     S
C931   C943    1.395   .     A
C931   H974    1.084   .     S
C932   C943    1.393   .     A
C932   H973    1.079   .     S
C933   C1005   1.335   .     S
C933   H1042   1.088   .     S
C935   C942    1.399   .     A
C935   C944    1.402   .     A
C935   H976    1.084   .     S
C936   C939    1.463   .     S
C936   C1150   1.346   .     S
C936   C1158   1.519   .     S
C937   C938    1.435   .     S
C938   O983    1.275   .     A
C938   O989    1.274   .     A
C939   O990    1.271   .     A
C939   O984    1.275   .     A
C940   O981    1.275   .     A
C940   O979    1.271   .     A
C940   C943    1.452   .     S
C941   O980    1.284   .     A
C941   O982    1.288   .     A
C941   C942    1.471   .     S
C942   C946    1.394   .     A
C944   C951    1.420   .     A
C944   C947    1.510   .     S
C945   H959    1.111   .     S
C945   H960    1.111   .     S
C946   C950    1.403   .     A
C946   H977    1.078   .     S
C947   H961    1.111   .     S
C947   H963    1.110   .     S
C947   H323    1.110   1_556 S
C948   H965    1.109   .     S
C948   C954    1.513   .     S
C948   H966    1.112   .     S
C948   H964    1.110   .     S
C949   H967    1.109   .     S
C949   H970    1.112   .     S
C949   H969    1.110   .     S
C950   C952    1.426   .     A
C950   C951    1.417   .     A
C951   C316    1.398   1_556 S
C952   C314    1.430   1_556 S
C953   C954    1.429   .     A
C954   C955    1.396   .     A
C955   H957    1.083   .     S
F956   C1150   1.361   .     S
H958   C1158   1.109   .     S
H972   C1005   1.086   .     S
O978   Zn992   1.940   .     S
O978   Zn991   1.963   .     S
O978   Zn993   1.933   .     S
O978   Zn994   1.937   .     S
O979   Zn992   1.930   .     S
O980   Zn994   1.939   .     S
O981   Zn993   1.933   .     S
O982   Zn991   1.926   .     S
O983   Zn991   1.932   .     S
O984   Zn994   1.935   .     S
O985   Zn992   1.927   .     S
O986   Zn993   1.936   .     S
O987   Zn994   1.929   .     S
O988   Zn991   1.921   .     S
O989   Zn992   1.944   .     S
O990   Zn993   1.938   .     S
C995   C1005   1.437   .     S
C995   O1056   1.271   .     A
C995   O1058   1.271   .     A
C996   C997    1.394   .     A
C996   C1020   1.514   .     S
C996   C1023   1.432   .     A
C997   H1046   1.086   .     S
C997   C360    1.389   1_556 S
C998   O1057   1.283   .     A
C998   O1059   1.279   .     A
C998   C1004   1.455   .     S
C999   C1000   1.417   .     A
C999   C1001   1.404   .     A
C1000  C1003   1.408   .     A
C1000  C1024   1.427   .     A
C1001  C1002   1.390   .     A
C1001  H1039   1.084   .     S
C1002  C1014   1.395   .     A
C1002  H1045   1.084   .     S
C1003  C1014   1.393   .     A
C1003  H1044   1.079   .     S
C1004  C863    1.335   1_655 S
C1004  H900    1.088   1_655 S
C1006  C1013   1.399   .     A
C1006  C1015   1.402   .     A
C1006  H1047   1.084   .     S
C1007  C1010   1.463   .     S
C1007  C1221   1.346   .     S
C1007  C1229   1.519   .     S
C1008  C1009   1.435   .     S
C1009  O1054   1.275   .     A
C1009  O1060   1.274   .     A
C1010  O1061   1.271   .     A
C1010  O1055   1.275   .     A
C1011  O1052   1.275   .     A
C1011  O1050   1.271   .     A
C1011  C1014   1.452   .     S
C1012  O1051   1.284   .     A
C1012  O1053   1.288   .     A
C1012  C1013   1.471   .     S
C1013  C1017   1.394   .     A
C1015  C1022   1.420   .     A
C1015  C1018   1.510   .     S
C1016  H1030   1.111   .     S
C1016  H1031   1.111   .     S
C1017  C1021   1.403   .     A
C1017  H1048   1.078   .     S
C1018  H1032   1.111   .     S
C1018  H1034   1.110   .     S
C1018  H394    1.110   1_556 S
C1019  H1036   1.109   .     S
C1019  C1025   1.513   .     S
C1019  H1037   1.112   .     S
C1019  H1035   1.110   .     S
C1020  H1038   1.109   .     S
C1020  H1041   1.112   .     S
C1020  H1040   1.110   .     S
C1021  C1023   1.426   .     A
C1021  C1022   1.417   .     A
C1022  C387    1.398   1_556 S
C1023  C385    1.430   1_556 S
C1024  C1025   1.429   .     A
C1025  C1026   1.396   .     A
C1026  H1028   1.083   .     S
F1027  C1221   1.361   .     S
H1029  C1229   1.109   .     S
H1043  C863    1.086   1_655 S
O1049  Zn1063  1.940   .     S
O1049  Zn1062  1.963   .     S
O1049  Zn1064  1.933   .     S
O1049  Zn1065  1.937   .     S
O1050  Zn1063  1.930   .     S
O1051  Zn1065  1.939   .     S
O1052  Zn1064  1.933   .     S
O1053  Zn1062  1.926   .     S
O1054  Zn1062  1.932   .     S
O1055  Zn1065  1.935   .     S
O1056  Zn1063  1.927   .     S
O1057  Zn1064  1.936   .     S
O1058  Zn1065  1.929   .     S
O1059  Zn1062  1.921   .     S
O1060  Zn1063  1.944   .     S
O1061  Zn1064  1.938   .     S
C1066  C1076   1.437   .     S
C1066  O1127   1.271   .     A
C1066  O1129   1.271   .     A
C1067  C1068   1.394   .     A
C1067  C1091   1.514   .     S
C1067  C1094   1.432   .     A
C1068  H1117   1.086   .     S
C1068  C431    1.389   1_556 S
C1069  O1128   1.283   .     A
C1069  O1130   1.279   .     A
C1069  C1075   1.455   .     S
C1070  C1071   1.417   .     A
C1070  C1072   1.404   .     A
C1071  C1074   1.408   .     A
C1071  C1095   1.427   .     A
C1072  C1073   1.390   .     A
C1072  H1110   1.084   .     S
C1073  C1085   1.395   .     A
C1073  H1116   1.084   .     S
C1074  C1085   1.393   .     A
C1074  H1115   1.079   .     S
C1075  C1147   1.335   .     S
C1075  H1184   1.088   .     S
C1076  C1217   1.335   1_455 S
C1076  H1256   1.086   1_455 S
C1077  C1084   1.399   .     A
C1077  C1086   1.402   .     A
C1077  H1118   1.084   .     S
C1078  C1081   1.463   .     S
C1078  C653    1.346   1_565 S
C1078  C661    1.519   1_565 S
C1079  C1080   1.435   .     S
C1080  O1125   1.275   .     A
C1080  O1131   1.274   .     A
C1081  O1132   1.271   .     A
C1081  O1126   1.275   .     A
C1082  O1123   1.275   .     A
C1082  O1121   1.271   .     A
C1082  C1085   1.452   .     S
C1083  O1122   1.284   .     A
C1083  O1124   1.288   .     A
C1083  C1084   1.471   .     S
C1084  C1088   1.394   .     A
C1086  C1093   1.420   .     A
C1086  C1089   1.510   .     S
C1087  H1101   1.111   .     S
C1087  H1102   1.111   .     S
C1088  C1092   1.403   .     A
C1088  H1119   1.078   .     S
C1089  H1103   1.111   .     S
C1089  H1105   1.110   .     S
C1089  H465    1.110   1_556 S
C1090  H1107   1.109   .     S
C1090  C1096   1.513   .     S
C1090  H1108   1.112   .     S
C1090  H1106   1.110   .     S
C1091  H1109   1.109   .     S
C1091  H1112   1.112   .     S
C1091  H1111   1.110   .     S
C1092  C1094   1.426   .     A
C1092  C1093   1.417   .     A
C1093  C458    1.398   1_556 S
C1094  C456    1.430   1_556 S
C1095  C1096   1.429   .     A
C1096  C1097   1.396   .     A
C1097  H1099   1.083   .     S
F1098  C653    1.361   1_565 S
H1100  C661    1.109   1_565 S
H1113  C1217   1.088   1_455 S
H1114  C1147   1.086   .     S
O1120  Zn1134  1.940   .     S
O1120  Zn1133  1.963   .     S
O1120  Zn1135  1.933   .     S
O1120  Zn1136  1.937   .     S
O1121  Zn1134  1.930   .     S
O1122  Zn1136  1.939   .     S
O1123  Zn1135  1.933   .     S
O1124  Zn1133  1.926   .     S
O1125  Zn1133  1.932   .     S
O1126  Zn1136  1.935   .     S
O1127  Zn1134  1.927   .     S
O1128  Zn1135  1.936   .     S
O1129  Zn1136  1.929   .     S
O1130  Zn1133  1.921   .     S
O1131  Zn1134  1.944   .     S
O1132  Zn1135  1.938   .     S
C1137  C1147   1.437   .     S
C1137  O1198   1.271   .     A
C1137  O1200   1.271   .     A
C1138  C1139   1.394   .     A
C1138  C1162   1.514   .     S
C1138  C1165   1.432   .     A
C1139  H1188   1.086   .     S
C1139  C502    1.389   1_556 S
C1140  O1199   1.283   .     A
C1140  O1201   1.279   .     A
C1140  C1146   1.455   .     S
C1141  C1142   1.417   .     A
C1141  C1143   1.404   .     A
C1142  C1145   1.408   .     A
C1142  C1166   1.427   .     A
C1143  C1144   1.390   .     A
C1143  H1181   1.084   .     S
C1144  C1156   1.395   .     A
C1144  H1187   1.084   .     S
C1145  C1156   1.393   .     A
C1145  H1186   1.079   .     S
C1146  C1218   1.335   .     S
C1146  H1255   1.088   .     S
C1148  C1155   1.399   .     A
C1148  C1157   1.402   .     A
C1148  H1189   1.084   .     S
C1149  C1152   1.463   .     S
C1149  C724    1.346   1_565 S
C1149  C732    1.519   1_565 S
C1150  C1151   1.435   .     S
C1151  O1196   1.275   .     A
C1151  O1202   1.274   .     A
C1152  O1203   1.271   .     A
C1152  O1197   1.275   .     A
C1153  O1194   1.275   .     A
C1153  O1192   1.271   .     A
C1153  C1156   1.452   .     S
C1154  O1193   1.284   .     A
C1154  O1195   1.288   .     A
C1154  C1155   1.471   .     S
C1155  C1159   1.394   .     A
C1157  C1164   1.420   .     A
C1157  C1160   1.510   .     S
C1158  H1172   1.111   .     S
C1158  H1173   1.111   .     S
C1159  C1163   1.403   .     A
C1159  H1190   1.078   .     S
C1160  H1174   1.111   .     S
C1160  H1176   1.110   .     S
C1160  H536    1.110   1_556 S
C1161  H1178   1.109   .     S
C1161  C1167   1.513   .     S
C1161  H1179   1.112   .     S
C1161  H1177   1.110   .     S
C1162  H1180   1.109   .     S
C1162  H1183   1.112   .     S
C1162  H1182   1.110   .     S
C1163  C1165   1.426   .     A
C1163  C1164   1.417   .     A
C1164  C529    1.398   1_556 S
C1165  C527    1.430   1_556 S
C1166  C1167   1.429   .     A
C1167  C1168   1.396   .     A
C1168  H1170   1.083   .     S
F1169  C724    1.361   1_565 S
H1171  C732    1.109   1_565 S
H1185  C1218   1.086   .     S
O1191  Zn1205  1.940   .     S
O1191  Zn1204  1.963   .     S
O1191  Zn1206  1.933   .     S
O1191  Zn1207  1.937   .     S
O1192  Zn1205  1.930   .     S
O1193  Zn1207  1.939   .     S
O1194  Zn1206  1.933   .     S
O1195  Zn1204  1.926   .     S
O1196  Zn1204  1.932   .     S
O1197  Zn1207  1.935   .     S
O1198  Zn1205  1.927   .     S
O1199  Zn1206  1.936   .     S
O1200  Zn1207  1.929   .     S
O1201  Zn1204  1.921   .     S
O1202  Zn1205  1.944   .     S
O1203  Zn1206  1.938   .     S
C1208  C1218   1.437   .     S
C1208  O1269   1.271   .     A
C1208  O1271   1.271   .     A
C1209  C1210   1.394   .     A
C1209  C1233   1.514   .     S
C1209  C1236   1.432   .     A
C1210  H1259   1.086   .     S
C1210  C573    1.389   1_556 S
C1211  O1270   1.283   .     A
C1211  O1272   1.279   .     A
C1211  C1217   1.455   .     S
C1212  C1213   1.417   .     A
C1212  C1214   1.404   .     A
C1213  C1216   1.408   .     A
C1213  C1237   1.427   .     A
C1214  C1215   1.390   .     A
C1214  H1252   1.084   .     S
C1215  C1227   1.395   .     A
C1215  H1258   1.084   .     S
C1216  C1227   1.393   .     A
C1216  H1257   1.079   .     S
C1217  C1076   1.335   1_655 S
C1217  H1113   1.088   1_655 S
C1219  C1226   1.399   .     A
C1219  C1228   1.402   .     A
C1219  H1260   1.084   .     S
C1220  C1223   1.463   .     S
C1220  C795    1.346   1_565 S
C1220  C803    1.519   1_565 S
C1221  C1222   1.435   .     S
C1222  O1267   1.275   .     A
C1222  O1273   1.274   .     A
C1223  O1274   1.271   .     A
C1223  O1268   1.275   .     A
C1224  O1265   1.275   .     A
C1224  O1263   1.271   .     A
C1224  C1227   1.452   .     S
C1225  O1264   1.284   .     A
C1225  O1266   1.288   .     A
C1225  C1226   1.471   .     S
C1226  C1230   1.394   .     A
C1228  C1235   1.420   .     A
C1228  C1231   1.510   .     S
C1229  H1243   1.111   .     S
C1229  H1244   1.111   .     S
C1230  C1234   1.403   .     A
C1230  H1261   1.078   .     S
C1231  H1245   1.111   .     S
C1231  H1247   1.110   .     S
C1231  H607    1.110   1_556 S
C1232  H1249   1.109   .     S
C1232  C1238   1.513   .     S
C1232  H1250   1.112   .     S
C1232  H1248   1.110   .     S
C1233  H1251   1.109   .     S
C1233  H1254   1.112   .     S
C1233  H1253   1.110   .     S
C1234  C1236   1.426   .     A
C1234  C1235   1.417   .     A
C1235  C600    1.398   1_556 S
C1236  C598    1.430   1_556 S
C1237  C1238   1.429   .     A
C1238  C1239   1.396   .     A
C1239  H1241   1.083   .     S
F1240  C795    1.361   1_565 S
H1242  C803    1.109   1_565 S
H1256  C1076   1.086   1_655 S
O1262  Zn1276  1.940   .     S
O1262  Zn1275  1.963   .     S
O1262  Zn1277  1.933   .     S
O1262  Zn1278  1.937   .     S
O1263  Zn1276  1.930   .     S
O1264  Zn1278  1.939   .     S
O1265  Zn1277  1.933   .     S
O1266  Zn1275  1.926   .     S
O1267  Zn1275  1.932   .     S
O1268  Zn1278  1.935   .     S
O1269  Zn1276  1.927   .     S
O1270  Zn1277  1.936   .     S
O1271  Zn1278  1.929   .     S
O1272  Zn1275  1.921   .     S
O1273  Zn1276  1.944   .     S
O1274  Zn1277  1.938   .     S
