data_str_m3_o1_o2_pcu_sym.44
_audit_creation_date              2020-01-03
_audit_creation_method            'Materials Studio'
_symmetry_space_group_name_H-M    'P1'
_symmetry_Int_Tables_number       1
_symmetry_cell_setting            triclinic
loop_
_symmetry_equiv_pos_as_xyz
  x,y,z
_cell_length_a                    32.1701
_cell_length_b                    29.7717
_cell_length_c                    30.0109
_cell_angle_alpha                 89.6543
_cell_angle_beta                  91.9427
_cell_angle_gamma                 89.9657
loop_
_atom_site_label
_atom_site_type_symbol
_atom_site_fract_x
_atom_site_fract_y
_atom_site_fract_z
_atom_site_U_iso_or_equiv
_atom_site_adp_type
_atom_site_occupancy
Br1    Br    0.23219   0.05437   0.31649   0.00000  Uiso   1.00
Br2    Br    0.10109   0.27860   0.18338   0.00000  Uiso   1.00
Br3    Br    0.10174   0.05563   0.18260   0.00000  Uiso   1.00
Br4    Br    0.23072   0.27753   0.31825   0.00000  Uiso   1.00
C5     C     0.08671   0.16667   0.25012   0.00000  Uiso   1.00
C6     C     0.31206   0.20760   0.25107   0.00000  Uiso   1.00
C7     C     0.31205   0.12573   0.24933   0.00000  Uiso   1.00
C8     C     0.02130   0.20760   0.25133   0.00000  Uiso   1.00
C9     C     0.16479   0.20781   0.04549   0.00000  Uiso   1.00
C10    C     0.19887   0.14564   0.45361   0.00000  Uiso   1.00
C11    C     0.13470   0.18915   0.45075   0.00000  Uiso   1.00
C12    C     0.16963   0.12645   0.04600   0.00000  Uiso   1.00
C13    C     0.16563   0.20798   0.09152   0.00000  Uiso   1.00
C14    C     0.19910   0.14564   0.40764   0.00000  Uiso   1.00
C15    C     0.13473   0.18895   0.40468   0.00000  Uiso   1.00
C16    C     0.24663   0.16666   0.25003   0.00000  Uiso   1.00
C17    C     0.17018   0.12614   0.09202   0.00000  Uiso   1.00
C18    C     0.16764   0.16700   0.11530   0.00000  Uiso   1.00
C19    C     0.16673   0.16673   0.38333   0.00000  Uiso   1.00
C20    C     0.16666   0.16715   0.02294   0.00000  Uiso   1.00
C21    C     0.16662   0.16722   0.47502   0.00000  Uiso   1.00
C22    C     0.29083   0.16666   0.25011   0.00000  Uiso   1.00
C23    C     0.04252   0.16667   0.25040   0.00000  Uiso   1.00
C24    C     0.16703   0.16678   0.16375   0.00000  Uiso   1.00
C25    C     0.16682   0.16661   0.33577   0.00000  Uiso   1.00
C26    C     0.19348   0.02363   0.27761   0.00000  Uiso   1.00
C27    C     0.13981   0.30962   0.22236   0.00000  Uiso   1.00
C28    C     0.13985   0.02410   0.22231   0.00000  Uiso   1.00
C29    C     0.19333   0.30919   0.27782   0.00000  Uiso   1.00
C30    C     0.02129   0.12573   0.24960   0.00000  Uiso   1.00
F31    F     0.16494   0.24831   0.11229   0.00000  Uiso   1.00
F32    F     0.23163   0.12691   0.38702   0.00000  Uiso   1.00
F33    F     0.10345   0.20964   0.38094   0.00000  Uiso   1.00
F34    F     0.17365   0.08587   0.11328   0.00000  Uiso   1.00
H35    H     0.16332   0.23941   0.02737   0.00000  Uiso   1.00
H36    H     0.22408   0.12959   0.47256   0.00000  Uiso   1.00
H37    H     0.10974   0.20585   0.46751   0.00000  Uiso   1.00
H38    H     0.17134   0.09494   0.02826   0.00000  Uiso   1.00
H39    H     0.03737   0.09378   0.24912   0.00000  Uiso   1.00
H40    H     0.29598   0.23955   0.25159   0.00000  Uiso   1.00
H41    H     0.29596   0.09379   0.24842   0.00000  Uiso   1.00
H42    H     0.03740   0.23954   0.25223   0.00000  Uiso   1.00
N43    N     0.16667   0.28573   0.25000   0.00000  Uiso   1.00
N44    N     0.16667   0.04760   0.25000   0.00000  Uiso   1.00
O45    O     0.10559   0.20487   0.24999   0.00000  Uiso   1.00
O46    O     0.22774   0.12846   0.25000   0.00000  Uiso   1.00
O47    O     0.22774   0.20487   0.25000   0.00000  Uiso   1.00
O48    O     0.10559   0.12846   0.24999   0.00000  Uiso   1.00
O49    O     0.16666   0.20489   0.18453   0.00000  Uiso   1.00
O50    O     0.16667   0.12845   0.31547   0.00000  Uiso   1.00
O51    O     0.16667   0.20489   0.31547   0.00000  Uiso   1.00
O52    O     0.16666   0.12845   0.18453   0.00000  Uiso   1.00
Zn53   Zn    0.16667   0.21771   0.25000   0.00000  Uiso   1.00
Zn54   Zn    0.16667   0.11563   0.25000   0.00000  Uiso   1.00
Br55   Br    0.56552   0.05437   0.31649   0.00000  Uiso   1.00
Br56   Br    0.43443   0.27860   0.18338   0.00000  Uiso   1.00
Br57   Br    0.43507   0.05563   0.18260   0.00000  Uiso   1.00
Br58   Br    0.56405   0.27753   0.31825   0.00000  Uiso   1.00
C59    C     0.42004   0.16667   0.25012   0.00000  Uiso   1.00
C60    C     0.64540   0.20760   0.25107   0.00000  Uiso   1.00
C61    C     0.64539   0.12573   0.24933   0.00000  Uiso   1.00
C62    C     0.35464   0.20760   0.25133   0.00000  Uiso   1.00
C63    C     0.49812   0.20781   0.04549   0.00000  Uiso   1.00
C64    C     0.53220   0.14564   0.45361   0.00000  Uiso   1.00
C65    C     0.46803   0.18915   0.45075   0.00000  Uiso   1.00
C66    C     0.50297   0.12645   0.04600   0.00000  Uiso   1.00
C67    C     0.49896   0.20798   0.09152   0.00000  Uiso   1.00
C68    C     0.53243   0.14564   0.40764   0.00000  Uiso   1.00
C69    C     0.46806   0.18895   0.40468   0.00000  Uiso   1.00
C70    C     0.57996   0.16666   0.25003   0.00000  Uiso   1.00
C71    C     0.50351   0.12614   0.09202   0.00000  Uiso   1.00
C72    C     0.50097   0.16700   0.11530   0.00000  Uiso   1.00
C73    C     0.50006   0.16673   0.38333   0.00000  Uiso   1.00
C74    C     0.49999   0.16715   0.02294   0.00000  Uiso   1.00
C75    C     0.49995   0.16722   0.47502   0.00000  Uiso   1.00
C76    C     0.62417   0.16666   0.25011   0.00000  Uiso   1.00
C77    C     0.37585   0.16667   0.25040   0.00000  Uiso   1.00
C78    C     0.50036   0.16678   0.16375   0.00000  Uiso   1.00
C79    C     0.50016   0.16661   0.33577   0.00000  Uiso   1.00
C80    C     0.52682   0.02363   0.27761   0.00000  Uiso   1.00
C81    C     0.47314   0.30962   0.22236   0.00000  Uiso   1.00
C82    C     0.47318   0.02410   0.22231   0.00000  Uiso   1.00
C83    C     0.52666   0.30919   0.27782   0.00000  Uiso   1.00
C84    C     0.35462   0.12573   0.24960   0.00000  Uiso   1.00
F85    F     0.49827   0.24831   0.11229   0.00000  Uiso   1.00
F86    F     0.56496   0.12691   0.38702   0.00000  Uiso   1.00
F87    F     0.43678   0.20964   0.38094   0.00000  Uiso   1.00
F88    F     0.50699   0.08587   0.11328   0.00000  Uiso   1.00
H89    H     0.49666   0.23941   0.02737   0.00000  Uiso   1.00
H90    H     0.55741   0.12959   0.47256   0.00000  Uiso   1.00
H91    H     0.44307   0.20585   0.46751   0.00000  Uiso   1.00
H92    H     0.50467   0.09494   0.02826   0.00000  Uiso   1.00
H93    H     0.37070   0.09378   0.24912   0.00000  Uiso   1.00
H94    H     0.62931   0.23955   0.25159   0.00000  Uiso   1.00
H95    H     0.62929   0.09379   0.24842   0.00000  Uiso   1.00
H96    H     0.37073   0.23954   0.25223   0.00000  Uiso   1.00
N97    N     0.50000   0.28573   0.25000   0.00000  Uiso   1.00
N98    N     0.50000   0.04760   0.25000   0.00000  Uiso   1.00
O99    O     0.43892   0.20487   0.24999   0.00000  Uiso   1.00
O100   O     0.56108   0.12846   0.25000   0.00000  Uiso   1.00
O101   O     0.56108   0.20487   0.25000   0.00000  Uiso   1.00
O102   O     0.43892   0.12846   0.24999   0.00000  Uiso   1.00
O103   O     0.50000   0.20489   0.18453   0.00000  Uiso   1.00
O104   O     0.50000   0.12845   0.31547   0.00000  Uiso   1.00
O105   O     0.50000   0.20489   0.31547   0.00000  Uiso   1.00
O106   O     0.50000   0.12845   0.18453   0.00000  Uiso   1.00
Zn107  Zn    0.50000   0.21771   0.25000   0.00000  Uiso   1.00
Zn108  Zn    0.50000   0.11563   0.25000   0.00000  Uiso   1.00
Br109  Br    0.89885   0.05437   0.31649   0.00000  Uiso   1.00
Br110  Br    0.76776   0.27860   0.18338   0.00000  Uiso   1.00
Br111  Br    0.76841   0.05563   0.18260   0.00000  Uiso   1.00
Br112  Br    0.89739   0.27753   0.31825   0.00000  Uiso   1.00
C113   C     0.75337   0.16667   0.25012   0.00000  Uiso   1.00
C114   C     0.97873   0.20760   0.25107   0.00000  Uiso   1.00
C115   C     0.97872   0.12573   0.24933   0.00000  Uiso   1.00
C116   C     0.68797   0.20760   0.25133   0.00000  Uiso   1.00
C117   C     0.83146   0.20781   0.04549   0.00000  Uiso   1.00
C118   C     0.86554   0.14564   0.45361   0.00000  Uiso   1.00
C119   C     0.80136   0.18915   0.45075   0.00000  Uiso   1.00
C120   C     0.83630   0.12645   0.04600   0.00000  Uiso   1.00
C121   C     0.83230   0.20798   0.09152   0.00000  Uiso   1.00
C122   C     0.86576   0.14564   0.40764   0.00000  Uiso   1.00
C123   C     0.80140   0.18895   0.40468   0.00000  Uiso   1.00
C124   C     0.91330   0.16666   0.25003   0.00000  Uiso   1.00
C125   C     0.83685   0.12614   0.09202   0.00000  Uiso   1.00
C126   C     0.83431   0.16700   0.11530   0.00000  Uiso   1.00
C127   C     0.83339   0.16673   0.38333   0.00000  Uiso   1.00
C128   C     0.83333   0.16715   0.02294   0.00000  Uiso   1.00
C129   C     0.83329   0.16722   0.47502   0.00000  Uiso   1.00
C130   C     0.95750   0.16666   0.25011   0.00000  Uiso   1.00
C131   C     0.70918   0.16667   0.25040   0.00000  Uiso   1.00
C132   C     0.83370   0.16678   0.16375   0.00000  Uiso   1.00
C133   C     0.83349   0.16661   0.33577   0.00000  Uiso   1.00
C134   C     0.86015   0.02363   0.27761   0.00000  Uiso   1.00
C135   C     0.80647   0.30962   0.22236   0.00000  Uiso   1.00
C136   C     0.80651   0.02410   0.22231   0.00000  Uiso   1.00
C137   C     0.86000   0.30919   0.27782   0.00000  Uiso   1.00
C138   C     0.68795   0.12573   0.24960   0.00000  Uiso   1.00
F139   F     0.83160   0.24831   0.11229   0.00000  Uiso   1.00
F140   F     0.89830   0.12691   0.38702   0.00000  Uiso   1.00
F141   F     0.77012   0.20964   0.38094   0.00000  Uiso   1.00
F142   F     0.84032   0.08587   0.11328   0.00000  Uiso   1.00
H143   H     0.82999   0.23941   0.02737   0.00000  Uiso   1.00
H144   H     0.89075   0.12959   0.47256   0.00000  Uiso   1.00
H145   H     0.77641   0.20585   0.46751   0.00000  Uiso   1.00
H146   H     0.83800   0.09494   0.02826   0.00000  Uiso   1.00
H147   H     0.70403   0.09378   0.24912   0.00000  Uiso   1.00
H148   H     0.96265   0.23955   0.25159   0.00000  Uiso   1.00
H149   H     0.96263   0.09379   0.24842   0.00000  Uiso   1.00
H150   H     0.70407   0.23954   0.25223   0.00000  Uiso   1.00
N151   N     0.83333   0.28573   0.25000   0.00000  Uiso   1.00
N152   N     0.83333   0.04760   0.25000   0.00000  Uiso   1.00
O153   O     0.77226   0.20487   0.24999   0.00000  Uiso   1.00
O154   O     0.89441   0.12846   0.25000   0.00000  Uiso   1.00
O155   O     0.89441   0.20487   0.25000   0.00000  Uiso   1.00
O156   O     0.77226   0.12846   0.24999   0.00000  Uiso   1.00
O157   O     0.83333   0.20489   0.18453   0.00000  Uiso   1.00
O158   O     0.83334   0.12845   0.31547   0.00000  Uiso   1.00
O159   O     0.83334   0.20489   0.31547   0.00000  Uiso   1.00
O160   O     0.83333   0.12845   0.18453   0.00000  Uiso   1.00
Zn161  Zn    0.83333   0.21771   0.25000   0.00000  Uiso   1.00
Zn162  Zn    0.83333   0.11563   0.25000   0.00000  Uiso   1.00
Br163  Br    0.23219   0.38771   0.31649   0.00000  Uiso   1.00
Br164  Br    0.10109   0.61194   0.18338   0.00000  Uiso   1.00
Br165  Br    0.10174   0.38896   0.18260   0.00000  Uiso   1.00
Br166  Br    0.23072   0.61086   0.31825   0.00000  Uiso   1.00
C167   C     0.08671   0.50001   0.25012   0.00000  Uiso   1.00
C168   C     0.31206   0.54094   0.25107   0.00000  Uiso   1.00
C169   C     0.31205   0.45906   0.24933   0.00000  Uiso   1.00
C170   C     0.02130   0.54094   0.25133   0.00000  Uiso   1.00
C171   C     0.16479   0.54115   0.04549   0.00000  Uiso   1.00
C172   C     0.19887   0.47898   0.45361   0.00000  Uiso   1.00
C173   C     0.13470   0.52248   0.45075   0.00000  Uiso   1.00
C174   C     0.16963   0.45979   0.04600   0.00000  Uiso   1.00
C175   C     0.16563   0.54132   0.09152   0.00000  Uiso   1.00
C176   C     0.19910   0.47897   0.40764   0.00000  Uiso   1.00
C177   C     0.13473   0.52228   0.40468   0.00000  Uiso   1.00
C178   C     0.24663   0.49999   0.25003   0.00000  Uiso   1.00
C179   C     0.17018   0.45948   0.09202   0.00000  Uiso   1.00
C180   C     0.16764   0.50033   0.11530   0.00000  Uiso   1.00
C181   C     0.16673   0.50007   0.38333   0.00000  Uiso   1.00
C182   C     0.16666   0.50049   0.02294   0.00000  Uiso   1.00
C183   C     0.16662   0.50055   0.47502   0.00000  Uiso   1.00
C184   C     0.29083   0.50000   0.25011   0.00000  Uiso   1.00
C185   C     0.04252   0.50001   0.25040   0.00000  Uiso   1.00
C186   C     0.16703   0.50012   0.16375   0.00000  Uiso   1.00
C187   C     0.16682   0.49995   0.33577   0.00000  Uiso   1.00
C188   C     0.19348   0.35697   0.27761   0.00000  Uiso   1.00
C189   C     0.13981   0.64295   0.22236   0.00000  Uiso   1.00
C190   C     0.13985   0.35743   0.22231   0.00000  Uiso   1.00
C191   C     0.19333   0.64252   0.27782   0.00000  Uiso   1.00
C192   C     0.02129   0.45906   0.24960   0.00000  Uiso   1.00
F193   F     0.16494   0.58164   0.11229   0.00000  Uiso   1.00
F194   F     0.23163   0.46024   0.38702   0.00000  Uiso   1.00
F195   F     0.10345   0.54297   0.38094   0.00000  Uiso   1.00
F196   F     0.17365   0.41921   0.11328   0.00000  Uiso   1.00
H197   H     0.16332   0.57274   0.02737   0.00000  Uiso   1.00
H198   H     0.22408   0.46292   0.47256   0.00000  Uiso   1.00
H199   H     0.10974   0.53918   0.46751   0.00000  Uiso   1.00
H200   H     0.17134   0.42827   0.02826   0.00000  Uiso   1.00
H201   H     0.03737   0.42711   0.24912   0.00000  Uiso   1.00
H202   H     0.29598   0.57289   0.25159   0.00000  Uiso   1.00
H203   H     0.29596   0.42712   0.24842   0.00000  Uiso   1.00
H204   H     0.03740   0.57288   0.25223   0.00000  Uiso   1.00
N205   N     0.16667   0.61907   0.25000   0.00000  Uiso   1.00
N206   N     0.16667   0.38093   0.25000   0.00000  Uiso   1.00
O207   O     0.10559   0.53821   0.24999   0.00000  Uiso   1.00
O208   O     0.22774   0.46179   0.25000   0.00000  Uiso   1.00
O209   O     0.22774   0.53821   0.25000   0.00000  Uiso   1.00
O210   O     0.10559   0.46179   0.24999   0.00000  Uiso   1.00
O211   O     0.16666   0.53822   0.18453   0.00000  Uiso   1.00
O212   O     0.16667   0.46178   0.31547   0.00000  Uiso   1.00
O213   O     0.16667   0.53822   0.31547   0.00000  Uiso   1.00
O214   O     0.16666   0.46178   0.18453   0.00000  Uiso   1.00
Zn215  Zn    0.16667   0.55104   0.25000   0.00000  Uiso   1.00
Zn216  Zn    0.16667   0.44896   0.25000   0.00000  Uiso   1.00
Br217  Br    0.56552   0.38771   0.31649   0.00000  Uiso   1.00
Br218  Br    0.43443   0.61194   0.18338   0.00000  Uiso   1.00
Br219  Br    0.43507   0.38896   0.18260   0.00000  Uiso   1.00
Br220  Br    0.56405   0.61086   0.31825   0.00000  Uiso   1.00
C221   C     0.42004   0.50001   0.25012   0.00000  Uiso   1.00
C222   C     0.64540   0.54094   0.25107   0.00000  Uiso   1.00
C223   C     0.64539   0.45906   0.24933   0.00000  Uiso   1.00
C224   C     0.35464   0.54094   0.25133   0.00000  Uiso   1.00
C225   C     0.49812   0.54115   0.04549   0.00000  Uiso   1.00
C226   C     0.53220   0.47898   0.45361   0.00000  Uiso   1.00
C227   C     0.46803   0.52248   0.45075   0.00000  Uiso   1.00
C228   C     0.50297   0.45979   0.04600   0.00000  Uiso   1.00
C229   C     0.49896   0.54132   0.09152   0.00000  Uiso   1.00
C230   C     0.53243   0.47897   0.40764   0.00000  Uiso   1.00
C231   C     0.46806   0.52228   0.40468   0.00000  Uiso   1.00
C232   C     0.57996   0.49999   0.25003   0.00000  Uiso   1.00
C233   C     0.50351   0.45948   0.09202   0.00000  Uiso   1.00
C234   C     0.50097   0.50033   0.11530   0.00000  Uiso   1.00
C235   C     0.50006   0.50007   0.38333   0.00000  Uiso   1.00
C236   C     0.49999   0.50049   0.02294   0.00000  Uiso   1.00
C237   C     0.49995   0.50055   0.47502   0.00000  Uiso   1.00
C238   C     0.62417   0.50000   0.25011   0.00000  Uiso   1.00
C239   C     0.37585   0.50001   0.25040   0.00000  Uiso   1.00
C240   C     0.50036   0.50012   0.16375   0.00000  Uiso   1.00
C241   C     0.50016   0.49995   0.33577   0.00000  Uiso   1.00
C242   C     0.52682   0.35697   0.27761   0.00000  Uiso   1.00
C243   C     0.47314   0.64295   0.22236   0.00000  Uiso   1.00
C244   C     0.47318   0.35743   0.22231   0.00000  Uiso   1.00
C245   C     0.52666   0.64252   0.27782   0.00000  Uiso   1.00
C246   C     0.35462   0.45906   0.24960   0.00000  Uiso   1.00
F247   F     0.49827   0.58164   0.11229   0.00000  Uiso   1.00
F248   F     0.56496   0.46024   0.38702   0.00000  Uiso   1.00
F249   F     0.43678   0.54297   0.38094   0.00000  Uiso   1.00
F250   F     0.50699   0.41921   0.11328   0.00000  Uiso   1.00
H251   H     0.49666   0.57274   0.02737   0.00000  Uiso   1.00
H252   H     0.55741   0.46292   0.47256   0.00000  Uiso   1.00
H253   H     0.44307   0.53918   0.46751   0.00000  Uiso   1.00
H254   H     0.50467   0.42827   0.02826   0.00000  Uiso   1.00
H255   H     0.37070   0.42711   0.24912   0.00000  Uiso   1.00
H256   H     0.62931   0.57289   0.25159   0.00000  Uiso   1.00
H257   H     0.62929   0.42712   0.24842   0.00000  Uiso   1.00
H258   H     0.37073   0.57288   0.25223   0.00000  Uiso   1.00
N259   N     0.50000   0.61907   0.25000   0.00000  Uiso   1.00
N260   N     0.50000   0.38093   0.25000   0.00000  Uiso   1.00
O261   O     0.43892   0.53821   0.24999   0.00000  Uiso   1.00
O262   O     0.56108   0.46179   0.25000   0.00000  Uiso   1.00
O263   O     0.56108   0.53821   0.25000   0.00000  Uiso   1.00
O264   O     0.43892   0.46179   0.24999   0.00000  Uiso   1.00
O265   O     0.50000   0.53822   0.18453   0.00000  Uiso   1.00
O266   O     0.50000   0.46178   0.31547   0.00000  Uiso   1.00
O267   O     0.50000   0.53822   0.31547   0.00000  Uiso   1.00
O268   O     0.50000   0.46178   0.18453   0.00000  Uiso   1.00
Zn269  Zn    0.50000   0.55104   0.25000   0.00000  Uiso   1.00
Zn270  Zn    0.50000   0.44896   0.25000   0.00000  Uiso   1.00
Br271  Br    0.89885   0.38771   0.31649   0.00000  Uiso   1.00
Br272  Br    0.76776   0.61194   0.18338   0.00000  Uiso   1.00
Br273  Br    0.76841   0.38896   0.18260   0.00000  Uiso   1.00
Br274  Br    0.89739   0.61086   0.31825   0.00000  Uiso   1.00
C275   C     0.75337   0.50001   0.25012   0.00000  Uiso   1.00
C276   C     0.97873   0.54094   0.25107   0.00000  Uiso   1.00
C277   C     0.97872   0.45906   0.24933   0.00000  Uiso   1.00
C278   C     0.68797   0.54094   0.25133   0.00000  Uiso   1.00
C279   C     0.83146   0.54115   0.04549   0.00000  Uiso   1.00
C280   C     0.86554   0.47898   0.45361   0.00000  Uiso   1.00
C281   C     0.80136   0.52248   0.45075   0.00000  Uiso   1.00
C282   C     0.83630   0.45979   0.04600   0.00000  Uiso   1.00
C283   C     0.83230   0.54132   0.09152   0.00000  Uiso   1.00
C284   C     0.86576   0.47897   0.40764   0.00000  Uiso   1.00
C285   C     0.80140   0.52228   0.40468   0.00000  Uiso   1.00
C286   C     0.91330   0.49999   0.25003   0.00000  Uiso   1.00
C287   C     0.83685   0.45948   0.09202   0.00000  Uiso   1.00
C288   C     0.83431   0.50033   0.11530   0.00000  Uiso   1.00
C289   C     0.83339   0.50007   0.38333   0.00000  Uiso   1.00
C290   C     0.83333   0.50049   0.02294   0.00000  Uiso   1.00
C291   C     0.83329   0.50055   0.47502   0.00000  Uiso   1.00
C292   C     0.95750   0.50000   0.25011   0.00000  Uiso   1.00
C293   C     0.70918   0.50001   0.25040   0.00000  Uiso   1.00
C294   C     0.83370   0.50012   0.16375   0.00000  Uiso   1.00
C295   C     0.83349   0.49995   0.33577   0.00000  Uiso   1.00
C296   C     0.86015   0.35697   0.27761   0.00000  Uiso   1.00
C297   C     0.80647   0.64295   0.22236   0.00000  Uiso   1.00
C298   C     0.80651   0.35743   0.22231   0.00000  Uiso   1.00
C299   C     0.86000   0.64252   0.27782   0.00000  Uiso   1.00
C300   C     0.68795   0.45906   0.24960   0.00000  Uiso   1.00
F301   F     0.83160   0.58164   0.11229   0.00000  Uiso   1.00
F302   F     0.89830   0.46024   0.38702   0.00000  Uiso   1.00
F303   F     0.77012   0.54297   0.38094   0.00000  Uiso   1.00
F304   F     0.84032   0.41921   0.11328   0.00000  Uiso   1.00
H305   H     0.82999   0.57274   0.02737   0.00000  Uiso   1.00
H306   H     0.89075   0.46292   0.47256   0.00000  Uiso   1.00
H307   H     0.77641   0.53918   0.46751   0.00000  Uiso   1.00
H308   H     0.83800   0.42827   0.02826   0.00000  Uiso   1.00
H309   H     0.70403   0.42711   0.24912   0.00000  Uiso   1.00
H310   H     0.96265   0.57289   0.25159   0.00000  Uiso   1.00
H311   H     0.96263   0.42712   0.24842   0.00000  Uiso   1.00
H312   H     0.70407   0.57288   0.25223   0.00000  Uiso   1.00
N313   N     0.83333   0.61907   0.25000   0.00000  Uiso   1.00
N314   N     0.83333   0.38093   0.25000   0.00000  Uiso   1.00
O315   O     0.77226   0.53821   0.24999   0.00000  Uiso   1.00
O316   O     0.89441   0.46179   0.25000   0.00000  Uiso   1.00
O317   O     0.89441   0.53821   0.25000   0.00000  Uiso   1.00
O318   O     0.77226   0.46179   0.24999   0.00000  Uiso   1.00
O319   O     0.83333   0.53822   0.18453   0.00000  Uiso   1.00
O320   O     0.83334   0.46178   0.31547   0.00000  Uiso   1.00
O321   O     0.83334   0.53822   0.31547   0.00000  Uiso   1.00
O322   O     0.83333   0.46178   0.18453   0.00000  Uiso   1.00
Zn323  Zn    0.83333   0.55104   0.25000   0.00000  Uiso   1.00
Zn324  Zn    0.83333   0.44896   0.25000   0.00000  Uiso   1.00
Br325  Br    0.23219   0.72104   0.31649   0.00000  Uiso   1.00
Br326  Br    0.10109   0.94527   0.18338   0.00000  Uiso   1.00
Br327  Br    0.10174   0.72230   0.18260   0.00000  Uiso   1.00
Br328  Br    0.23072   0.94420   0.31825   0.00000  Uiso   1.00
C329   C     0.08671   0.83334   0.25012   0.00000  Uiso   1.00
C330   C     0.31206   0.87427   0.25107   0.00000  Uiso   1.00
C331   C     0.31205   0.79240   0.24933   0.00000  Uiso   1.00
C332   C     0.02130   0.87427   0.25133   0.00000  Uiso   1.00
C333   C     0.16479   0.87448   0.04549   0.00000  Uiso   1.00
C334   C     0.19887   0.81231   0.45361   0.00000  Uiso   1.00
C335   C     0.13470   0.85582   0.45075   0.00000  Uiso   1.00
C336   C     0.16963   0.79312   0.04600   0.00000  Uiso   1.00
C337   C     0.16563   0.87465   0.09152   0.00000  Uiso   1.00
C338   C     0.19910   0.81230   0.40764   0.00000  Uiso   1.00
C339   C     0.13473   0.85561   0.40468   0.00000  Uiso   1.00
C340   C     0.24663   0.83333   0.25003   0.00000  Uiso   1.00
C341   C     0.17018   0.79281   0.09202   0.00000  Uiso   1.00
C342   C     0.16764   0.83366   0.11530   0.00000  Uiso   1.00
C343   C     0.16673   0.83340   0.38333   0.00000  Uiso   1.00
C344   C     0.16666   0.83382   0.02294   0.00000  Uiso   1.00
C345   C     0.16662   0.83389   0.47502   0.00000  Uiso   1.00
C346   C     0.29083   0.83333   0.25011   0.00000  Uiso   1.00
C347   C     0.04252   0.83334   0.25040   0.00000  Uiso   1.00
C348   C     0.16703   0.83345   0.16375   0.00000  Uiso   1.00
C349   C     0.16682   0.83328   0.33577   0.00000  Uiso   1.00
C350   C     0.19348   0.69030   0.27761   0.00000  Uiso   1.00
C351   C     0.13981   0.97629   0.22236   0.00000  Uiso   1.00
C352   C     0.13985   0.69076   0.22231   0.00000  Uiso   1.00
C353   C     0.19333   0.97586   0.27782   0.00000  Uiso   1.00
C354   C     0.02129   0.79240   0.24960   0.00000  Uiso   1.00
F355   F     0.16494   0.91497   0.11229   0.00000  Uiso   1.00
F356   F     0.23163   0.79357   0.38702   0.00000  Uiso   1.00
F357   F     0.10345   0.87631   0.38094   0.00000  Uiso   1.00
F358   F     0.17365   0.75254   0.11328   0.00000  Uiso   1.00
H359   H     0.16332   0.90608   0.02737   0.00000  Uiso   1.00
H360   H     0.22408   0.79626   0.47256   0.00000  Uiso   1.00
H361   H     0.10974   0.87251   0.46751   0.00000  Uiso   1.00
H362   H     0.17134   0.76160   0.02826   0.00000  Uiso   1.00
H363   H     0.03737   0.76044   0.24912   0.00000  Uiso   1.00
H364   H     0.29598   0.90622   0.25159   0.00000  Uiso   1.00
H365   H     0.29596   0.76045   0.24842   0.00000  Uiso   1.00
H366   H     0.03740   0.90621   0.25223   0.00000  Uiso   1.00
N367   N     0.16667   0.95240   0.25000   0.00000  Uiso   1.00
N368   N     0.16667   0.71427   0.25000   0.00000  Uiso   1.00
O369   O     0.10559   0.87154   0.24999   0.00000  Uiso   1.00
O370   O     0.22774   0.79513   0.25000   0.00000  Uiso   1.00
O371   O     0.22774   0.87154   0.25000   0.00000  Uiso   1.00
O372   O     0.10559   0.79513   0.24999   0.00000  Uiso   1.00
O373   O     0.16666   0.87155   0.18453   0.00000  Uiso   1.00
O374   O     0.16667   0.79511   0.31547   0.00000  Uiso   1.00
O375   O     0.16667   0.87155   0.31547   0.00000  Uiso   1.00
O376   O     0.16666   0.79511   0.18453   0.00000  Uiso   1.00
Zn377  Zn    0.16667   0.88437   0.25000   0.00000  Uiso   1.00
Zn378  Zn    0.16667   0.78229   0.25000   0.00000  Uiso   1.00
Br379  Br    0.56552   0.72104   0.31649   0.00000  Uiso   1.00
Br380  Br    0.43443   0.94527   0.18338   0.00000  Uiso   1.00
Br381  Br    0.43507   0.72230   0.18260   0.00000  Uiso   1.00
Br382  Br    0.56405   0.94420   0.31825   0.00000  Uiso   1.00
C383   C     0.42004   0.83334   0.25012   0.00000  Uiso   1.00
C384   C     0.64540   0.87427   0.25107   0.00000  Uiso   1.00
C385   C     0.64539   0.79240   0.24933   0.00000  Uiso   1.00
C386   C     0.35464   0.87427   0.25133   0.00000  Uiso   1.00
C387   C     0.49812   0.87448   0.04549   0.00000  Uiso   1.00
C388   C     0.53220   0.81231   0.45361   0.00000  Uiso   1.00
C389   C     0.46803   0.85582   0.45075   0.00000  Uiso   1.00
C390   C     0.50297   0.79312   0.04600   0.00000  Uiso   1.00
C391   C     0.49896   0.87465   0.09152   0.00000  Uiso   1.00
C392   C     0.53243   0.81230   0.40764   0.00000  Uiso   1.00
C393   C     0.46806   0.85561   0.40468   0.00000  Uiso   1.00
C394   C     0.57996   0.83333   0.25003   0.00000  Uiso   1.00
C395   C     0.50351   0.79281   0.09202   0.00000  Uiso   1.00
C396   C     0.50097   0.83366   0.11530   0.00000  Uiso   1.00
C397   C     0.50006   0.83340   0.38333   0.00000  Uiso   1.00
C398   C     0.49999   0.83382   0.02294   0.00000  Uiso   1.00
C399   C     0.49995   0.83389   0.47502   0.00000  Uiso   1.00
C400   C     0.62417   0.83333   0.25011   0.00000  Uiso   1.00
C401   C     0.37585   0.83334   0.25040   0.00000  Uiso   1.00
C402   C     0.50036   0.83345   0.16375   0.00000  Uiso   1.00
C403   C     0.50016   0.83328   0.33577   0.00000  Uiso   1.00
C404   C     0.52682   0.69030   0.27761   0.00000  Uiso   1.00
C405   C     0.47314   0.97629   0.22236   0.00000  Uiso   1.00
C406   C     0.47318   0.69076   0.22231   0.00000  Uiso   1.00
C407   C     0.52666   0.97586   0.27782   0.00000  Uiso   1.00
C408   C     0.35462   0.79240   0.24960   0.00000  Uiso   1.00
F409   F     0.49827   0.91497   0.11229   0.00000  Uiso   1.00
F410   F     0.56496   0.79357   0.38702   0.00000  Uiso   1.00
F411   F     0.43678   0.87631   0.38094   0.00000  Uiso   1.00
F412   F     0.50699   0.75254   0.11328   0.00000  Uiso   1.00
H413   H     0.49666   0.90608   0.02737   0.00000  Uiso   1.00
H414   H     0.55741   0.79626   0.47256   0.00000  Uiso   1.00
H415   H     0.44307   0.87251   0.46751   0.00000  Uiso   1.00
H416   H     0.50467   0.76160   0.02826   0.00000  Uiso   1.00
H417   H     0.37070   0.76044   0.24912   0.00000  Uiso   1.00
H418   H     0.62931   0.90622   0.25159   0.00000  Uiso   1.00
H419   H     0.62929   0.76045   0.24842   0.00000  Uiso   1.00
H420   H     0.37073   0.90621   0.25223   0.00000  Uiso   1.00
N421   N     0.50000   0.95240   0.25000   0.00000  Uiso   1.00
N422   N     0.50000   0.71427   0.25000   0.00000  Uiso   1.00
O423   O     0.43892   0.87154   0.24999   0.00000  Uiso   1.00
O424   O     0.56108   0.79513   0.25000   0.00000  Uiso   1.00
O425   O     0.56108   0.87154   0.25000   0.00000  Uiso   1.00
O426   O     0.43892   0.79513   0.24999   0.00000  Uiso   1.00
O427   O     0.50000   0.87155   0.18453   0.00000  Uiso   1.00
O428   O     0.50000   0.79511   0.31547   0.00000  Uiso   1.00
O429   O     0.50000   0.87155   0.31547   0.00000  Uiso   1.00
O430   O     0.50000   0.79511   0.18453   0.00000  Uiso   1.00
Zn431  Zn    0.50000   0.88437   0.25000   0.00000  Uiso   1.00
Zn432  Zn    0.50000   0.78229   0.25000   0.00000  Uiso   1.00
Br433  Br    0.89885   0.72104   0.31649   0.00000  Uiso   1.00
Br434  Br    0.76776   0.94527   0.18338   0.00000  Uiso   1.00
Br435  Br    0.76841   0.72230   0.18260   0.00000  Uiso   1.00
Br436  Br    0.89739   0.94420   0.31825   0.00000  Uiso   1.00
C437   C     0.75337   0.83334   0.25012   0.00000  Uiso   1.00
C438   C     0.97873   0.87427   0.25107   0.00000  Uiso   1.00
C439   C     0.97872   0.79240   0.24933   0.00000  Uiso   1.00
C440   C     0.68797   0.87427   0.25133   0.00000  Uiso   1.00
C441   C     0.83146   0.87448   0.04549   0.00000  Uiso   1.00
C442   C     0.86554   0.81231   0.45361   0.00000  Uiso   1.00
C443   C     0.80136   0.85582   0.45075   0.00000  Uiso   1.00
C444   C     0.83630   0.79312   0.04600   0.00000  Uiso   1.00
C445   C     0.83230   0.87465   0.09152   0.00000  Uiso   1.00
C446   C     0.86576   0.81230   0.40764   0.00000  Uiso   1.00
C447   C     0.80140   0.85561   0.40468   0.00000  Uiso   1.00
C448   C     0.91330   0.83333   0.25003   0.00000  Uiso   1.00
C449   C     0.83685   0.79281   0.09202   0.00000  Uiso   1.00
C450   C     0.83431   0.83366   0.11530   0.00000  Uiso   1.00
C451   C     0.83339   0.83340   0.38333   0.00000  Uiso   1.00
C452   C     0.83333   0.83382   0.02294   0.00000  Uiso   1.00
C453   C     0.83329   0.83389   0.47502   0.00000  Uiso   1.00
C454   C     0.95750   0.83333   0.25011   0.00000  Uiso   1.00
C455   C     0.70918   0.83334   0.25040   0.00000  Uiso   1.00
C456   C     0.83370   0.83345   0.16375   0.00000  Uiso   1.00
C457   C     0.83349   0.83328   0.33577   0.00000  Uiso   1.00
C458   C     0.86015   0.69030   0.27761   0.00000  Uiso   1.00
C459   C     0.80647   0.97629   0.22236   0.00000  Uiso   1.00
C460   C     0.80651   0.69076   0.22231   0.00000  Uiso   1.00
C461   C     0.86000   0.97586   0.27782   0.00000  Uiso   1.00
C462   C     0.68795   0.79240   0.24960   0.00000  Uiso   1.00
F463   F     0.83160   0.91497   0.11229   0.00000  Uiso   1.00
F464   F     0.89830   0.79357   0.38702   0.00000  Uiso   1.00
F465   F     0.77012   0.87631   0.38094   0.00000  Uiso   1.00
F466   F     0.84032   0.75254   0.11328   0.00000  Uiso   1.00
H467   H     0.82999   0.90608   0.02737   0.00000  Uiso   1.00
H468   H     0.89075   0.79626   0.47256   0.00000  Uiso   1.00
H469   H     0.77641   0.87251   0.46751   0.00000  Uiso   1.00
H470   H     0.83800   0.76160   0.02826   0.00000  Uiso   1.00
H471   H     0.70403   0.76044   0.24912   0.00000  Uiso   1.00
H472   H     0.96265   0.90622   0.25159   0.00000  Uiso   1.00
H473   H     0.96263   0.76045   0.24842   0.00000  Uiso   1.00
H474   H     0.70407   0.90621   0.25223   0.00000  Uiso   1.00
N475   N     0.83333   0.95240   0.25000   0.00000  Uiso   1.00
N476   N     0.83333   0.71427   0.25000   0.00000  Uiso   1.00
O477   O     0.77226   0.87154   0.24999   0.00000  Uiso   1.00
O478   O     0.89441   0.79513   0.25000   0.00000  Uiso   1.00
O479   O     0.89441   0.87154   0.25000   0.00000  Uiso   1.00
O480   O     0.77226   0.79513   0.24999   0.00000  Uiso   1.00
O481   O     0.83333   0.87155   0.18453   0.00000  Uiso   1.00
O482   O     0.83334   0.79511   0.31547   0.00000  Uiso   1.00
O483   O     0.83334   0.87155   0.31547   0.00000  Uiso   1.00
O484   O     0.83333   0.79511   0.18453   0.00000  Uiso   1.00
Zn485  Zn    0.83333   0.88437   0.25000   0.00000  Uiso   1.00
Zn486  Zn    0.83333   0.78229   0.25000   0.00000  Uiso   1.00
Br487  Br    0.23219   0.05437   0.81649   0.00000  Uiso   1.00
Br488  Br    0.10109   0.27860   0.68338   0.00000  Uiso   1.00
Br489  Br    0.10174   0.05563   0.68260   0.00000  Uiso   1.00
Br490  Br    0.23072   0.27753   0.81825   0.00000  Uiso   1.00
C491   C     0.08671   0.16667   0.75012   0.00000  Uiso   1.00
C492   C     0.31206   0.20760   0.75107   0.00000  Uiso   1.00
C493   C     0.31205   0.12573   0.74933   0.00000  Uiso   1.00
C494   C     0.02130   0.20760   0.75133   0.00000  Uiso   1.00
C495   C     0.16479   0.20781   0.54549   0.00000  Uiso   1.00
C496   C     0.19887   0.14564   0.95361   0.00000  Uiso   1.00
C497   C     0.13470   0.18915   0.95075   0.00000  Uiso   1.00
C498   C     0.16963   0.12645   0.54600   0.00000  Uiso   1.00
C499   C     0.16563   0.20798   0.59152   0.00000  Uiso   1.00
C500   C     0.19910   0.14564   0.90764   0.00000  Uiso   1.00
C501   C     0.13473   0.18895   0.90468   0.00000  Uiso   1.00
C502   C     0.24663   0.16666   0.75003   0.00000  Uiso   1.00
C503   C     0.17018   0.12614   0.59202   0.00000  Uiso   1.00
C504   C     0.16764   0.16700   0.61530   0.00000  Uiso   1.00
C505   C     0.16673   0.16673   0.88333   0.00000  Uiso   1.00
C506   C     0.16666   0.16715   0.52294   0.00000  Uiso   1.00
C507   C     0.16662   0.16722   0.97502   0.00000  Uiso   1.00
C508   C     0.29083   0.16666   0.75011   0.00000  Uiso   1.00
C509   C     0.04252   0.16667   0.75040   0.00000  Uiso   1.00
C510   C     0.16703   0.16678   0.66375   0.00000  Uiso   1.00
C511   C     0.16682   0.16661   0.83577   0.00000  Uiso   1.00
C512   C     0.19348   0.02363   0.77761   0.00000  Uiso   1.00
C513   C     0.13981   0.30962   0.72236   0.00000  Uiso   1.00
C514   C     0.13985   0.02410   0.72231   0.00000  Uiso   1.00
C515   C     0.19333   0.30919   0.77782   0.00000  Uiso   1.00
C516   C     0.02129   0.12573   0.74960   0.00000  Uiso   1.00
F517   F     0.16494   0.24831   0.61229   0.00000  Uiso   1.00
F518   F     0.23163   0.12691   0.88702   0.00000  Uiso   1.00
F519   F     0.10345   0.20964   0.88094   0.00000  Uiso   1.00
F520   F     0.17365   0.08587   0.61328   0.00000  Uiso   1.00
H521   H     0.16332   0.23941   0.52737   0.00000  Uiso   1.00
H522   H     0.22408   0.12959   0.97256   0.00000  Uiso   1.00
H523   H     0.10974   0.20585   0.96751   0.00000  Uiso   1.00
H524   H     0.17134   0.09494   0.52826   0.00000  Uiso   1.00
H525   H     0.03737   0.09378   0.74912   0.00000  Uiso   1.00
H526   H     0.29598   0.23955   0.75159   0.00000  Uiso   1.00
H527   H     0.29596   0.09379   0.74842   0.00000  Uiso   1.00
H528   H     0.03740   0.23954   0.75223   0.00000  Uiso   1.00
N529   N     0.16667   0.28573   0.75000   0.00000  Uiso   1.00
N530   N     0.16667   0.04760   0.75000   0.00000  Uiso   1.00
O531   O     0.10559   0.20487   0.74999   0.00000  Uiso   1.00
O532   O     0.22774   0.12846   0.75000   0.00000  Uiso   1.00
O533   O     0.22774   0.20487   0.75000   0.00000  Uiso   1.00
O534   O     0.10559   0.12846   0.74999   0.00000  Uiso   1.00
O535   O     0.16666   0.20489   0.68453   0.00000  Uiso   1.00
O536   O     0.16667   0.12845   0.81547   0.00000  Uiso   1.00
O537   O     0.16667   0.20489   0.81547   0.00000  Uiso   1.00
O538   O     0.16666   0.12845   0.68453   0.00000  Uiso   1.00
Zn539  Zn    0.16667   0.21771   0.75000   0.00000  Uiso   1.00
Zn540  Zn    0.16667   0.11563   0.75000   0.00000  Uiso   1.00
Br541  Br    0.56552   0.05437   0.81649   0.00000  Uiso   1.00
Br542  Br    0.43443   0.27860   0.68338   0.00000  Uiso   1.00
Br543  Br    0.43507   0.05563   0.68260   0.00000  Uiso   1.00
Br544  Br    0.56405   0.27753   0.81825   0.00000  Uiso   1.00
C545   C     0.42004   0.16667   0.75012   0.00000  Uiso   1.00
C546   C     0.64540   0.20760   0.75107   0.00000  Uiso   1.00
C547   C     0.64539   0.12573   0.74933   0.00000  Uiso   1.00
C548   C     0.35464   0.20760   0.75133   0.00000  Uiso   1.00
C549   C     0.49812   0.20781   0.54549   0.00000  Uiso   1.00
C550   C     0.53220   0.14564   0.95361   0.00000  Uiso   1.00
C551   C     0.46803   0.18915   0.95075   0.00000  Uiso   1.00
C552   C     0.50297   0.12645   0.54600   0.00000  Uiso   1.00
C553   C     0.49896   0.20798   0.59152   0.00000  Uiso   1.00
C554   C     0.53243   0.14564   0.90764   0.00000  Uiso   1.00
C555   C     0.46806   0.18895   0.90468   0.00000  Uiso   1.00
C556   C     0.57996   0.16666   0.75003   0.00000  Uiso   1.00
C557   C     0.50351   0.12614   0.59202   0.00000  Uiso   1.00
C558   C     0.50097   0.16700   0.61530   0.00000  Uiso   1.00
C559   C     0.50006   0.16673   0.88333   0.00000  Uiso   1.00
C560   C     0.49999   0.16715   0.52294   0.00000  Uiso   1.00
C561   C     0.49995   0.16722   0.97502   0.00000  Uiso   1.00
C562   C     0.62417   0.16666   0.75011   0.00000  Uiso   1.00
C563   C     0.37585   0.16667   0.75040   0.00000  Uiso   1.00
C564   C     0.50036   0.16678   0.66375   0.00000  Uiso   1.00
C565   C     0.50016   0.16661   0.83577   0.00000  Uiso   1.00
C566   C     0.52682   0.02363   0.77761   0.00000  Uiso   1.00
C567   C     0.47314   0.30962   0.72236   0.00000  Uiso   1.00
C568   C     0.47318   0.02410   0.72231   0.00000  Uiso   1.00
C569   C     0.52666   0.30919   0.77782   0.00000  Uiso   1.00
C570   C     0.35462   0.12573   0.74960   0.00000  Uiso   1.00
F571   F     0.49827   0.24831   0.61229   0.00000  Uiso   1.00
F572   F     0.56496   0.12691   0.88702   0.00000  Uiso   1.00
F573   F     0.43678   0.20964   0.88094   0.00000  Uiso   1.00
F574   F     0.50699   0.08587   0.61328   0.00000  Uiso   1.00
H575   H     0.49666   0.23941   0.52737   0.00000  Uiso   1.00
H576   H     0.55741   0.12959   0.97256   0.00000  Uiso   1.00
H577   H     0.44307   0.20585   0.96751   0.00000  Uiso   1.00
H578   H     0.50467   0.09494   0.52826   0.00000  Uiso   1.00
H579   H     0.37070   0.09378   0.74912   0.00000  Uiso   1.00
H580   H     0.62931   0.23955   0.75159   0.00000  Uiso   1.00
H581   H     0.62929   0.09379   0.74842   0.00000  Uiso   1.00
H582   H     0.37073   0.23954   0.75223   0.00000  Uiso   1.00
N583   N     0.50000   0.28573   0.75000   0.00000  Uiso   1.00
N584   N     0.50000   0.04760   0.75000   0.00000  Uiso   1.00
O585   O     0.43892   0.20487   0.74999   0.00000  Uiso   1.00
O586   O     0.56108   0.12846   0.75000   0.00000  Uiso   1.00
O587   O     0.56108   0.20487   0.75000   0.00000  Uiso   1.00
O588   O     0.43892   0.12846   0.74999   0.00000  Uiso   1.00
O589   O     0.50000   0.20489   0.68453   0.00000  Uiso   1.00
O590   O     0.50000   0.12845   0.81547   0.00000  Uiso   1.00
O591   O     0.50000   0.20489   0.81547   0.00000  Uiso   1.00
O592   O     0.50000   0.12845   0.68453   0.00000  Uiso   1.00
Zn593  Zn    0.50000   0.21771   0.75000   0.00000  Uiso   1.00
Zn594  Zn    0.50000   0.11563   0.75000   0.00000  Uiso   1.00
Br595  Br    0.89885   0.05437   0.81649   0.00000  Uiso   1.00
Br596  Br    0.76776   0.27860   0.68338   0.00000  Uiso   1.00
Br597  Br    0.76841   0.05563   0.68260   0.00000  Uiso   1.00
Br598  Br    0.89739   0.27753   0.81825   0.00000  Uiso   1.00
C599   C     0.75337   0.16667   0.75012   0.00000  Uiso   1.00
C600   C     0.97873   0.20760   0.75107   0.00000  Uiso   1.00
C601   C     0.97872   0.12573   0.74933   0.00000  Uiso   1.00
C602   C     0.68797   0.20760   0.75133   0.00000  Uiso   1.00
C603   C     0.83146   0.20781   0.54549   0.00000  Uiso   1.00
C604   C     0.86554   0.14564   0.95361   0.00000  Uiso   1.00
C605   C     0.80136   0.18915   0.95075   0.00000  Uiso   1.00
C606   C     0.83630   0.12645   0.54600   0.00000  Uiso   1.00
C607   C     0.83230   0.20798   0.59152   0.00000  Uiso   1.00
C608   C     0.86576   0.14564   0.90764   0.00000  Uiso   1.00
C609   C     0.80140   0.18895   0.90468   0.00000  Uiso   1.00
C610   C     0.91330   0.16666   0.75003   0.00000  Uiso   1.00
C611   C     0.83685   0.12614   0.59202   0.00000  Uiso   1.00
C612   C     0.83431   0.16700   0.61530   0.00000  Uiso   1.00
C613   C     0.83339   0.16673   0.88333   0.00000  Uiso   1.00
C614   C     0.83333   0.16715   0.52294   0.00000  Uiso   1.00
C615   C     0.83329   0.16722   0.97502   0.00000  Uiso   1.00
C616   C     0.95750   0.16666   0.75011   0.00000  Uiso   1.00
C617   C     0.70918   0.16667   0.75040   0.00000  Uiso   1.00
C618   C     0.83370   0.16678   0.66375   0.00000  Uiso   1.00
C619   C     0.83349   0.16661   0.83577   0.00000  Uiso   1.00
C620   C     0.86015   0.02363   0.77761   0.00000  Uiso   1.00
C621   C     0.80647   0.30962   0.72236   0.00000  Uiso   1.00
C622   C     0.80651   0.02410   0.72231   0.00000  Uiso   1.00
C623   C     0.86000   0.30919   0.77782   0.00000  Uiso   1.00
C624   C     0.68795   0.12573   0.74960   0.00000  Uiso   1.00
F625   F     0.83160   0.24831   0.61229   0.00000  Uiso   1.00
F626   F     0.89830   0.12691   0.88702   0.00000  Uiso   1.00
F627   F     0.77012   0.20964   0.88094   0.00000  Uiso   1.00
F628   F     0.84032   0.08587   0.61328   0.00000  Uiso   1.00
H629   H     0.82999   0.23941   0.52737   0.00000  Uiso   1.00
H630   H     0.89075   0.12959   0.97256   0.00000  Uiso   1.00
H631   H     0.77641   0.20585   0.96751   0.00000  Uiso   1.00
H632   H     0.83800   0.09494   0.52826   0.00000  Uiso   1.00
H633   H     0.70403   0.09378   0.74912   0.00000  Uiso   1.00
H634   H     0.96265   0.23955   0.75159   0.00000  Uiso   1.00
H635   H     0.96263   0.09379   0.74842   0.00000  Uiso   1.00
H636   H     0.70407   0.23954   0.75223   0.00000  Uiso   1.00
N637   N     0.83333   0.28573   0.75000   0.00000  Uiso   1.00
N638   N     0.83333   0.04760   0.75000   0.00000  Uiso   1.00
O639   O     0.77226   0.20487   0.74999   0.00000  Uiso   1.00
O640   O     0.89441   0.12846   0.75000   0.00000  Uiso   1.00
O641   O     0.89441   0.20487   0.75000   0.00000  Uiso   1.00
O642   O     0.77226   0.12846   0.74999   0.00000  Uiso   1.00
O643   O     0.83333   0.20489   0.68453   0.00000  Uiso   1.00
O644   O     0.83334   0.12845   0.81547   0.00000  Uiso   1.00
O645   O     0.83334   0.20489   0.81547   0.00000  Uiso   1.00
O646   O     0.83333   0.12845   0.68453   0.00000  Uiso   1.00
Zn647  Zn    0.83333   0.21771   0.75000   0.00000  Uiso   1.00
Zn648  Zn    0.83333   0.11563   0.75000   0.00000  Uiso   1.00
Br649  Br    0.23219   0.38771   0.81649   0.00000  Uiso   1.00
Br650  Br    0.10109   0.61194   0.68338   0.00000  Uiso   1.00
Br651  Br    0.10174   0.38896   0.68260   0.00000  Uiso   1.00
Br652  Br    0.23072   0.61086   0.81825   0.00000  Uiso   1.00
C653   C     0.08671   0.50001   0.75012   0.00000  Uiso   1.00
C654   C     0.31206   0.54094   0.75107   0.00000  Uiso   1.00
C655   C     0.31205   0.45906   0.74933   0.00000  Uiso   1.00
C656   C     0.02130   0.54094   0.75133   0.00000  Uiso   1.00
C657   C     0.16479   0.54115   0.54549   0.00000  Uiso   1.00
C658   C     0.19887   0.47898   0.95361   0.00000  Uiso   1.00
C659   C     0.13470   0.52248   0.95075   0.00000  Uiso   1.00
C660   C     0.16963   0.45979   0.54600   0.00000  Uiso   1.00
C661   C     0.16563   0.54132   0.59152   0.00000  Uiso   1.00
C662   C     0.19910   0.47897   0.90764   0.00000  Uiso   1.00
C663   C     0.13473   0.52228   0.90468   0.00000  Uiso   1.00
C664   C     0.24663   0.49999   0.75003   0.00000  Uiso   1.00
C665   C     0.17018   0.45948   0.59202   0.00000  Uiso   1.00
C666   C     0.16764   0.50033   0.61530   0.00000  Uiso   1.00
C667   C     0.16673   0.50007   0.88333   0.00000  Uiso   1.00
C668   C     0.16666   0.50049   0.52294   0.00000  Uiso   1.00
C669   C     0.16662   0.50055   0.97502   0.00000  Uiso   1.00
C670   C     0.29083   0.50000   0.75011   0.00000  Uiso   1.00
C671   C     0.04252   0.50001   0.75040   0.00000  Uiso   1.00
C672   C     0.16703   0.50012   0.66375   0.00000  Uiso   1.00
C673   C     0.16682   0.49995   0.83577   0.00000  Uiso   1.00
C674   C     0.19348   0.35697   0.77761   0.00000  Uiso   1.00
C675   C     0.13981   0.64295   0.72236   0.00000  Uiso   1.00
C676   C     0.13985   0.35743   0.72231   0.00000  Uiso   1.00
C677   C     0.19333   0.64252   0.77782   0.00000  Uiso   1.00
C678   C     0.02129   0.45906   0.74960   0.00000  Uiso   1.00
F679   F     0.16494   0.58164   0.61229   0.00000  Uiso   1.00
F680   F     0.23163   0.46024   0.88702   0.00000  Uiso   1.00
F681   F     0.10345   0.54297   0.88094   0.00000  Uiso   1.00
F682   F     0.17365   0.41921   0.61328   0.00000  Uiso   1.00
H683   H     0.16332   0.57274   0.52737   0.00000  Uiso   1.00
H684   H     0.22408   0.46292   0.97256   0.00000  Uiso   1.00
H685   H     0.10974   0.53918   0.96751   0.00000  Uiso   1.00
H686   H     0.17134   0.42827   0.52826   0.00000  Uiso   1.00
H687   H     0.03737   0.42711   0.74912   0.00000  Uiso   1.00
H688   H     0.29598   0.57289   0.75159   0.00000  Uiso   1.00
H689   H     0.29596   0.42712   0.74842   0.00000  Uiso   1.00
H690   H     0.03740   0.57288   0.75223   0.00000  Uiso   1.00
N691   N     0.16667   0.61907   0.75000   0.00000  Uiso   1.00
N692   N     0.16667   0.38093   0.75000   0.00000  Uiso   1.00
O693   O     0.10559   0.53821   0.74999   0.00000  Uiso   1.00
O694   O     0.22774   0.46179   0.75000   0.00000  Uiso   1.00
O695   O     0.22774   0.53821   0.75000   0.00000  Uiso   1.00
O696   O     0.10559   0.46179   0.74999   0.00000  Uiso   1.00
O697   O     0.16666   0.53822   0.68453   0.00000  Uiso   1.00
O698   O     0.16667   0.46178   0.81547   0.00000  Uiso   1.00
O699   O     0.16667   0.53822   0.81547   0.00000  Uiso   1.00
O700   O     0.16666   0.46178   0.68453   0.00000  Uiso   1.00
Zn701  Zn    0.16667   0.55104   0.75000   0.00000  Uiso   1.00
Zn702  Zn    0.16667   0.44896   0.75000   0.00000  Uiso   1.00
Br703  Br    0.56552   0.38771   0.81649   0.00000  Uiso   1.00
Br704  Br    0.43443   0.61194   0.68338   0.00000  Uiso   1.00
Br705  Br    0.43507   0.38896   0.68260   0.00000  Uiso   1.00
Br706  Br    0.56405   0.61086   0.81825   0.00000  Uiso   1.00
C707   C     0.42004   0.50001   0.75012   0.00000  Uiso   1.00
C708   C     0.64540   0.54094   0.75107   0.00000  Uiso   1.00
C709   C     0.64539   0.45906   0.74933   0.00000  Uiso   1.00
C710   C     0.35464   0.54094   0.75133   0.00000  Uiso   1.00
C711   C     0.49812   0.54115   0.54549   0.00000  Uiso   1.00
C712   C     0.53220   0.47898   0.95361   0.00000  Uiso   1.00
C713   C     0.46803   0.52248   0.95075   0.00000  Uiso   1.00
C714   C     0.50297   0.45979   0.54600   0.00000  Uiso   1.00
C715   C     0.49896   0.54132   0.59152   0.00000  Uiso   1.00
C716   C     0.53243   0.47897   0.90764   0.00000  Uiso   1.00
C717   C     0.46806   0.52228   0.90468   0.00000  Uiso   1.00
C718   C     0.57996   0.49999   0.75003   0.00000  Uiso   1.00
C719   C     0.50351   0.45948   0.59202   0.00000  Uiso   1.00
C720   C     0.50097   0.50033   0.61530   0.00000  Uiso   1.00
C721   C     0.50006   0.50007   0.88333   0.00000  Uiso   1.00
C722   C     0.49999   0.50049   0.52294   0.00000  Uiso   1.00
C723   C     0.49995   0.50055   0.97502   0.00000  Uiso   1.00
C724   C     0.62417   0.50000   0.75011   0.00000  Uiso   1.00
C725   C     0.37585   0.50001   0.75040   0.00000  Uiso   1.00
C726   C     0.50036   0.50012   0.66375   0.00000  Uiso   1.00
C727   C     0.50016   0.49995   0.83577   0.00000  Uiso   1.00
C728   C     0.52682   0.35697   0.77761   0.00000  Uiso   1.00
C729   C     0.47314   0.64295   0.72236   0.00000  Uiso   1.00
C730   C     0.47318   0.35743   0.72231   0.00000  Uiso   1.00
C731   C     0.52666   0.64252   0.77782   0.00000  Uiso   1.00
C732   C     0.35462   0.45906   0.74960   0.00000  Uiso   1.00
F733   F     0.49827   0.58164   0.61229   0.00000  Uiso   1.00
F734   F     0.56496   0.46024   0.88702   0.00000  Uiso   1.00
F735   F     0.43678   0.54297   0.88094   0.00000  Uiso   1.00
F736   F     0.50699   0.41921   0.61328   0.00000  Uiso   1.00
H737   H     0.49666   0.57274   0.52737   0.00000  Uiso   1.00
H738   H     0.55741   0.46292   0.97256   0.00000  Uiso   1.00
H739   H     0.44307   0.53918   0.96751   0.00000  Uiso   1.00
H740   H     0.50467   0.42827   0.52826   0.00000  Uiso   1.00
H741   H     0.37070   0.42711   0.74912   0.00000  Uiso   1.00
H742   H     0.62931   0.57289   0.75159   0.00000  Uiso   1.00
H743   H     0.62929   0.42712   0.74842   0.00000  Uiso   1.00
H744   H     0.37073   0.57288   0.75223   0.00000  Uiso   1.00
N745   N     0.50000   0.61907   0.75000   0.00000  Uiso   1.00
N746   N     0.50000   0.38093   0.75000   0.00000  Uiso   1.00
O747   O     0.43892   0.53821   0.74999   0.00000  Uiso   1.00
O748   O     0.56108   0.46179   0.75000   0.00000  Uiso   1.00
O749   O     0.56108   0.53821   0.75000   0.00000  Uiso   1.00
O750   O     0.43892   0.46179   0.74999   0.00000  Uiso   1.00
O751   O     0.50000   0.53822   0.68453   0.00000  Uiso   1.00
O752   O     0.50000   0.46178   0.81547   0.00000  Uiso   1.00
O753   O     0.50000   0.53822   0.81547   0.00000  Uiso   1.00
O754   O     0.50000   0.46178   0.68453   0.00000  Uiso   1.00
Zn755  Zn    0.50000   0.55104   0.75000   0.00000  Uiso   1.00
Zn756  Zn    0.50000   0.44896   0.75000   0.00000  Uiso   1.00
Br757  Br    0.89885   0.38771   0.81649   0.00000  Uiso   1.00
Br758  Br    0.76776   0.61194   0.68338   0.00000  Uiso   1.00
Br759  Br    0.76841   0.38896   0.68260   0.00000  Uiso   1.00
Br760  Br    0.89739   0.61086   0.81825   0.00000  Uiso   1.00
C761   C     0.75337   0.50001   0.75012   0.00000  Uiso   1.00
C762   C     0.97873   0.54094   0.75107   0.00000  Uiso   1.00
C763   C     0.97872   0.45906   0.74933   0.00000  Uiso   1.00
C764   C     0.68797   0.54094   0.75133   0.00000  Uiso   1.00
C765   C     0.83146   0.54115   0.54549   0.00000  Uiso   1.00
C766   C     0.86554   0.47898   0.95361   0.00000  Uiso   1.00
C767   C     0.80136   0.52248   0.95075   0.00000  Uiso   1.00
C768   C     0.83630   0.45979   0.54600   0.00000  Uiso   1.00
C769   C     0.83230   0.54132   0.59152   0.00000  Uiso   1.00
C770   C     0.86576   0.47897   0.90764   0.00000  Uiso   1.00
C771   C     0.80140   0.52228   0.90468   0.00000  Uiso   1.00
C772   C     0.91330   0.49999   0.75003   0.00000  Uiso   1.00
C773   C     0.83685   0.45948   0.59202   0.00000  Uiso   1.00
C774   C     0.83431   0.50033   0.61530   0.00000  Uiso   1.00
C775   C     0.83339   0.50007   0.88333   0.00000  Uiso   1.00
C776   C     0.83333   0.50049   0.52294   0.00000  Uiso   1.00
C777   C     0.83329   0.50055   0.97502   0.00000  Uiso   1.00
C778   C     0.95750   0.50000   0.75011   0.00000  Uiso   1.00
C779   C     0.70918   0.50001   0.75040   0.00000  Uiso   1.00
C780   C     0.83370   0.50012   0.66375   0.00000  Uiso   1.00
C781   C     0.83349   0.49995   0.83577   0.00000  Uiso   1.00
C782   C     0.86015   0.35697   0.77761   0.00000  Uiso   1.00
C783   C     0.80647   0.64295   0.72236   0.00000  Uiso   1.00
C784   C     0.80651   0.35743   0.72231   0.00000  Uiso   1.00
C785   C     0.86000   0.64252   0.77782   0.00000  Uiso   1.00
C786   C     0.68795   0.45906   0.74960   0.00000  Uiso   1.00
F787   F     0.83160   0.58164   0.61229   0.00000  Uiso   1.00
F788   F     0.89830   0.46024   0.88702   0.00000  Uiso   1.00
F789   F     0.77012   0.54297   0.88094   0.00000  Uiso   1.00
F790   F     0.84032   0.41921   0.61328   0.00000  Uiso   1.00
H791   H     0.82999   0.57274   0.52737   0.00000  Uiso   1.00
H792   H     0.89075   0.46292   0.97256   0.00000  Uiso   1.00
H793   H     0.77641   0.53918   0.96751   0.00000  Uiso   1.00
H794   H     0.83800   0.42827   0.52826   0.00000  Uiso   1.00
H795   H     0.70403   0.42711   0.74912   0.00000  Uiso   1.00
H796   H     0.96265   0.57289   0.75159   0.00000  Uiso   1.00
H797   H     0.96263   0.42712   0.74842   0.00000  Uiso   1.00
H798   H     0.70407   0.57288   0.75223   0.00000  Uiso   1.00
N799   N     0.83333   0.61907   0.75000   0.00000  Uiso   1.00
N800   N     0.83333   0.38093   0.75000   0.00000  Uiso   1.00
O801   O     0.77226   0.53821   0.74999   0.00000  Uiso   1.00
O802   O     0.89441   0.46179   0.75000   0.00000  Uiso   1.00
O803   O     0.89441   0.53821   0.75000   0.00000  Uiso   1.00
O804   O     0.77226   0.46179   0.74999   0.00000  Uiso   1.00
O805   O     0.83333   0.53822   0.68453   0.00000  Uiso   1.00
O806   O     0.83334   0.46178   0.81547   0.00000  Uiso   1.00
O807   O     0.83334   0.53822   0.81547   0.00000  Uiso   1.00
O808   O     0.83333   0.46178   0.68453   0.00000  Uiso   1.00
Zn809  Zn    0.83333   0.55104   0.75000   0.00000  Uiso   1.00
Zn810  Zn    0.83333   0.44896   0.75000   0.00000  Uiso   1.00
Br811  Br    0.23219   0.72104   0.81649   0.00000  Uiso   1.00
Br812  Br    0.10109   0.94527   0.68338   0.00000  Uiso   1.00
Br813  Br    0.10174   0.72230   0.68260   0.00000  Uiso   1.00
Br814  Br    0.23072   0.94420   0.81825   0.00000  Uiso   1.00
C815   C     0.08671   0.83334   0.75012   0.00000  Uiso   1.00
C816   C     0.31206   0.87427   0.75107   0.00000  Uiso   1.00
C817   C     0.31205   0.79240   0.74933   0.00000  Uiso   1.00
C818   C     0.02130   0.87427   0.75133   0.00000  Uiso   1.00
C819   C     0.16479   0.87448   0.54549   0.00000  Uiso   1.00
C820   C     0.19887   0.81231   0.95361   0.00000  Uiso   1.00
C821   C     0.13470   0.85582   0.95075   0.00000  Uiso   1.00
C822   C     0.16963   0.79312   0.54600   0.00000  Uiso   1.00
C823   C     0.16563   0.87465   0.59152   0.00000  Uiso   1.00
C824   C     0.19910   0.81230   0.90764   0.00000  Uiso   1.00
C825   C     0.13473   0.85561   0.90468   0.00000  Uiso   1.00
C826   C     0.24663   0.83333   0.75003   0.00000  Uiso   1.00
C827   C     0.17018   0.79281   0.59202   0.00000  Uiso   1.00
C828   C     0.16764   0.83366   0.61530   0.00000  Uiso   1.00
C829   C     0.16673   0.83340   0.88333   0.00000  Uiso   1.00
C830   C     0.16666   0.83382   0.52294   0.00000  Uiso   1.00
C831   C     0.16662   0.83389   0.97502   0.00000  Uiso   1.00
C832   C     0.29083   0.83333   0.75011   0.00000  Uiso   1.00
C833   C     0.04252   0.83334   0.75040   0.00000  Uiso   1.00
C834   C     0.16703   0.83345   0.66375   0.00000  Uiso   1.00
C835   C     0.16682   0.83328   0.83577   0.00000  Uiso   1.00
C836   C     0.19348   0.69030   0.77761   0.00000  Uiso   1.00
C837   C     0.13981   0.97629   0.72236   0.00000  Uiso   1.00
C838   C     0.13985   0.69076   0.72231   0.00000  Uiso   1.00
C839   C     0.19333   0.97586   0.77782   0.00000  Uiso   1.00
C840   C     0.02129   0.79240   0.74960   0.00000  Uiso   1.00
F841   F     0.16494   0.91497   0.61229   0.00000  Uiso   1.00
F842   F     0.23163   0.79357   0.88702   0.00000  Uiso   1.00
F843   F     0.10345   0.87631   0.88094   0.00000  Uiso   1.00
F844   F     0.17365   0.75254   0.61328   0.00000  Uiso   1.00
H845   H     0.16332   0.90608   0.52737   0.00000  Uiso   1.00
H846   H     0.22408   0.79626   0.97256   0.00000  Uiso   1.00
H847   H     0.10974   0.87251   0.96751   0.00000  Uiso   1.00
H848   H     0.17134   0.76160   0.52826   0.00000  Uiso   1.00
H849   H     0.03737   0.76044   0.74912   0.00000  Uiso   1.00
H850   H     0.29598   0.90622   0.75159   0.00000  Uiso   1.00
H851   H     0.29596   0.76045   0.74842   0.00000  Uiso   1.00
H852   H     0.03740   0.90621   0.75223   0.00000  Uiso   1.00
N853   N     0.16667   0.95240   0.75000   0.00000  Uiso   1.00
N854   N     0.16667   0.71427   0.75000   0.00000  Uiso   1.00
O855   O     0.10559   0.87154   0.74999   0.00000  Uiso   1.00
O856   O     0.22774   0.79513   0.75000   0.00000  Uiso   1.00
O857   O     0.22774   0.87154   0.75000   0.00000  Uiso   1.00
O858   O     0.10559   0.79513   0.74999   0.00000  Uiso   1.00
O859   O     0.16666   0.87155   0.68453   0.00000  Uiso   1.00
O860   O     0.16667   0.79511   0.81547   0.00000  Uiso   1.00
O861   O     0.16667   0.87155   0.81547   0.00000  Uiso   1.00
O862   O     0.16666   0.79511   0.68453   0.00000  Uiso   1.00
Zn863  Zn    0.16667   0.88437   0.75000   0.00000  Uiso   1.00
Zn864  Zn    0.16667   0.78229   0.75000   0.00000  Uiso   1.00
Br865  Br    0.56552   0.72104   0.81649   0.00000  Uiso   1.00
Br866  Br    0.43443   0.94527   0.68338   0.00000  Uiso   1.00
Br867  Br    0.43507   0.72230   0.68260   0.00000  Uiso   1.00
Br868  Br    0.56405   0.94420   0.81825   0.00000  Uiso   1.00
C869   C     0.42004   0.83334   0.75012   0.00000  Uiso   1.00
C870   C     0.64540   0.87427   0.75107   0.00000  Uiso   1.00
C871   C     0.64539   0.79240   0.74933   0.00000  Uiso   1.00
C872   C     0.35464   0.87427   0.75133   0.00000  Uiso   1.00
C873   C     0.49812   0.87448   0.54549   0.00000  Uiso   1.00
C874   C     0.53220   0.81231   0.95361   0.00000  Uiso   1.00
C875   C     0.46803   0.85582   0.95075   0.00000  Uiso   1.00
C876   C     0.50297   0.79312   0.54600   0.00000  Uiso   1.00
C877   C     0.49896   0.87465   0.59152   0.00000  Uiso   1.00
C878   C     0.53243   0.81230   0.90764   0.00000  Uiso   1.00
C879   C     0.46806   0.85561   0.90468   0.00000  Uiso   1.00
C880   C     0.57996   0.83333   0.75003   0.00000  Uiso   1.00
C881   C     0.50351   0.79281   0.59202   0.00000  Uiso   1.00
C882   C     0.50097   0.83366   0.61530   0.00000  Uiso   1.00
C883   C     0.50006   0.83340   0.88333   0.00000  Uiso   1.00
C884   C     0.49999   0.83382   0.52294   0.00000  Uiso   1.00
C885   C     0.49995   0.83389   0.97502   0.00000  Uiso   1.00
C886   C     0.62417   0.83333   0.75011   0.00000  Uiso   1.00
C887   C     0.37585   0.83334   0.75040   0.00000  Uiso   1.00
C888   C     0.50036   0.83345   0.66375   0.00000  Uiso   1.00
C889   C     0.50016   0.83328   0.83577   0.00000  Uiso   1.00
C890   C     0.52682   0.69030   0.77761   0.00000  Uiso   1.00
C891   C     0.47314   0.97629   0.72236   0.00000  Uiso   1.00
C892   C     0.47318   0.69076   0.72231   0.00000  Uiso   1.00
C893   C     0.52666   0.97586   0.77782   0.00000  Uiso   1.00
C894   C     0.35462   0.79240   0.74960   0.00000  Uiso   1.00
F895   F     0.49827   0.91497   0.61229   0.00000  Uiso   1.00
F896   F     0.56496   0.79357   0.88702   0.00000  Uiso   1.00
F897   F     0.43678   0.87631   0.88094   0.00000  Uiso   1.00
F898   F     0.50699   0.75254   0.61328   0.00000  Uiso   1.00
H899   H     0.49666   0.90608   0.52737   0.00000  Uiso   1.00
H900   H     0.55741   0.79626   0.97256   0.00000  Uiso   1.00
H901   H     0.44307   0.87251   0.96751   0.00000  Uiso   1.00
H902   H     0.50467   0.76160   0.52826   0.00000  Uiso   1.00
H903   H     0.37070   0.76044   0.74912   0.00000  Uiso   1.00
H904   H     0.62931   0.90622   0.75159   0.00000  Uiso   1.00
H905   H     0.62929   0.76045   0.74842   0.00000  Uiso   1.00
H906   H     0.37073   0.90621   0.75223   0.00000  Uiso   1.00
N907   N     0.50000   0.95240   0.75000   0.00000  Uiso   1.00
N908   N     0.50000   0.71427   0.75000   0.00000  Uiso   1.00
O909   O     0.43892   0.87154   0.74999   0.00000  Uiso   1.00
O910   O     0.56108   0.79513   0.75000   0.00000  Uiso   1.00
O911   O     0.56108   0.87154   0.75000   0.00000  Uiso   1.00
O912   O     0.43892   0.79513   0.74999   0.00000  Uiso   1.00
O913   O     0.50000   0.87155   0.68453   0.00000  Uiso   1.00
O914   O     0.50000   0.79511   0.81547   0.00000  Uiso   1.00
O915   O     0.50000   0.87155   0.81547   0.00000  Uiso   1.00
O916   O     0.50000   0.79511   0.68453   0.00000  Uiso   1.00
Zn917  Zn    0.50000   0.88437   0.75000   0.00000  Uiso   1.00
Zn918  Zn    0.50000   0.78229   0.75000   0.00000  Uiso   1.00
Br919  Br    0.89885   0.72104   0.81649   0.00000  Uiso   1.00
Br920  Br    0.76776   0.94527   0.68338   0.00000  Uiso   1.00
Br921  Br    0.76841   0.72230   0.68260   0.00000  Uiso   1.00
Br922  Br    0.89739   0.94420   0.81825   0.00000  Uiso   1.00
C923   C     0.75337   0.83334   0.75012   0.00000  Uiso   1.00
C924   C     0.97873   0.87427   0.75107   0.00000  Uiso   1.00
C925   C     0.97872   0.79240   0.74933   0.00000  Uiso   1.00
C926   C     0.68797   0.87427   0.75133   0.00000  Uiso   1.00
C927   C     0.83146   0.87448   0.54549   0.00000  Uiso   1.00
C928   C     0.86554   0.81231   0.95361   0.00000  Uiso   1.00
C929   C     0.80136   0.85582   0.95075   0.00000  Uiso   1.00
C930   C     0.83630   0.79312   0.54600   0.00000  Uiso   1.00
C931   C     0.83230   0.87465   0.59152   0.00000  Uiso   1.00
C932   C     0.86576   0.81230   0.90764   0.00000  Uiso   1.00
C933   C     0.80140   0.85561   0.90468   0.00000  Uiso   1.00
C934   C     0.91330   0.83333   0.75003   0.00000  Uiso   1.00
C935   C     0.83685   0.79281   0.59202   0.00000  Uiso   1.00
C936   C     0.83431   0.83366   0.61530   0.00000  Uiso   1.00
C937   C     0.83339   0.83340   0.88333   0.00000  Uiso   1.00
C938   C     0.83333   0.83382   0.52294   0.00000  Uiso   1.00
C939   C     0.83329   0.83389   0.97502   0.00000  Uiso   1.00
C940   C     0.95750   0.83333   0.75011   0.00000  Uiso   1.00
C941   C     0.70918   0.83334   0.75040   0.00000  Uiso   1.00
C942   C     0.83370   0.83345   0.66375   0.00000  Uiso   1.00
C943   C     0.83349   0.83328   0.83577   0.00000  Uiso   1.00
C944   C     0.86015   0.69030   0.77761   0.00000  Uiso   1.00
C945   C     0.80647   0.97629   0.72236   0.00000  Uiso   1.00
C946   C     0.80651   0.69076   0.72231   0.00000  Uiso   1.00
C947   C     0.86000   0.97586   0.77782   0.00000  Uiso   1.00
C948   C     0.68795   0.79240   0.74960   0.00000  Uiso   1.00
F949   F     0.83160   0.91497   0.61229   0.00000  Uiso   1.00
F950   F     0.89830   0.79357   0.88702   0.00000  Uiso   1.00
F951   F     0.77012   0.87631   0.88094   0.00000  Uiso   1.00
F952   F     0.84032   0.75254   0.61328   0.00000  Uiso   1.00
H953   H     0.82999   0.90608   0.52737   0.00000  Uiso   1.00
H954   H     0.89075   0.79626   0.97256   0.00000  Uiso   1.00
H955   H     0.77641   0.87251   0.96751   0.00000  Uiso   1.00
H956   H     0.83800   0.76160   0.52826   0.00000  Uiso   1.00
H957   H     0.70403   0.76044   0.74912   0.00000  Uiso   1.00
H958   H     0.96265   0.90622   0.75159   0.00000  Uiso   1.00
H959   H     0.96263   0.76045   0.74842   0.00000  Uiso   1.00
H960   H     0.70407   0.90621   0.75223   0.00000  Uiso   1.00
N961   N     0.83333   0.95240   0.75000   0.00000  Uiso   1.00
N962   N     0.83333   0.71427   0.75000   0.00000  Uiso   1.00
O963   O     0.77226   0.87154   0.74999   0.00000  Uiso   1.00
O964   O     0.89441   0.79513   0.75000   0.00000  Uiso   1.00
O965   O     0.89441   0.87154   0.75000   0.00000  Uiso   1.00
O966   O     0.77226   0.79513   0.74999   0.00000  Uiso   1.00
O967   O     0.83333   0.87155   0.68453   0.00000  Uiso   1.00
O968   O     0.83334   0.79511   0.81547   0.00000  Uiso   1.00
O969   O     0.83334   0.87155   0.81547   0.00000  Uiso   1.00
O970   O     0.83333   0.79511   0.68453   0.00000  Uiso   1.00
Zn971  Zn    0.83333   0.88437   0.75000   0.00000  Uiso   1.00
Zn972  Zn    0.83333   0.78229   0.75000   0.00000  Uiso   1.00
loop_
_geom_bond_atom_site_label_1
_geom_bond_atom_site_label_2
_geom_bond_distance
_geom_bond_site_symmetry_2
_ccdc_geom_bond_type
Br1    C26     1.914   .     S
Br2    C27     1.920   .     S
Br3    C28     1.921   .     S
Br4    C29     1.922   .     S
C5     C23     1.422   .     S
C5     O48     1.289   .     A
C5     O45     1.290   .     A
C6     H40     1.083   .     S
C6     C22     1.398   .     A
C6     C62     1.369   .     S
C7     C22     1.397   .     A
C7     H41     1.083   .     S
C7     C84     1.369   .     S
C8     H42     1.083   .     S
C8     C23     1.397   .     A
C8     C114    1.369   1_455 S
C9     C20     1.393   .     A
C9     H35     1.084   .     S
C9     C13     1.381   .     A
C10    C21     1.397   .     A
C10    C14     1.380   .     A
C10    H36     1.084   .     S
C11    H37     1.084   .     S
C11    C21     1.398   .     A
C11    C15     1.383   .     A
C12    C17     1.380   .     A
C12    C20     1.393   .     A
C12    H38     1.084   .     S
C13    C18     1.410   .     A
C13    F31     1.357   .     S
C14    F32     1.355   .     S
C14    C19     1.397   .     A
C15    C19     1.399   .     A
C15    F33     1.358   .     S
C16    C22     1.422   .     S
C16    O47     1.289   .     A
C16    O46     1.290   .     A
C17    C18     1.410   .     A
C17    F34     1.358   .     S
C18    C24     1.455   .     S
C19    C25     1.427   .     S
C20    C507    1.438   1_554 S
C21    C506    1.438   .     S
C23    C30     1.397   .     A
C24    O52     1.298   .     A
C24    O49     1.298   .     A
C25    O51     1.289   .     A
C25    O50     1.293   .     A
C26    N44     1.372   .     A
C26    C353    1.422   1_545 S
C27    N43     1.373   .     A
C27    C190    1.423   .     S
C28    N44     1.372   .     A
C28    C351    1.423   1_545 S
C29    N43     1.371   .     A
C29    C188    1.422   .     S
C30    H39     1.083   .     S
C30    C115    1.369   1_455 S
N43    Zn53    2.025   .     S
N44    Zn54    2.025   .     S
O45    Zn53    2.002   .     S
O46    Zn54    2.002   .     S
O47    Zn53    2.001   .     S
O48    Zn54    2.001   .     S
O49    Zn53    2.004   .     S
O50    Zn54    2.004   .     S
O51    Zn53    1.999   .     S
O52    Zn54    1.999   .     S
Br55   C80     1.914   .     S
Br56   C81     1.920   .     S
Br57   C82     1.921   .     S
Br58   C83     1.922   .     S
C59    C77     1.422   .     S
C59    O102    1.289   .     A
C59    O99     1.290   .     A
C60    H94     1.083   .     S
C60    C76     1.398   .     A
C60    C116    1.369   .     S
C61    C76     1.397   .     A
C61    H95     1.083   .     S
C61    C138    1.369   .     S
C62    H96     1.083   .     S
C62    C77     1.397   .     A
C63    C74     1.393   .     A
C63    H89     1.084   .     S
C63    C67     1.381   .     A
C64    C75     1.397   .     A
C64    C68     1.380   .     A
C64    H90     1.084   .     S
C65    H91     1.084   .     S
C65    C75     1.398   .     A
C65    C69     1.383   .     A
C66    C71     1.380   .     A
C66    C74     1.393   .     A
C66    H92     1.084   .     S
C67    C72     1.410   .     A
C67    F85     1.357   .     S
C68    F86     1.355   .     S
C68    C73     1.397   .     A
C69    C73     1.399   .     A
C69    F87     1.358   .     S
C70    C76     1.422   .     S
C70    O101    1.289   .     A
C70    O100    1.290   .     A
C71    C72     1.410   .     A
C71    F88     1.358   .     S
C72    C78     1.455   .     S
C73    C79     1.427   .     S
C74    C561    1.438   1_554 S
C75    C560    1.438   .     S
C77    C84     1.397   .     A
C78    O106    1.298   .     A
C78    O103    1.298   .     A
C79    O105    1.289   .     A
C79    O104    1.293   .     A
C80    N98     1.372   .     A
C80    C407    1.422   1_545 S
C81    N97     1.373   .     A
C81    C244    1.423   .     S
C82    N98     1.372   .     A
C82    C405    1.423   1_545 S
C83    N97     1.371   .     A
C83    C242    1.422   .     S
C84    H93     1.083   .     S
N97    Zn107   2.025   .     S
N98    Zn108   2.025   .     S
O99    Zn107   2.002   .     S
O100   Zn108   2.002   .     S
O101   Zn107   2.001   .     S
O102   Zn108   2.001   .     S
O103   Zn107   2.004   .     S
O104   Zn108   2.004   .     S
O105   Zn107   1.999   .     S
O106   Zn108   1.999   .     S
Br109  C134    1.914   .     S
Br110  C135    1.920   .     S
Br111  C136    1.921   .     S
Br112  C137    1.922   .     S
C113   C131    1.422   .     S
C113   O156    1.289   .     A
C113   O153    1.290   .     A
C114   H148    1.083   .     S
C114   C130    1.398   .     A
C114   C8      1.369   1_655 S
C115   C130    1.397   .     A
C115   H149    1.083   .     S
C115   C30     1.369   1_655 S
C116   H150    1.083   .     S
C116   C131    1.397   .     A
C117   C128    1.393   .     A
C117   H143    1.084   .     S
C117   C121    1.381   .     A
C118   C129    1.397   .     A
C118   C122    1.380   .     A
C118   H144    1.084   .     S
C119   H145    1.084   .     S
C119   C129    1.398   .     A
C119   C123    1.383   .     A
C120   C125    1.380   .     A
C120   C128    1.393   .     A
C120   H146    1.084   .     S
C121   C126    1.410   .     A
C121   F139    1.357   .     S
C122   F140    1.355   .     S
C122   C127    1.397   .     A
C123   C127    1.399   .     A
C123   F141    1.358   .     S
C124   C130    1.422   .     S
C124   O155    1.289   .     A
C124   O154    1.290   .     A
C125   C126    1.410   .     A
C125   F142    1.358   .     S
C126   C132    1.455   .     S
C127   C133    1.427   .     S
C128   C615    1.438   1_554 S
C129   C614    1.438   .     S
C131   C138    1.397   .     A
C132   O160    1.298   .     A
C132   O157    1.298   .     A
C133   O159    1.289   .     A
C133   O158    1.293   .     A
C134   N152    1.372   .     A
C134   C461    1.422   1_545 S
C135   N151    1.373   .     A
C135   C298    1.423   .     S
C136   N152    1.372   .     A
C136   C459    1.423   1_545 S
C137   N151    1.371   .     A
C137   C296    1.422   .     S
C138   H147    1.083   .     S
N151   Zn161   2.025   .     S
N152   Zn162   2.025   .     S
O153   Zn161   2.002   .     S
O154   Zn162   2.002   .     S
O155   Zn161   2.001   .     S
O156   Zn162   2.001   .     S
O157   Zn161   2.004   .     S
O158   Zn162   2.004   .     S
O159   Zn161   1.999   .     S
O160   Zn162   1.999   .     S
Br163  C188    1.914   .     S
Br164  C189    1.920   .     S
Br165  C190    1.921   .     S
Br166  C191    1.922   .     S
C167   C185    1.422   .     S
C167   O210    1.289   .     A
C167   O207    1.290   .     A
C168   H202    1.083   .     S
C168   C184    1.398   .     A
C168   C224    1.369   .     S
C169   C184    1.397   .     A
C169   H203    1.083   .     S
C169   C246    1.369   .     S
C170   H204    1.083   .     S
C170   C185    1.397   .     A
C170   C276    1.369   1_455 S
C171   C182    1.393   .     A
C171   H197    1.084   .     S
C171   C175    1.381   .     A
C172   C183    1.397   .     A
C172   C176    1.380   .     A
C172   H198    1.084   .     S
C173   H199    1.084   .     S
C173   C183    1.398   .     A
C173   C177    1.383   .     A
C174   C179    1.380   .     A
C174   C182    1.393   .     A
C174   H200    1.084   .     S
C175   C180    1.410   .     A
C175   F193    1.357   .     S
C176   F194    1.355   .     S
C176   C181    1.397   .     A
C177   C181    1.399   .     A
C177   F195    1.358   .     S
C178   C184    1.422   .     S
C178   O209    1.289   .     A
C178   O208    1.290   .     A
C179   C180    1.410   .     A
C179   F196    1.358   .     S
C180   C186    1.455   .     S
C181   C187    1.427   .     S
C182   C669    1.438   1_554 S
C183   C668    1.438   .     S
C185   C192    1.397   .     A
C186   O214    1.298   .     A
C186   O211    1.298   .     A
C187   O213    1.289   .     A
C187   O212    1.293   .     A
C188   N206    1.372   .     A
C189   N205    1.373   .     A
C189   C352    1.423   .     S
C190   N206    1.372   .     A
C191   N205    1.371   .     A
C191   C350    1.422   .     S
C192   H201    1.083   .     S
C192   C277    1.369   1_455 S
N205   Zn215   2.025   .     S
N206   Zn216   2.025   .     S
O207   Zn215   2.002   .     S
O208   Zn216   2.002   .     S
O209   Zn215   2.001   .     S
O210   Zn216   2.001   .     S
O211   Zn215   2.004   .     S
O212   Zn216   2.004   .     S
O213   Zn215   1.999   .     S
O214   Zn216   1.999   .     S
Br217  C242    1.914   .     S
Br218  C243    1.920   .     S
Br219  C244    1.921   .     S
Br220  C245    1.922   .     S
C221   C239    1.422   .     S
C221   O264    1.289   .     A
C221   O261    1.290   .     A
C222   H256    1.083   .     S
C222   C238    1.398   .     A
C222   C278    1.369   .     S
C223   C238    1.397   .     A
C223   H257    1.083   .     S
C223   C300    1.369   .     S
C224   H258    1.083   .     S
C224   C239    1.397   .     A
C225   C236    1.393   .     A
C225   H251    1.084   .     S
C225   C229    1.381   .     A
C226   C237    1.397   .     A
C226   C230    1.380   .     A
C226   H252    1.084   .     S
C227   H253    1.084   .     S
C227   C237    1.398   .     A
C227   C231    1.383   .     A
C228   C233    1.380   .     A
C228   C236    1.393   .     A
C228   H254    1.084   .     S
C229   C234    1.410   .     A
C229   F247    1.357   .     S
C230   F248    1.355   .     S
C230   C235    1.397   .     A
C231   C235    1.399   .     A
C231   F249    1.358   .     S
C232   C238    1.422   .     S
C232   O263    1.289   .     A
C232   O262    1.290   .     A
C233   C234    1.410   .     A
C233   F250    1.358   .     S
C234   C240    1.455   .     S
C235   C241    1.427   .     S
C236   C723    1.438   1_554 S
C237   C722    1.438   .     S
C239   C246    1.397   .     A
C240   O268    1.298   .     A
C240   O265    1.298   .     A
C241   O267    1.289   .     A
C241   O266    1.293   .     A
C242   N260    1.372   .     A
C243   N259    1.373   .     A
C243   C406    1.423   .     S
C244   N260    1.372   .     A
C245   N259    1.371   .     A
C245   C404    1.422   .     S
C246   H255    1.083   .     S
N259   Zn269   2.025   .     S
N260   Zn270   2.025   .     S
O261   Zn269   2.002   .     S
O262   Zn270   2.002   .     S
O263   Zn269   2.001   .     S
O264   Zn270   2.001   .     S
O265   Zn269   2.004   .     S
O266   Zn270   2.004   .     S
O267   Zn269   1.999   .     S
O268   Zn270   1.999   .     S
Br271  C296    1.914   .     S
Br272  C297    1.920   .     S
Br273  C298    1.921   .     S
Br274  C299    1.922   .     S
C275   C293    1.422   .     S
C275   O318    1.289   .     A
C275   O315    1.290   .     A
C276   H310    1.083   .     S
C276   C292    1.398   .     A
C276   C170    1.369   1_655 S
C277   C292    1.397   .     A
C277   H311    1.083   .     S
C277   C192    1.369   1_655 S
C278   H312    1.083   .     S
C278   C293    1.397   .     A
C279   C290    1.393   .     A
C279   H305    1.084   .     S
C279   C283    1.381   .     A
C280   C291    1.397   .     A
C280   C284    1.380   .     A
C280   H306    1.084   .     S
C281   H307    1.084   .     S
C281   C291    1.398   .     A
C281   C285    1.383   .     A
C282   C287    1.380   .     A
C282   C290    1.393   .     A
C282   H308    1.084   .     S
C283   C288    1.410   .     A
C283   F301    1.357   .     S
C284   F302    1.355   .     S
C284   C289    1.397   .     A
C285   C289    1.399   .     A
C285   F303    1.358   .     S
C286   C292    1.422   .     S
C286   O317    1.289   .     A
C286   O316    1.290   .     A
C287   C288    1.410   .     A
C287   F304    1.358   .     S
C288   C294    1.455   .     S
C289   C295    1.427   .     S
C290   C777    1.438   1_554 S
C291   C776    1.438   .     S
C293   C300    1.397   .     A
C294   O322    1.298   .     A
C294   O319    1.298   .     A
C295   O321    1.289   .     A
C295   O320    1.293   .     A
C296   N314    1.372   .     A
C297   N313    1.373   .     A
C297   C460    1.423   .     S
C298   N314    1.372   .     A
C299   N313    1.371   .     A
C299   C458    1.422   .     S
C300   H309    1.083   .     S
N313   Zn323   2.025   .     S
N314   Zn324   2.025   .     S
O315   Zn323   2.002   .     S
O316   Zn324   2.002   .     S
O317   Zn323   2.001   .     S
O318   Zn324   2.001   .     S
O319   Zn323   2.004   .     S
O320   Zn324   2.004   .     S
O321   Zn323   1.999   .     S
O322   Zn324   1.999   .     S
Br325  C350    1.914   .     S
Br326  C351    1.920   .     S
Br327  C352    1.921   .     S
Br328  C353    1.922   .     S
C329   C347    1.422   .     S
C329   O372    1.289   .     A
C329   O369    1.290   .     A
C330   H364    1.083   .     S
C330   C346    1.398   .     A
C330   C386    1.369   .     S
C331   C346    1.397   .     A
C331   H365    1.083   .     S
C331   C408    1.369   .     S
C332   H366    1.083   .     S
C332   C347    1.397   .     A
C332   C438    1.369   1_455 S
C333   C344    1.393   .     A
C333   H359    1.084   .     S
C333   C337    1.381   .     A
C334   C345    1.397   .     A
C334   C338    1.380   .     A
C334   H360    1.084   .     S
C335   H361    1.084   .     S
C335   C345    1.398   .     A
C335   C339    1.383   .     A
C336   C341    1.380   .     A
C336   C344    1.393   .     A
C336   H362    1.084   .     S
C337   C342    1.410   .     A
C337   F355    1.357   .     S
C338   F356    1.355   .     S
C338   C343    1.397   .     A
C339   C343    1.399   .     A
C339   F357    1.358   .     S
C340   C346    1.422   .     S
C340   O371    1.289   .     A
C340   O370    1.290   .     A
C341   C342    1.410   .     A
C341   F358    1.358   .     S
C342   C348    1.455   .     S
C343   C349    1.427   .     S
C344   C831    1.438   1_554 S
C345   C830    1.438   .     S
C347   C354    1.397   .     A
C348   O376    1.298   .     A
C348   O373    1.298   .     A
C349   O375    1.289   .     A
C349   O374    1.293   .     A
C350   N368    1.372   .     A
C351   N367    1.373   .     A
C351   C28     1.423   1_565 S
C352   N368    1.372   .     A
C353   N367    1.371   .     A
C353   C26     1.422   1_565 S
C354   H363    1.083   .     S
C354   C439    1.369   1_455 S
N367   Zn377   2.025   .     S
N368   Zn378   2.025   .     S
O369   Zn377   2.002   .     S
O370   Zn378   2.002   .     S
O371   Zn377   2.001   .     S
O372   Zn378   2.001   .     S
O373   Zn377   2.004   .     S
O374   Zn378   2.004   .     S
O375   Zn377   1.999   .     S
O376   Zn378   1.999   .     S
Br379  C404    1.914   .     S
Br380  C405    1.920   .     S
Br381  C406    1.921   .     S
Br382  C407    1.922   .     S
C383   C401    1.422   .     S
C383   O426    1.289   .     A
C383   O423    1.290   .     A
C384   H418    1.083   .     S
C384   C400    1.398   .     A
C384   C440    1.369   .     S
C385   C400    1.397   .     A
C385   H419    1.083   .     S
C385   C462    1.369   .     S
C386   H420    1.083   .     S
C386   C401    1.397   .     A
C387   C398    1.393   .     A
C387   H413    1.084   .     S
C387   C391    1.381   .     A
C388   C399    1.397   .     A
C388   C392    1.380   .     A
C388   H414    1.084   .     S
C389   H415    1.084   .     S
C389   C399    1.398   .     A
C389   C393    1.383   .     A
C390   C395    1.380   .     A
C390   C398    1.393   .     A
C390   H416    1.084   .     S
C391   C396    1.410   .     A
C391   F409    1.357   .     S
C392   F410    1.355   .     S
C392   C397    1.397   .     A
C393   C397    1.399   .     A
C393   F411    1.358   .     S
C394   C400    1.422   .     S
C394   O425    1.289   .     A
C394   O424    1.290   .     A
C395   C396    1.410   .     A
C395   F412    1.358   .     S
C396   C402    1.455   .     S
C397   C403    1.427   .     S
C398   C885    1.438   1_554 S
C399   C884    1.438   .     S
C401   C408    1.397   .     A
C402   O430    1.298   .     A
C402   O427    1.298   .     A
C403   O429    1.289   .     A
C403   O428    1.293   .     A
C404   N422    1.372   .     A
C405   N421    1.373   .     A
C405   C82     1.423   1_565 S
C406   N422    1.372   .     A
C407   N421    1.371   .     A
C407   C80     1.422   1_565 S
C408   H417    1.083   .     S
N421   Zn431   2.025   .     S
N422   Zn432   2.025   .     S
O423   Zn431   2.002   .     S
O424   Zn432   2.002   .     S
O425   Zn431   2.001   .     S
O426   Zn432   2.001   .     S
O427   Zn431   2.004   .     S
O428   Zn432   2.004   .     S
O429   Zn431   1.999   .     S
O430   Zn432   1.999   .     S
Br433  C458    1.914   .     S
Br434  C459    1.920   .     S
Br435  C460    1.921   .     S
Br436  C461    1.922   .     S
C437   C455    1.422   .     S
C437   O480    1.289   .     A
C437   O477    1.290   .     A
C438   H472    1.083   .     S
C438   C454    1.398   .     A
C438   C332    1.369   1_655 S
C439   C454    1.397   .     A
C439   H473    1.083   .     S
C439   C354    1.369   1_655 S
C440   H474    1.083   .     S
C440   C455    1.397   .     A
C441   C452    1.393   .     A
C441   H467    1.084   .     S
C441   C445    1.381   .     A
C442   C453    1.397   .     A
C442   C446    1.380   .     A
C442   H468    1.084   .     S
C443   H469    1.084   .     S
C443   C453    1.398   .     A
C443   C447    1.383   .     A
C444   C449    1.380   .     A
C444   C452    1.393   .     A
C444   H470    1.084   .     S
C445   C450    1.410   .     A
C445   F463    1.357   .     S
C446   F464    1.355   .     S
C446   C451    1.397   .     A
C447   C451    1.399   .     A
C447   F465    1.358   .     S
C448   C454    1.422   .     S
C448   O479    1.289   .     A
C448   O478    1.290   .     A
C449   C450    1.410   .     A
C449   F466    1.358   .     S
C450   C456    1.455   .     S
C451   C457    1.427   .     S
C452   C939    1.438   1_554 S
C453   C938    1.438   .     S
C455   C462    1.397   .     A
C456   O484    1.298   .     A
C456   O481    1.298   .     A
C457   O483    1.289   .     A
C457   O482    1.293   .     A
C458   N476    1.372   .     A
C459   N475    1.373   .     A
C459   C136    1.423   1_565 S
C460   N476    1.372   .     A
C461   N475    1.371   .     A
C461   C134    1.422   1_565 S
C462   H471    1.083   .     S
N475   Zn485   2.025   .     S
N476   Zn486   2.025   .     S
O477   Zn485   2.002   .     S
O478   Zn486   2.002   .     S
O479   Zn485   2.001   .     S
O480   Zn486   2.001   .     S
O481   Zn485   2.004   .     S
O482   Zn486   2.004   .     S
O483   Zn485   1.999   .     S
O484   Zn486   1.999   .     S
Br487  C512    1.914   .     S
Br488  C513    1.920   .     S
Br489  C514    1.921   .     S
Br490  C515    1.922   .     S
C491   C509    1.422   .     S
C491   O534    1.289   .     A
C491   O531    1.290   .     A
C492   H526    1.083   .     S
C492   C508    1.398   .     A
C492   C548    1.369   .     S
C493   C508    1.397   .     A
C493   H527    1.083   .     S
C493   C570    1.369   .     S
C494   H528    1.083   .     S
C494   C509    1.397   .     A
C494   C600    1.369   1_455 S
C495   C506    1.393   .     A
C495   H521    1.084   .     S
C495   C499    1.381   .     A
C496   C507    1.397   .     A
C496   C500    1.380   .     A
C496   H522    1.084   .     S
C497   H523    1.084   .     S
C497   C507    1.398   .     A
C497   C501    1.383   .     A
C498   C503    1.380   .     A
C498   C506    1.393   .     A
C498   H524    1.084   .     S
C499   C504    1.410   .     A
C499   F517    1.357   .     S
C500   F518    1.355   .     S
C500   C505    1.397   .     A
C501   C505    1.399   .     A
C501   F519    1.358   .     S
C502   C508    1.422   .     S
C502   O533    1.289   .     A
C502   O532    1.290   .     A
C503   C504    1.410   .     A
C503   F520    1.358   .     S
C504   C510    1.455   .     S
C505   C511    1.427   .     S
C507   C20     1.438   1_556 S
C509   C516    1.397   .     A
C510   O538    1.298   .     A
C510   O535    1.298   .     A
C511   O537    1.289   .     A
C511   O536    1.293   .     A
C512   N530    1.372   .     A
C512   C839    1.422   1_545 S
C513   N529    1.373   .     A
C513   C676    1.423   .     S
C514   N530    1.372   .     A
C514   C837    1.423   1_545 S
C515   N529    1.371   .     A
C515   C674    1.422   .     S
C516   H525    1.083   .     S
C516   C601    1.369   1_455 S
N529   Zn539   2.025   .     S
N530   Zn540   2.025   .     S
O531   Zn539   2.002   .     S
O532   Zn540   2.002   .     S
O533   Zn539   2.001   .     S
O534   Zn540   2.001   .     S
O535   Zn539   2.004   .     S
O536   Zn540   2.004   .     S
O537   Zn539   1.999   .     S
O538   Zn540   1.999   .     S
Br541  C566    1.914   .     S
Br542  C567    1.920   .     S
Br543  C568    1.921   .     S
Br544  C569    1.922   .     S
C545   C563    1.422   .     S
C545   O588    1.289   .     A
C545   O585    1.290   .     A
C546   H580    1.083   .     S
C546   C562    1.398   .     A
C546   C602    1.369   .     S
C547   C562    1.397   .     A
C547   H581    1.083   .     S
C547   C624    1.369   .     S
C548   H582    1.083   .     S
C548   C563    1.397   .     A
C549   C560    1.393   .     A
C549   H575    1.084   .     S
C549   C553    1.381   .     A
C550   C561    1.397   .     A
C550   C554    1.380   .     A
C550   H576    1.084   .     S
C551   H577    1.084   .     S
C551   C561    1.398   .     A
C551   C555    1.383   .     A
C552   C557    1.380   .     A
C552   C560    1.393   .     A
C552   H578    1.084   .     S
C553   C558    1.410   .     A
C553   F571    1.357   .     S
C554   F572    1.355   .     S
C554   C559    1.397   .     A
C555   C559    1.399   .     A
C555   F573    1.358   .     S
C556   C562    1.422   .     S
C556   O587    1.289   .     A
C556   O586    1.290   .     A
C557   C558    1.410   .     A
C557   F574    1.358   .     S
C558   C564    1.455   .     S
C559   C565    1.427   .     S
C561   C74     1.438   1_556 S
C563   C570    1.397   .     A
C564   O592    1.298   .     A
C564   O589    1.298   .     A
C565   O591    1.289   .     A
C565   O590    1.293   .     A
C566   N584    1.372   .     A
C566   C893    1.422   1_545 S
C567   N583    1.373   .     A
C567   C730    1.423   .     S
C568   N584    1.372   .     A
C568   C891    1.423   1_545 S
C569   N583    1.371   .     A
C569   C728    1.422   .     S
C570   H579    1.083   .     S
N583   Zn593   2.025   .     S
N584   Zn594   2.025   .     S
O585   Zn593   2.002   .     S
O586   Zn594   2.002   .     S
O587   Zn593   2.001   .     S
O588   Zn594   2.001   .     S
O589   Zn593   2.004   .     S
O590   Zn594   2.004   .     S
O591   Zn593   1.999   .     S
O592   Zn594   1.999   .     S
Br595  C620    1.914   .     S
Br596  C621    1.920   .     S
Br597  C622    1.921   .     S
Br598  C623    1.922   .     S
C599   C617    1.422   .     S
C599   O642    1.289   .     A
C599   O639    1.290   .     A
C600   H634    1.083   .     S
C600   C616    1.398   .     A
C600   C494    1.369   1_655 S
C601   C616    1.397   .     A
C601   H635    1.083   .     S
C601   C516    1.369   1_655 S
C602   H636    1.083   .     S
C602   C617    1.397   .     A
C603   C614    1.393   .     A
C603   H629    1.084   .     S
C603   C607    1.381   .     A
C604   C615    1.397   .     A
C604   C608    1.380   .     A
C604   H630    1.084   .     S
C605   H631    1.084   .     S
C605   C615    1.398   .     A
C605   C609    1.383   .     A
C606   C611    1.380   .     A
C606   C614    1.393   .     A
C606   H632    1.084   .     S
C607   C612    1.410   .     A
C607   F625    1.357   .     S
C608   F626    1.355   .     S
C608   C613    1.397   .     A
C609   C613    1.399   .     A
C609   F627    1.358   .     S
C610   C616    1.422   .     S
C610   O641    1.289   .     A
C610   O640    1.290   .     A
C611   C612    1.410   .     A
C611   F628    1.358   .     S
C612   C618    1.455   .     S
C613   C619    1.427   .     S
C615   C128    1.438   1_556 S
C617   C624    1.397   .     A
C618   O646    1.298   .     A
C618   O643    1.298   .     A
C619   O645    1.289   .     A
C619   O644    1.293   .     A
C620   N638    1.372   .     A
C620   C947    1.422   1_545 S
C621   N637    1.373   .     A
C621   C784    1.423   .     S
C622   N638    1.372   .     A
C622   C945    1.423   1_545 S
C623   N637    1.371   .     A
C623   C782    1.422   .     S
C624   H633    1.083   .     S
N637   Zn647   2.025   .     S
N638   Zn648   2.025   .     S
O639   Zn647   2.002   .     S
O640   Zn648   2.002   .     S
O641   Zn647   2.001   .     S
O642   Zn648   2.001   .     S
O643   Zn647   2.004   .     S
O644   Zn648   2.004   .     S
O645   Zn647   1.999   .     S
O646   Zn648   1.999   .     S
Br649  C674    1.914   .     S
Br650  C675    1.920   .     S
Br651  C676    1.921   .     S
Br652  C677    1.922   .     S
C653   C671    1.422   .     S
C653   O696    1.289   .     A
C653   O693    1.290   .     A
C654   H688    1.083   .     S
C654   C670    1.398   .     A
C654   C710    1.369   .     S
C655   C670    1.397   .     A
C655   H689    1.083   .     S
C655   C732    1.369   .     S
C656   H690    1.083   .     S
C656   C671    1.397   .     A
C656   C762    1.369   1_455 S
C657   C668    1.393   .     A
C657   H683    1.084   .     S
C657   C661    1.381   .     A
C658   C669    1.397   .     A
C658   C662    1.380   .     A
C658   H684    1.084   .     S
C659   H685    1.084   .     S
C659   C669    1.398   .     A
C659   C663    1.383   .     A
C660   C665    1.380   .     A
C660   C668    1.393   .     A
C660   H686    1.084   .     S
C661   C666    1.410   .     A
C661   F679    1.357   .     S
C662   F680    1.355   .     S
C662   C667    1.397   .     A
C663   C667    1.399   .     A
C663   F681    1.358   .     S
C664   C670    1.422   .     S
C664   O695    1.289   .     A
C664   O694    1.290   .     A
C665   C666    1.410   .     A
C665   F682    1.358   .     S
C666   C672    1.455   .     S
C667   C673    1.427   .     S
C669   C182    1.438   1_556 S
C671   C678    1.397   .     A
C672   O700    1.298   .     A
C672   O697    1.298   .     A
C673   O699    1.289   .     A
C673   O698    1.293   .     A
C674   N692    1.372   .     A
C675   N691    1.373   .     A
C675   C838    1.423   .     S
C676   N692    1.372   .     A
C677   N691    1.371   .     A
C677   C836    1.422   .     S
C678   H687    1.083   .     S
C678   C763    1.369   1_455 S
N691   Zn701   2.025   .     S
N692   Zn702   2.025   .     S
O693   Zn701   2.002   .     S
O694   Zn702   2.002   .     S
O695   Zn701   2.001   .     S
O696   Zn702   2.001   .     S
O697   Zn701   2.004   .     S
O698   Zn702   2.004   .     S
O699   Zn701   1.999   .     S
O700   Zn702   1.999   .     S
Br703  C728    1.914   .     S
Br704  C729    1.920   .     S
Br705  C730    1.921   .     S
Br706  C731    1.922   .     S
C707   C725    1.422   .     S
C707   O750    1.289   .     A
C707   O747    1.290   .     A
C708   H742    1.083   .     S
C708   C724    1.398   .     A
C708   C764    1.369   .     S
C709   C724    1.397   .     A
C709   H743    1.083   .     S
C709   C786    1.369   .     S
C710   H744    1.083   .     S
C710   C725    1.397   .     A
C711   C722    1.393   .     A
C711   H737    1.084   .     S
C711   C715    1.381   .     A
C712   C723    1.397   .     A
C712   C716    1.380   .     A
C712   H738    1.084   .     S
C713   H739    1.084   .     S
C713   C723    1.398   .     A
C713   C717    1.383   .     A
C714   C719    1.380   .     A
C714   C722    1.393   .     A
C714   H740    1.084   .     S
C715   C720    1.410   .     A
C715   F733    1.357   .     S
C716   F734    1.355   .     S
C716   C721    1.397   .     A
C717   C721    1.399   .     A
C717   F735    1.358   .     S
C718   C724    1.422   .     S
C718   O749    1.289   .     A
C718   O748    1.290   .     A
C719   C720    1.410   .     A
C719   F736    1.358   .     S
C720   C726    1.455   .     S
C721   C727    1.427   .     S
C723   C236    1.438   1_556 S
C725   C732    1.397   .     A
C726   O754    1.298   .     A
C726   O751    1.298   .     A
C727   O753    1.289   .     A
C727   O752    1.293   .     A
C728   N746    1.372   .     A
C729   N745    1.373   .     A
C729   C892    1.423   .     S
C730   N746    1.372   .     A
C731   N745    1.371   .     A
C731   C890    1.422   .     S
C732   H741    1.083   .     S
N745   Zn755   2.025   .     S
N746   Zn756   2.025   .     S
O747   Zn755   2.002   .     S
O748   Zn756   2.002   .     S
O749   Zn755   2.001   .     S
O750   Zn756   2.001   .     S
O751   Zn755   2.004   .     S
O752   Zn756   2.004   .     S
O753   Zn755   1.999   .     S
O754   Zn756   1.999   .     S
Br757  C782    1.914   .     S
Br758  C783    1.920   .     S
Br759  C784    1.921   .     S
Br760  C785    1.922   .     S
C761   C779    1.422   .     S
C761   O804    1.289   .     A
C761   O801    1.290   .     A
C762   H796    1.083   .     S
C762   C778    1.398   .     A
C762   C656    1.369   1_655 S
C763   C778    1.397   .     A
C763   H797    1.083   .     S
C763   C678    1.369   1_655 S
C764   H798    1.083   .     S
C764   C779    1.397   .     A
C765   C776    1.393   .     A
C765   H791    1.084   .     S
C765   C769    1.381   .     A
C766   C777    1.397   .     A
C766   C770    1.380   .     A
C766   H792    1.084   .     S
C767   H793    1.084   .     S
C767   C777    1.398   .     A
C767   C771    1.383   .     A
C768   C773    1.380   .     A
C768   C776    1.393   .     A
C768   H794    1.084   .     S
C769   C774    1.410   .     A
C769   F787    1.357   .     S
C770   F788    1.355   .     S
C770   C775    1.397   .     A
C771   C775    1.399   .     A
C771   F789    1.358   .     S
C772   C778    1.422   .     S
C772   O803    1.289   .     A
C772   O802    1.290   .     A
C773   C774    1.410   .     A
C773   F790    1.358   .     S
C774   C780    1.455   .     S
C775   C781    1.427   .     S
C777   C290    1.438   1_556 S
C779   C786    1.397   .     A
C780   O808    1.298   .     A
C780   O805    1.298   .     A
C781   O807    1.289   .     A
C781   O806    1.293   .     A
C782   N800    1.372   .     A
C783   N799    1.373   .     A
C783   C946    1.423   .     S
C784   N800    1.372   .     A
C785   N799    1.371   .     A
C785   C944    1.422   .     S
C786   H795    1.083   .     S
N799   Zn809   2.025   .     S
N800   Zn810   2.025   .     S
O801   Zn809   2.002   .     S
O802   Zn810   2.002   .     S
O803   Zn809   2.001   .     S
O804   Zn810   2.001   .     S
O805   Zn809   2.004   .     S
O806   Zn810   2.004   .     S
O807   Zn809   1.999   .     S
O808   Zn810   1.999   .     S
Br811  C836    1.914   .     S
Br812  C837    1.920   .     S
Br813  C838    1.921   .     S
Br814  C839    1.922   .     S
C815   C833    1.422   .     S
C815   O858    1.289   .     A
C815   O855    1.290   .     A
C816   H850    1.083   .     S
C816   C832    1.398   .     A
C816   C872    1.369   .     S
C817   C832    1.397   .     A
C817   H851    1.083   .     S
C817   C894    1.369   .     S
C818   H852    1.083   .     S
C818   C833    1.397   .     A
C818   C924    1.369   1_455 S
C819   C830    1.393   .     A
C819   H845    1.084   .     S
C819   C823    1.381   .     A
C820   C831    1.397   .     A
C820   C824    1.380   .     A
C820   H846    1.084   .     S
C821   H847    1.084   .     S
C821   C831    1.398   .     A
C821   C825    1.383   .     A
C822   C827    1.380   .     A
C822   C830    1.393   .     A
C822   H848    1.084   .     S
C823   C828    1.410   .     A
C823   F841    1.357   .     S
C824   F842    1.355   .     S
C824   C829    1.397   .     A
C825   C829    1.399   .     A
C825   F843    1.358   .     S
C826   C832    1.422   .     S
C826   O857    1.289   .     A
C826   O856    1.290   .     A
C827   C828    1.410   .     A
C827   F844    1.358   .     S
C828   C834    1.455   .     S
C829   C835    1.427   .     S
C831   C344    1.438   1_556 S
C833   C840    1.397   .     A
C834   O862    1.298   .     A
C834   O859    1.298   .     A
C835   O861    1.289   .     A
C835   O860    1.293   .     A
C836   N854    1.372   .     A
C837   N853    1.373   .     A
C837   C514    1.423   1_565 S
C838   N854    1.372   .     A
C839   N853    1.371   .     A
C839   C512    1.422   1_565 S
C840   H849    1.083   .     S
C840   C925    1.369   1_455 S
N853   Zn863   2.025   .     S
N854   Zn864   2.025   .     S
O855   Zn863   2.002   .     S
O856   Zn864   2.002   .     S
O857   Zn863   2.001   .     S
O858   Zn864   2.001   .     S
O859   Zn863   2.004   .     S
O860   Zn864   2.004   .     S
O861   Zn863   1.999   .     S
O862   Zn864   1.999   .     S
Br865  C890    1.914   .     S
Br866  C891    1.920   .     S
Br867  C892    1.921   .     S
Br868  C893    1.922   .     S
C869   C887    1.422   .     S
C869   O912    1.289   .     A
C869   O909    1.290   .     A
C870   H904    1.083   .     S
C870   C886    1.398   .     A
C870   C926    1.369   .     S
C871   C886    1.397   .     A
C871   H905    1.083   .     S
C871   C948    1.369   .     S
C872   H906    1.083   .     S
C872   C887    1.397   .     A
C873   C884    1.393   .     A
C873   H899    1.084   .     S
C873   C877    1.381   .     A
C874   C885    1.397   .     A
C874   C878    1.380   .     A
C874   H900    1.084   .     S
C875   H901    1.084   .     S
C875   C885    1.398   .     A
C875   C879    1.383   .     A
C876   C881    1.380   .     A
C876   C884    1.393   .     A
C876   H902    1.084   .     S
C877   C882    1.410   .     A
C877   F895    1.357   .     S
C878   F896    1.355   .     S
C878   C883    1.397   .     A
C879   C883    1.399   .     A
C879   F897    1.358   .     S
C880   C886    1.422   .     S
C880   O911    1.289   .     A
C880   O910    1.290   .     A
C881   C882    1.410   .     A
C881   F898    1.358   .     S
C882   C888    1.455   .     S
C883   C889    1.427   .     S
C885   C398    1.438   1_556 S
C887   C894    1.397   .     A
C888   O916    1.298   .     A
C888   O913    1.298   .     A
C889   O915    1.289   .     A
C889   O914    1.293   .     A
C890   N908    1.372   .     A
C891   N907    1.373   .     A
C891   C568    1.423   1_565 S
C892   N908    1.372   .     A
C893   N907    1.371   .     A
C893   C566    1.422   1_565 S
C894   H903    1.083   .     S
N907   Zn917   2.025   .     S
N908   Zn918   2.025   .     S
O909   Zn917   2.002   .     S
O910   Zn918   2.002   .     S
O911   Zn917   2.001   .     S
O912   Zn918   2.001   .     S
O913   Zn917   2.004   .     S
O914   Zn918   2.004   .     S
O915   Zn917   1.999   .     S
O916   Zn918   1.999   .     S
Br919  C944    1.914   .     S
Br920  C945    1.920   .     S
Br921  C946    1.921   .     S
Br922  C947    1.922   .     S
C923   C941    1.422   .     S
C923   O966    1.289   .     A
C923   O963    1.290   .     A
C924   H958    1.083   .     S
C924   C940    1.398   .     A
C924   C818    1.369   1_655 S
C925   C940    1.397   .     A
C925   H959    1.083   .     S
C925   C840    1.369   1_655 S
C926   H960    1.083   .     S
C926   C941    1.397   .     A
C927   C938    1.393   .     A
C927   H953    1.084   .     S
C927   C931    1.381   .     A
C928   C939    1.397   .     A
C928   C932    1.380   .     A
C928   H954    1.084   .     S
C929   H955    1.084   .     S
C929   C939    1.398   .     A
C929   C933    1.383   .     A
C930   C935    1.380   .     A
C930   C938    1.393   .     A
C930   H956    1.084   .     S
C931   C936    1.410   .     A
C931   F949    1.357   .     S
C932   F950    1.355   .     S
C932   C937    1.397   .     A
C933   C937    1.399   .     A
C933   F951    1.358   .     S
C934   C940    1.422   .     S
C934   O965    1.289   .     A
C934   O964    1.290   .     A
C935   C936    1.410   .     A
C935   F952    1.358   .     S
C936   C942    1.455   .     S
C937   C943    1.427   .     S
C939   C452    1.438   1_556 S
C941   C948    1.397   .     A
C942   O970    1.298   .     A
C942   O967    1.298   .     A
C943   O969    1.289   .     A
C943   O968    1.293   .     A
C944   N962    1.372   .     A
C945   N961    1.373   .     A
C945   C622    1.423   1_565 S
C946   N962    1.372   .     A
C947   N961    1.371   .     A
C947   C620    1.422   1_565 S
C948   H957    1.083   .     S
N961   Zn971   2.025   .     S
N962   Zn972   2.025   .     S
O963   Zn971   2.002   .     S
O964   Zn972   2.002   .     S
O965   Zn971   2.001   .     S
O966   Zn972   2.001   .     S
O967   Zn971   2.004   .     S
O968   Zn972   2.004   .     S
O969   Zn971   1.999   .     S
O970   Zn972   1.999   .     S
