data_str_m2_o1_o16_pcu_sym.109
_audit_creation_date              2020-01-03
_audit_creation_method            'Materials Studio'
_symmetry_space_group_name_H-M    'P1'
_symmetry_Int_Tables_number       1
_symmetry_cell_setting            triclinic
loop_
_symmetry_equiv_pos_as_xyz
  x,y,z
_cell_length_a                    29.1264
_cell_length_b                    32.5731
_cell_length_c                    27.1622
_cell_angle_alpha                 91.8620
_cell_angle_beta                  74.7063
_cell_angle_gamma                 87.2421
loop_
_atom_site_label
_atom_site_type_symbol
_atom_site_fract_x
_atom_site_fract_y
_atom_site_fract_z
_atom_site_U_iso_or_equiv
_atom_site_adp_type
_atom_site_occupancy
C1     C     0.16644   0.24587   0.24868   0.00000  Uiso   1.00
C2     C     0.14751   0.18405   0.48799   0.00000  Uiso   1.00
C3     C     0.16156   0.18618   0.43425   0.00000  Uiso   1.00
C4     C     0.18230   0.17744   0.01492   0.00000  Uiso   1.00
C5     C     0.23058   0.17972   0.48838   0.00000  Uiso   1.00
C6     C     0.24284   0.19431   0.43842   0.00000  Uiso   1.00
C7     C     0.20737   0.19969   0.41234   0.00000  Uiso   1.00
C8     C     0.17126   0.16432   0.06568   0.00000  Uiso   1.00
C9     C     0.25365   0.17025   0.06614   0.00000  Uiso   1.00
C10    C     0.12756   0.17812   0.40626   0.00000  Uiso   1.00
C11    C     0.21017   0.30992   0.24543   0.00000  Uiso   1.00
C12    C     0.14139   0.16986   0.34962   0.00000  Uiso   1.00
C13    C     0.21144   0.01912   0.24343   0.00000  Uiso   1.00
C14    C     0.16856   0.04270   0.25060   0.00000  Uiso   1.00
C15    C     0.12547   0.02280   0.26048   0.00000  Uiso   1.00
C16    C     0.12807   0.31540   0.24090   0.00000  Uiso   1.00
C17    C     0.16751   0.29077   0.24592   0.00000  Uiso   1.00
C18    C     0.30149   0.19941   0.26868   0.00000  Uiso   1.00
C19    C     0.01717   0.20049   0.26790   0.00000  Uiso   1.00
C20    C     0.03125   0.13342   0.23152   0.00000  Uiso   1.00
C21    C     0.31587   0.13339   0.23054   0.00000  Uiso   1.00
C22    C     0.16735   0.08754   0.25078   0.00000  Uiso   1.00
C23    C     0.19192   0.16635   0.15040   0.00000  Uiso   1.00
C24    C     0.26529   0.16781   0.01280   0.00000  Uiso   1.00
C25    C     0.20578   0.16691   0.09373   0.00000  Uiso   1.00
C26    C     0.07914   0.17800   0.43427   0.00000  Uiso   1.00
C27    C     0.06552   0.19114   0.48560   0.00000  Uiso   1.00
C28    C     0.09934   0.19230   0.01292   0.00000  Uiso   1.00
Cu29   Cu    0.11978   0.16666   0.25000   0.00000  Uiso   1.00
Cu30   Cu    0.21355   0.16667   0.25000   0.00000  Uiso   1.00
H31    H     0.24500   0.03339   0.23913   0.00000  Uiso   1.00
H32    H     0.27728   0.22571   0.28342   0.00000  Uiso   1.00
H33    H     0.05509   0.10740   0.21411   0.00000  Uiso   1.00
H34    H     0.08811   0.20067   0.05308   0.00000  Uiso   1.00
H35    H     0.02856   0.19762   0.00539   0.00000  Uiso   1.00
H36    H     0.24279   0.29223   0.24475   0.00000  Uiso   1.00
N37    N     0.04931   0.16666   0.24998   0.00000  Uiso   1.00
N38    N     0.28402   0.16669   0.24999   0.00000  Uiso   1.00
O39    O     0.12708   0.22678   0.25000   0.00000  Uiso   1.00
O40    O     0.20627   0.22679   0.25000   0.00000  Uiso   1.00
O41    O     0.10775   0.16665   0.32549   0.00000  Uiso   1.00
O42    O     0.18694   0.16666   0.32549   0.00000  Uiso   1.00
O43    O     0.12706   0.10654   0.24999   0.00000  Uiso   1.00
O44    O     0.20625   0.10655   0.24999   0.00000  Uiso   1.00
O45    O     0.14640   0.16667   0.17451   0.00000  Uiso   1.00
O46    O     0.22559   0.16668   0.17451   0.00000  Uiso   1.00
C47    C     0.28940   0.18545   0.09062   0.00000  Uiso   1.00
C48    C     0.28670   0.22732   0.10600   0.00000  Uiso   1.00
C49    C     0.31815   0.24201   0.13236   0.00000  Uiso   1.00
C50    C     0.01942   0.21511   0.14284   0.00000  Uiso   1.00
C51    C     0.02206   0.17353   0.12750   0.00000  Uiso   1.00
C52    C     0.32376   0.15852   0.10176   0.00000  Uiso   1.00
H53    H     0.25967   0.24831   0.09835   0.00000  Uiso   1.00
H54    H     0.31546   0.27411   0.14482   0.00000  Uiso   1.00
H55    H     0.04419   0.22631   0.16287   0.00000  Uiso   1.00
H56    H     0.04828   0.15264   0.13607   0.00000  Uiso   1.00
H57    H     0.32549   0.12597   0.09152   0.00000  Uiso   1.00
C58    C     0.09270   0.03297   0.31178   0.00000  Uiso   1.00
C59    C     0.10515   0.01945   0.35551   0.00000  Uiso   1.00
C60    C     0.07703   0.03192   0.40433   0.00000  Uiso   1.00
C61    C     0.03636   0.05805   0.40998   0.00000  Uiso   1.00
C62    C     0.02360   0.07153   0.36677   0.00000  Uiso   1.00
C63    C     0.05160   0.05897   0.31794   0.00000  Uiso   1.00
H64    H     0.13701   0.33305   0.35176   0.00000  Uiso   1.00
H65    H     0.08688   0.02145   0.43776   0.00000  Uiso   1.00
H66    H     0.01458   0.06765   0.44776   0.00000  Uiso   1.00
H67    H     0.32524   0.09158   0.37114   0.00000  Uiso   1.00
H68    H     0.04092   0.06924   0.28525   0.00000  Uiso   1.00
C69    C     0.10988   0.30868   0.19445   0.00000  Uiso   1.00
C70    C     0.13399   0.28091   0.15358   0.00000  Uiso   1.00
C71    C     0.11936   0.27798   0.10864   0.00000  Uiso   1.00
C72    C     0.08072   0.30269   0.10325   0.00000  Uiso   1.00
C73    C     0.05662   0.33045   0.14284   0.00000  Uiso   1.00
C74    C     0.07117   0.00031   0.18782   0.00000  Uiso   1.00
H75    H     0.16526   0.26229   0.15503   0.00000  Uiso   1.00
H76    H     0.13847   0.25685   0.07765   0.00000  Uiso   1.00
H77    H     0.06947   0.30031   0.06838   0.00000  Uiso   1.00
H78    H     0.02668   0.01639   0.13863   0.00000  Uiso   1.00
H79    H     0.05203   0.02247   0.21735   0.00000  Uiso   1.00
C80    C     0.02849   0.24004   0.28899   0.00000  Uiso   1.00
C81    C     0.03443   0.24169   0.33840   0.00000  Uiso   1.00
C82    C     0.01954   0.27671   0.37068   0.00000  Uiso   1.00
C83    C     0.33063   0.31022   0.35403   0.00000  Uiso   1.00
C84    C     0.32872   0.31088   0.30335   0.00000  Uiso   1.00
C85    C     0.01213   0.27639   0.27055   0.00000  Uiso   1.00
H86    H     0.04393   0.21445   0.35456   0.00000  Uiso   1.00
H87    H     0.02156   0.27648   0.40990   0.00000  Uiso   1.00
H88    H     0.31414   0.00197   0.38069   0.00000  Uiso   1.00
H89    H     0.31201   0.00388   0.29019   0.00000  Uiso   1.00
H90    H     0.00563   0.27600   0.23312   0.00000  Uiso   1.00
O91    O     0.30285   0.10002   0.20632   0.00000  Uiso   1.00
H92    H     0.27916   0.11031   0.18890   0.00000  Uiso   1.00
O93    O     0.28810   0.20576   0.41534   0.00000  Uiso   1.00
H94    H     0.30266   0.21569   0.44229   0.00000  Uiso   1.00
O95    O     0.30772   0.14954   0.48416   0.00000  Uiso   1.00
H96    H     0.32301   0.13367   0.00663   0.00000  Uiso   1.00
O97    O     0.12921   0.14569   0.08468   0.00000  Uiso   1.00
H98    H     0.13523   0.12333   0.10650   0.00000  Uiso   1.00
O99    O     0.04470   0.16448   0.41299   0.00000  Uiso   1.00
H100   H     0.05742   0.13795   0.39480   0.00000  Uiso   1.00
O101   O     0.21386   0.22432   0.37086   0.00000  Uiso   1.00
H102   H     0.24231   0.24040   0.36842   0.00000  Uiso   1.00
C103   C     0.49977   0.24587   0.24868   0.00000  Uiso   1.00
C104   C     0.48084   0.18405   0.48799   0.00000  Uiso   1.00
C105   C     0.49489   0.18618   0.43425   0.00000  Uiso   1.00
C106   C     0.51564   0.17744   0.01492   0.00000  Uiso   1.00
C107   C     0.56391   0.17972   0.48838   0.00000  Uiso   1.00
C108   C     0.57618   0.19431   0.43842   0.00000  Uiso   1.00
C109   C     0.54070   0.19969   0.41234   0.00000  Uiso   1.00
C110   C     0.50459   0.16432   0.06568   0.00000  Uiso   1.00
C111   C     0.58699   0.17025   0.06614   0.00000  Uiso   1.00
C112   C     0.46089   0.17812   0.40626   0.00000  Uiso   1.00
C113   C     0.54350   0.30992   0.24543   0.00000  Uiso   1.00
C114   C     0.47473   0.16986   0.34962   0.00000  Uiso   1.00
C115   C     0.54477   0.01912   0.24343   0.00000  Uiso   1.00
C116   C     0.50189   0.04270   0.25060   0.00000  Uiso   1.00
C117   C     0.45881   0.02280   0.26048   0.00000  Uiso   1.00
C118   C     0.46141   0.31540   0.24090   0.00000  Uiso   1.00
C119   C     0.50085   0.29077   0.24592   0.00000  Uiso   1.00
C120   C     0.63483   0.19941   0.26868   0.00000  Uiso   1.00
C121   C     0.35050   0.20049   0.26790   0.00000  Uiso   1.00
C122   C     0.36458   0.13342   0.23152   0.00000  Uiso   1.00
C123   C     0.64920   0.13339   0.23054   0.00000  Uiso   1.00
C124   C     0.50069   0.08754   0.25078   0.00000  Uiso   1.00
C125   C     0.52526   0.16635   0.15040   0.00000  Uiso   1.00
C126   C     0.59862   0.16781   0.01280   0.00000  Uiso   1.00
C127   C     0.53912   0.16691   0.09373   0.00000  Uiso   1.00
C128   C     0.41248   0.17800   0.43427   0.00000  Uiso   1.00
C129   C     0.39885   0.19114   0.48560   0.00000  Uiso   1.00
C130   C     0.43267   0.19230   0.01292   0.00000  Uiso   1.00
Cu131  Cu    0.45311   0.16666   0.25000   0.00000  Uiso   1.00
Cu132  Cu    0.54689   0.16667   0.25000   0.00000  Uiso   1.00
H133   H     0.57834   0.03339   0.23913   0.00000  Uiso   1.00
H134   H     0.61062   0.22571   0.28342   0.00000  Uiso   1.00
H135   H     0.38842   0.10740   0.21411   0.00000  Uiso   1.00
H136   H     0.42144   0.20067   0.05308   0.00000  Uiso   1.00
H137   H     0.36189   0.19762   0.00539   0.00000  Uiso   1.00
H138   H     0.57612   0.29223   0.24475   0.00000  Uiso   1.00
N139   N     0.38265   0.16666   0.24998   0.00000  Uiso   1.00
N140   N     0.61735   0.16669   0.24999   0.00000  Uiso   1.00
O141   O     0.46042   0.22678   0.25000   0.00000  Uiso   1.00
O142   O     0.53961   0.22679   0.25000   0.00000  Uiso   1.00
O143   O     0.44108   0.16665   0.32549   0.00000  Uiso   1.00
O144   O     0.52027   0.16666   0.32549   0.00000  Uiso   1.00
O145   O     0.46039   0.10654   0.24999   0.00000  Uiso   1.00
O146   O     0.53958   0.10655   0.24999   0.00000  Uiso   1.00
O147   O     0.47973   0.16667   0.17451   0.00000  Uiso   1.00
O148   O     0.55892   0.16668   0.17451   0.00000  Uiso   1.00
C149   C     0.62274   0.18545   0.09062   0.00000  Uiso   1.00
C150   C     0.62003   0.22732   0.10600   0.00000  Uiso   1.00
C151   C     0.65149   0.24201   0.13236   0.00000  Uiso   1.00
C152   C     0.35276   0.21511   0.14284   0.00000  Uiso   1.00
C153   C     0.35539   0.17353   0.12750   0.00000  Uiso   1.00
C154   C     0.65710   0.15852   0.10176   0.00000  Uiso   1.00
H155   H     0.59301   0.24831   0.09835   0.00000  Uiso   1.00
H156   H     0.64880   0.27411   0.14482   0.00000  Uiso   1.00
H157   H     0.37753   0.22631   0.16287   0.00000  Uiso   1.00
H158   H     0.38162   0.15264   0.13607   0.00000  Uiso   1.00
H159   H     0.65882   0.12597   0.09152   0.00000  Uiso   1.00
C160   C     0.42603   0.03297   0.31178   0.00000  Uiso   1.00
C161   C     0.43848   0.01945   0.35551   0.00000  Uiso   1.00
C162   C     0.41036   0.03192   0.40433   0.00000  Uiso   1.00
C163   C     0.36969   0.05805   0.40998   0.00000  Uiso   1.00
C164   C     0.35693   0.07153   0.36677   0.00000  Uiso   1.00
C165   C     0.38494   0.05897   0.31794   0.00000  Uiso   1.00
H166   H     0.47034   0.33305   0.35176   0.00000  Uiso   1.00
H167   H     0.42021   0.02145   0.43776   0.00000  Uiso   1.00
H168   H     0.34791   0.06765   0.44776   0.00000  Uiso   1.00
H169   H     0.65857   0.09158   0.37114   0.00000  Uiso   1.00
H170   H     0.37426   0.06924   0.28525   0.00000  Uiso   1.00
C171   C     0.44322   0.30868   0.19445   0.00000  Uiso   1.00
C172   C     0.46732   0.28091   0.15358   0.00000  Uiso   1.00
C173   C     0.45269   0.27798   0.10864   0.00000  Uiso   1.00
C174   C     0.41405   0.30269   0.10325   0.00000  Uiso   1.00
C175   C     0.38995   0.33045   0.14284   0.00000  Uiso   1.00
C176   C     0.40450   0.00031   0.18782   0.00000  Uiso   1.00
H177   H     0.49860   0.26229   0.15503   0.00000  Uiso   1.00
H178   H     0.47181   0.25685   0.07765   0.00000  Uiso   1.00
H179   H     0.40280   0.30031   0.06838   0.00000  Uiso   1.00
H180   H     0.36002   0.01639   0.13863   0.00000  Uiso   1.00
H181   H     0.38536   0.02247   0.21735   0.00000  Uiso   1.00
C182   C     0.36182   0.24004   0.28899   0.00000  Uiso   1.00
C183   C     0.36776   0.24169   0.33840   0.00000  Uiso   1.00
C184   C     0.35287   0.27671   0.37068   0.00000  Uiso   1.00
C185   C     0.66396   0.31022   0.35403   0.00000  Uiso   1.00
C186   C     0.66206   0.31088   0.30335   0.00000  Uiso   1.00
C187   C     0.34546   0.27639   0.27055   0.00000  Uiso   1.00
H188   H     0.37726   0.21445   0.35456   0.00000  Uiso   1.00
H189   H     0.35490   0.27648   0.40990   0.00000  Uiso   1.00
H190   H     0.64747   0.00197   0.38069   0.00000  Uiso   1.00
H191   H     0.64535   0.00388   0.29019   0.00000  Uiso   1.00
H192   H     0.33897   0.27600   0.23312   0.00000  Uiso   1.00
O193   O     0.63618   0.10002   0.20632   0.00000  Uiso   1.00
H194   H     0.61249   0.11031   0.18890   0.00000  Uiso   1.00
O195   O     0.62143   0.20576   0.41534   0.00000  Uiso   1.00
H196   H     0.63600   0.21569   0.44229   0.00000  Uiso   1.00
O197   O     0.64106   0.14954   0.48416   0.00000  Uiso   1.00
H198   H     0.65634   0.13367   0.00663   0.00000  Uiso   1.00
O199   O     0.46254   0.14569   0.08468   0.00000  Uiso   1.00
H200   H     0.46856   0.12333   0.10650   0.00000  Uiso   1.00
O201   O     0.37803   0.16448   0.41299   0.00000  Uiso   1.00
H202   H     0.39076   0.13795   0.39480   0.00000  Uiso   1.00
O203   O     0.54719   0.22432   0.37086   0.00000  Uiso   1.00
H204   H     0.57564   0.24040   0.36842   0.00000  Uiso   1.00
C205   C     0.83311   0.24587   0.24868   0.00000  Uiso   1.00
C206   C     0.81417   0.18405   0.48799   0.00000  Uiso   1.00
C207   C     0.82822   0.18618   0.43425   0.00000  Uiso   1.00
C208   C     0.84897   0.17744   0.01492   0.00000  Uiso   1.00
C209   C     0.89724   0.17972   0.48838   0.00000  Uiso   1.00
C210   C     0.90951   0.19431   0.43842   0.00000  Uiso   1.00
C211   C     0.87403   0.19969   0.41234   0.00000  Uiso   1.00
C212   C     0.83792   0.16432   0.06568   0.00000  Uiso   1.00
C213   C     0.92032   0.17025   0.06614   0.00000  Uiso   1.00
C214   C     0.79422   0.17812   0.40626   0.00000  Uiso   1.00
C215   C     0.87683   0.30992   0.24543   0.00000  Uiso   1.00
C216   C     0.80806   0.16986   0.34962   0.00000  Uiso   1.00
C217   C     0.87811   0.01912   0.24343   0.00000  Uiso   1.00
C218   C     0.83523   0.04270   0.25060   0.00000  Uiso   1.00
C219   C     0.79214   0.02280   0.26048   0.00000  Uiso   1.00
C220   C     0.79474   0.31540   0.24090   0.00000  Uiso   1.00
C221   C     0.83418   0.29077   0.24592   0.00000  Uiso   1.00
C222   C     0.96816   0.19941   0.26868   0.00000  Uiso   1.00
C223   C     0.68384   0.20049   0.26790   0.00000  Uiso   1.00
C224   C     0.69791   0.13342   0.23152   0.00000  Uiso   1.00
C225   C     0.98253   0.13339   0.23054   0.00000  Uiso   1.00
C226   C     0.83402   0.08754   0.25078   0.00000  Uiso   1.00
C227   C     0.85859   0.16635   0.15040   0.00000  Uiso   1.00
C228   C     0.93195   0.16781   0.01280   0.00000  Uiso   1.00
C229   C     0.87245   0.16691   0.09373   0.00000  Uiso   1.00
C230   C     0.74581   0.17800   0.43427   0.00000  Uiso   1.00
C231   C     0.73218   0.19114   0.48560   0.00000  Uiso   1.00
C232   C     0.76601   0.19230   0.01292   0.00000  Uiso   1.00
Cu233  Cu    0.78645   0.16666   0.25000   0.00000  Uiso   1.00
Cu234  Cu    0.88022   0.16667   0.25000   0.00000  Uiso   1.00
H235   H     0.91167   0.03339   0.23913   0.00000  Uiso   1.00
H236   H     0.94395   0.22571   0.28342   0.00000  Uiso   1.00
H237   H     0.72175   0.10740   0.21411   0.00000  Uiso   1.00
H238   H     0.75478   0.20067   0.05308   0.00000  Uiso   1.00
H239   H     0.69522   0.19762   0.00539   0.00000  Uiso   1.00
H240   H     0.90945   0.29223   0.24475   0.00000  Uiso   1.00
N241   N     0.71598   0.16666   0.24998   0.00000  Uiso   1.00
N242   N     0.95069   0.16669   0.24999   0.00000  Uiso   1.00
O243   O     0.79375   0.22678   0.25000   0.00000  Uiso   1.00
O244   O     0.87294   0.22679   0.25000   0.00000  Uiso   1.00
O245   O     0.77441   0.16665   0.32549   0.00000  Uiso   1.00
O246   O     0.85360   0.16666   0.32549   0.00000  Uiso   1.00
O247   O     0.79373   0.10654   0.24999   0.00000  Uiso   1.00
O248   O     0.87292   0.10655   0.24999   0.00000  Uiso   1.00
O249   O     0.81306   0.16667   0.17451   0.00000  Uiso   1.00
O250   O     0.89225   0.16668   0.17451   0.00000  Uiso   1.00
C251   C     0.95607   0.18545   0.09062   0.00000  Uiso   1.00
C252   C     0.95336   0.22732   0.10600   0.00000  Uiso   1.00
C253   C     0.98482   0.24201   0.13236   0.00000  Uiso   1.00
C254   C     0.68609   0.21511   0.14284   0.00000  Uiso   1.00
C255   C     0.68873   0.17353   0.12750   0.00000  Uiso   1.00
C256   C     0.99043   0.15852   0.10176   0.00000  Uiso   1.00
H257   H     0.92634   0.24831   0.09835   0.00000  Uiso   1.00
H258   H     0.98213   0.27411   0.14482   0.00000  Uiso   1.00
H259   H     0.71086   0.22631   0.16287   0.00000  Uiso   1.00
H260   H     0.71495   0.15264   0.13607   0.00000  Uiso   1.00
H261   H     0.99215   0.12597   0.09152   0.00000  Uiso   1.00
C262   C     0.75937   0.03297   0.31178   0.00000  Uiso   1.00
C263   C     0.77182   0.01945   0.35551   0.00000  Uiso   1.00
C264   C     0.74370   0.03192   0.40433   0.00000  Uiso   1.00
C265   C     0.70302   0.05805   0.40998   0.00000  Uiso   1.00
C266   C     0.69027   0.07153   0.36677   0.00000  Uiso   1.00
C267   C     0.71827   0.05897   0.31794   0.00000  Uiso   1.00
H268   H     0.80367   0.33305   0.35176   0.00000  Uiso   1.00
H269   H     0.75355   0.02145   0.43776   0.00000  Uiso   1.00
H270   H     0.68125   0.06765   0.44776   0.00000  Uiso   1.00
H271   H     0.99191   0.09158   0.37114   0.00000  Uiso   1.00
H272   H     0.70759   0.06924   0.28525   0.00000  Uiso   1.00
C273   C     0.77655   0.30868   0.19445   0.00000  Uiso   1.00
C274   C     0.80066   0.28091   0.15358   0.00000  Uiso   1.00
C275   C     0.78602   0.27798   0.10864   0.00000  Uiso   1.00
C276   C     0.74739   0.30269   0.10325   0.00000  Uiso   1.00
C277   C     0.72328   0.33045   0.14284   0.00000  Uiso   1.00
C278   C     0.73784   0.00031   0.18782   0.00000  Uiso   1.00
H279   H     0.83193   0.26229   0.15503   0.00000  Uiso   1.00
H280   H     0.80514   0.25685   0.07765   0.00000  Uiso   1.00
H281   H     0.73614   0.30031   0.06838   0.00000  Uiso   1.00
H282   H     0.69335   0.01639   0.13863   0.00000  Uiso   1.00
H283   H     0.71870   0.02247   0.21735   0.00000  Uiso   1.00
C284   C     0.69516   0.24004   0.28899   0.00000  Uiso   1.00
C285   C     0.70109   0.24169   0.33840   0.00000  Uiso   1.00
C286   C     0.68620   0.27671   0.37068   0.00000  Uiso   1.00
C287   C     0.99729   0.31022   0.35403   0.00000  Uiso   1.00
C288   C     0.99539   0.31088   0.30335   0.00000  Uiso   1.00
C289   C     0.67879   0.27639   0.27055   0.00000  Uiso   1.00
H290   H     0.71060   0.21445   0.35456   0.00000  Uiso   1.00
H291   H     0.68823   0.27648   0.40990   0.00000  Uiso   1.00
H292   H     0.98081   0.00197   0.38069   0.00000  Uiso   1.00
H293   H     0.97868   0.00388   0.29019   0.00000  Uiso   1.00
H294   H     0.67230   0.27600   0.23312   0.00000  Uiso   1.00
O295   O     0.96952   0.10002   0.20632   0.00000  Uiso   1.00
H296   H     0.94583   0.11031   0.18890   0.00000  Uiso   1.00
O297   O     0.95477   0.20576   0.41534   0.00000  Uiso   1.00
H298   H     0.96933   0.21569   0.44229   0.00000  Uiso   1.00
O299   O     0.97439   0.14954   0.48416   0.00000  Uiso   1.00
H300   H     0.98968   0.13367   0.00663   0.00000  Uiso   1.00
O301   O     0.79587   0.14569   0.08468   0.00000  Uiso   1.00
H302   H     0.80189   0.12333   0.10650   0.00000  Uiso   1.00
O303   O     0.71137   0.16448   0.41299   0.00000  Uiso   1.00
H304   H     0.72409   0.13795   0.39480   0.00000  Uiso   1.00
O305   O     0.88052   0.22432   0.37086   0.00000  Uiso   1.00
H306   H     0.90898   0.24040   0.36842   0.00000  Uiso   1.00
C307   C     0.16644   0.57920   0.24868   0.00000  Uiso   1.00
C308   C     0.14751   0.51738   0.48799   0.00000  Uiso   1.00
C309   C     0.16156   0.51951   0.43425   0.00000  Uiso   1.00
C310   C     0.18230   0.51078   0.01492   0.00000  Uiso   1.00
C311   C     0.23058   0.51305   0.48838   0.00000  Uiso   1.00
C312   C     0.24284   0.52765   0.43842   0.00000  Uiso   1.00
C313   C     0.20737   0.53302   0.41234   0.00000  Uiso   1.00
C314   C     0.17126   0.49765   0.06568   0.00000  Uiso   1.00
C315   C     0.25365   0.50358   0.06614   0.00000  Uiso   1.00
C316   C     0.12756   0.51146   0.40626   0.00000  Uiso   1.00
C317   C     0.21017   0.64325   0.24543   0.00000  Uiso   1.00
C318   C     0.14139   0.50319   0.34962   0.00000  Uiso   1.00
C319   C     0.21144   0.35246   0.24343   0.00000  Uiso   1.00
C320   C     0.16856   0.37603   0.25060   0.00000  Uiso   1.00
C321   C     0.12547   0.35613   0.26048   0.00000  Uiso   1.00
C322   C     0.12807   0.64873   0.24090   0.00000  Uiso   1.00
C323   C     0.16751   0.62410   0.24592   0.00000  Uiso   1.00
C324   C     0.30149   0.53275   0.26868   0.00000  Uiso   1.00
C325   C     0.01717   0.53382   0.26790   0.00000  Uiso   1.00
C326   C     0.03125   0.46675   0.23152   0.00000  Uiso   1.00
C327   C     0.31587   0.46672   0.23054   0.00000  Uiso   1.00
C328   C     0.16735   0.42087   0.25078   0.00000  Uiso   1.00
C329   C     0.19192   0.49968   0.15040   0.00000  Uiso   1.00
C330   C     0.26529   0.50114   0.01280   0.00000  Uiso   1.00
C331   C     0.20578   0.50025   0.09373   0.00000  Uiso   1.00
C332   C     0.07914   0.51133   0.43427   0.00000  Uiso   1.00
C333   C     0.06552   0.52448   0.48560   0.00000  Uiso   1.00
C334   C     0.09934   0.52563   0.01292   0.00000  Uiso   1.00
Cu335  Cu    0.11978   0.49999   0.25000   0.00000  Uiso   1.00
Cu336  Cu    0.21355   0.50001   0.25000   0.00000  Uiso   1.00
H337   H     0.24500   0.36672   0.23913   0.00000  Uiso   1.00
H338   H     0.27728   0.55905   0.28342   0.00000  Uiso   1.00
H339   H     0.05509   0.44073   0.21411   0.00000  Uiso   1.00
H340   H     0.08811   0.53401   0.05308   0.00000  Uiso   1.00
H341   H     0.02856   0.53096   0.00539   0.00000  Uiso   1.00
H342   H     0.24279   0.62557   0.24475   0.00000  Uiso   1.00
N343   N     0.04931   0.49999   0.24998   0.00000  Uiso   1.00
N344   N     0.28402   0.50002   0.24999   0.00000  Uiso   1.00
O345   O     0.12708   0.56011   0.25000   0.00000  Uiso   1.00
O346   O     0.20627   0.56012   0.25000   0.00000  Uiso   1.00
O347   O     0.10775   0.49998   0.32549   0.00000  Uiso   1.00
O348   O     0.18694   0.49999   0.32549   0.00000  Uiso   1.00
O349   O     0.12706   0.43988   0.24999   0.00000  Uiso   1.00
O350   O     0.20625   0.43989   0.24999   0.00000  Uiso   1.00
O351   O     0.14640   0.50001   0.17451   0.00000  Uiso   1.00
O352   O     0.22559   0.50002   0.17451   0.00000  Uiso   1.00
C353   C     0.28940   0.51878   0.09062   0.00000  Uiso   1.00
C354   C     0.28670   0.56065   0.10600   0.00000  Uiso   1.00
C355   C     0.31815   0.57534   0.13236   0.00000  Uiso   1.00
C356   C     0.01942   0.54845   0.14284   0.00000  Uiso   1.00
C357   C     0.02206   0.50687   0.12750   0.00000  Uiso   1.00
C358   C     0.32376   0.49185   0.10176   0.00000  Uiso   1.00
H359   H     0.25967   0.58164   0.09835   0.00000  Uiso   1.00
H360   H     0.31546   0.60745   0.14482   0.00000  Uiso   1.00
H361   H     0.04419   0.55964   0.16287   0.00000  Uiso   1.00
H362   H     0.04828   0.48598   0.13607   0.00000  Uiso   1.00
H363   H     0.32549   0.45931   0.09152   0.00000  Uiso   1.00
C364   C     0.09270   0.36630   0.31178   0.00000  Uiso   1.00
C365   C     0.10515   0.35278   0.35551   0.00000  Uiso   1.00
C366   C     0.07703   0.36526   0.40433   0.00000  Uiso   1.00
C367   C     0.03636   0.39138   0.40998   0.00000  Uiso   1.00
C368   C     0.02360   0.40486   0.36677   0.00000  Uiso   1.00
C369   C     0.05160   0.39230   0.31794   0.00000  Uiso   1.00
H370   H     0.13701   0.66639   0.35176   0.00000  Uiso   1.00
H371   H     0.08688   0.35478   0.43776   0.00000  Uiso   1.00
H372   H     0.01458   0.40098   0.44776   0.00000  Uiso   1.00
H373   H     0.32524   0.42491   0.37114   0.00000  Uiso   1.00
H374   H     0.04092   0.40258   0.28525   0.00000  Uiso   1.00
C375   C     0.10988   0.64201   0.19445   0.00000  Uiso   1.00
C376   C     0.13399   0.61425   0.15358   0.00000  Uiso   1.00
C377   C     0.11936   0.61132   0.10864   0.00000  Uiso   1.00
C378   C     0.08072   0.63602   0.10325   0.00000  Uiso   1.00
C379   C     0.05662   0.66379   0.14284   0.00000  Uiso   1.00
C380   C     0.07117   0.33364   0.18782   0.00000  Uiso   1.00
H381   H     0.16526   0.59562   0.15503   0.00000  Uiso   1.00
H382   H     0.13847   0.59018   0.07765   0.00000  Uiso   1.00
H383   H     0.06947   0.63365   0.06838   0.00000  Uiso   1.00
H384   H     0.02668   0.34972   0.13863   0.00000  Uiso   1.00
H385   H     0.05203   0.35580   0.21735   0.00000  Uiso   1.00
C386   C     0.02849   0.57338   0.28899   0.00000  Uiso   1.00
C387   C     0.03443   0.57502   0.33840   0.00000  Uiso   1.00
C388   C     0.01954   0.61004   0.37068   0.00000  Uiso   1.00
C389   C     0.33063   0.64356   0.35403   0.00000  Uiso   1.00
C390   C     0.32872   0.64421   0.30335   0.00000  Uiso   1.00
C391   C     0.01213   0.60972   0.27055   0.00000  Uiso   1.00
H392   H     0.04393   0.54778   0.35456   0.00000  Uiso   1.00
H393   H     0.02156   0.60982   0.40990   0.00000  Uiso   1.00
H394   H     0.31414   0.33530   0.38069   0.00000  Uiso   1.00
H395   H     0.31201   0.33721   0.29019   0.00000  Uiso   1.00
H396   H     0.00563   0.60934   0.23312   0.00000  Uiso   1.00
O397   O     0.30285   0.43335   0.20632   0.00000  Uiso   1.00
H398   H     0.27916   0.44364   0.18890   0.00000  Uiso   1.00
O399   O     0.28810   0.53910   0.41534   0.00000  Uiso   1.00
H400   H     0.30266   0.54902   0.44229   0.00000  Uiso   1.00
O401   O     0.30772   0.48287   0.48416   0.00000  Uiso   1.00
H402   H     0.32301   0.46701   0.00663   0.00000  Uiso   1.00
O403   O     0.12921   0.47902   0.08468   0.00000  Uiso   1.00
H404   H     0.13523   0.45666   0.10650   0.00000  Uiso   1.00
O405   O     0.04470   0.49781   0.41299   0.00000  Uiso   1.00
H406   H     0.05742   0.47128   0.39480   0.00000  Uiso   1.00
O407   O     0.21386   0.55765   0.37086   0.00000  Uiso   1.00
H408   H     0.24231   0.57373   0.36842   0.00000  Uiso   1.00
C409   C     0.49977   0.57920   0.24868   0.00000  Uiso   1.00
C410   C     0.48084   0.51738   0.48799   0.00000  Uiso   1.00
C411   C     0.49489   0.51951   0.43425   0.00000  Uiso   1.00
C412   C     0.51564   0.51078   0.01492   0.00000  Uiso   1.00
C413   C     0.56391   0.51305   0.48838   0.00000  Uiso   1.00
C414   C     0.57618   0.52765   0.43842   0.00000  Uiso   1.00
C415   C     0.54070   0.53302   0.41234   0.00000  Uiso   1.00
C416   C     0.50459   0.49765   0.06568   0.00000  Uiso   1.00
C417   C     0.58699   0.50358   0.06614   0.00000  Uiso   1.00
C418   C     0.46089   0.51146   0.40626   0.00000  Uiso   1.00
C419   C     0.54350   0.64325   0.24543   0.00000  Uiso   1.00
C420   C     0.47473   0.50319   0.34962   0.00000  Uiso   1.00
C421   C     0.54477   0.35246   0.24343   0.00000  Uiso   1.00
C422   C     0.50189   0.37603   0.25060   0.00000  Uiso   1.00
C423   C     0.45881   0.35613   0.26048   0.00000  Uiso   1.00
C424   C     0.46141   0.64873   0.24090   0.00000  Uiso   1.00
C425   C     0.50085   0.62410   0.24592   0.00000  Uiso   1.00
C426   C     0.63483   0.53275   0.26868   0.00000  Uiso   1.00
C427   C     0.35050   0.53382   0.26790   0.00000  Uiso   1.00
C428   C     0.36458   0.46675   0.23152   0.00000  Uiso   1.00
C429   C     0.64920   0.46672   0.23054   0.00000  Uiso   1.00
C430   C     0.50069   0.42087   0.25078   0.00000  Uiso   1.00
C431   C     0.52526   0.49968   0.15040   0.00000  Uiso   1.00
C432   C     0.59862   0.50114   0.01280   0.00000  Uiso   1.00
C433   C     0.53912   0.50025   0.09373   0.00000  Uiso   1.00
C434   C     0.41248   0.51133   0.43427   0.00000  Uiso   1.00
C435   C     0.39885   0.52448   0.48560   0.00000  Uiso   1.00
C436   C     0.43267   0.52563   0.01292   0.00000  Uiso   1.00
Cu437  Cu    0.45311   0.49999   0.25000   0.00000  Uiso   1.00
Cu438  Cu    0.54689   0.50001   0.25000   0.00000  Uiso   1.00
H439   H     0.57834   0.36672   0.23913   0.00000  Uiso   1.00
H440   H     0.61062   0.55905   0.28342   0.00000  Uiso   1.00
H441   H     0.38842   0.44073   0.21411   0.00000  Uiso   1.00
H442   H     0.42144   0.53401   0.05308   0.00000  Uiso   1.00
H443   H     0.36189   0.53096   0.00539   0.00000  Uiso   1.00
H444   H     0.57612   0.62557   0.24475   0.00000  Uiso   1.00
N445   N     0.38265   0.49999   0.24998   0.00000  Uiso   1.00
N446   N     0.61735   0.50002   0.24999   0.00000  Uiso   1.00
O447   O     0.46042   0.56011   0.25000   0.00000  Uiso   1.00
O448   O     0.53961   0.56012   0.25000   0.00000  Uiso   1.00
O449   O     0.44108   0.49998   0.32549   0.00000  Uiso   1.00
O450   O     0.52027   0.49999   0.32549   0.00000  Uiso   1.00
O451   O     0.46039   0.43988   0.24999   0.00000  Uiso   1.00
O452   O     0.53958   0.43989   0.24999   0.00000  Uiso   1.00
O453   O     0.47973   0.50001   0.17451   0.00000  Uiso   1.00
O454   O     0.55892   0.50002   0.17451   0.00000  Uiso   1.00
C455   C     0.62274   0.51878   0.09062   0.00000  Uiso   1.00
C456   C     0.62003   0.56065   0.10600   0.00000  Uiso   1.00
C457   C     0.65149   0.57534   0.13236   0.00000  Uiso   1.00
C458   C     0.35276   0.54845   0.14284   0.00000  Uiso   1.00
C459   C     0.35539   0.50687   0.12750   0.00000  Uiso   1.00
C460   C     0.65710   0.49185   0.10176   0.00000  Uiso   1.00
H461   H     0.59301   0.58164   0.09835   0.00000  Uiso   1.00
H462   H     0.64880   0.60745   0.14482   0.00000  Uiso   1.00
H463   H     0.37753   0.55964   0.16287   0.00000  Uiso   1.00
H464   H     0.38162   0.48598   0.13607   0.00000  Uiso   1.00
H465   H     0.65882   0.45931   0.09152   0.00000  Uiso   1.00
C466   C     0.42603   0.36630   0.31178   0.00000  Uiso   1.00
C467   C     0.43848   0.35278   0.35551   0.00000  Uiso   1.00
C468   C     0.41036   0.36526   0.40433   0.00000  Uiso   1.00
C469   C     0.36969   0.39138   0.40998   0.00000  Uiso   1.00
C470   C     0.35693   0.40486   0.36677   0.00000  Uiso   1.00
C471   C     0.38494   0.39230   0.31794   0.00000  Uiso   1.00
H472   H     0.47034   0.66639   0.35176   0.00000  Uiso   1.00
H473   H     0.42021   0.35478   0.43776   0.00000  Uiso   1.00
H474   H     0.34791   0.40098   0.44776   0.00000  Uiso   1.00
H475   H     0.65857   0.42491   0.37114   0.00000  Uiso   1.00
H476   H     0.37426   0.40258   0.28525   0.00000  Uiso   1.00
C477   C     0.44322   0.64201   0.19445   0.00000  Uiso   1.00
C478   C     0.46732   0.61425   0.15358   0.00000  Uiso   1.00
C479   C     0.45269   0.61132   0.10864   0.00000  Uiso   1.00
C480   C     0.41405   0.63602   0.10325   0.00000  Uiso   1.00
C481   C     0.38995   0.66379   0.14284   0.00000  Uiso   1.00
C482   C     0.40450   0.33364   0.18782   0.00000  Uiso   1.00
H483   H     0.49860   0.59562   0.15503   0.00000  Uiso   1.00
H484   H     0.47181   0.59018   0.07765   0.00000  Uiso   1.00
H485   H     0.40280   0.63365   0.06838   0.00000  Uiso   1.00
H486   H     0.36002   0.34972   0.13863   0.00000  Uiso   1.00
H487   H     0.38536   0.35580   0.21735   0.00000  Uiso   1.00
C488   C     0.36182   0.57338   0.28899   0.00000  Uiso   1.00
C489   C     0.36776   0.57502   0.33840   0.00000  Uiso   1.00
C490   C     0.35287   0.61004   0.37068   0.00000  Uiso   1.00
C491   C     0.66396   0.64356   0.35403   0.00000  Uiso   1.00
C492   C     0.66206   0.64421   0.30335   0.00000  Uiso   1.00
C493   C     0.34546   0.60972   0.27055   0.00000  Uiso   1.00
H494   H     0.37726   0.54778   0.35456   0.00000  Uiso   1.00
H495   H     0.35490   0.60982   0.40990   0.00000  Uiso   1.00
H496   H     0.64747   0.33530   0.38069   0.00000  Uiso   1.00
H497   H     0.64535   0.33721   0.29019   0.00000  Uiso   1.00
H498   H     0.33897   0.60934   0.23312   0.00000  Uiso   1.00
O499   O     0.63618   0.43335   0.20632   0.00000  Uiso   1.00
H500   H     0.61249   0.44364   0.18890   0.00000  Uiso   1.00
O501   O     0.62143   0.53910   0.41534   0.00000  Uiso   1.00
H502   H     0.63600   0.54902   0.44229   0.00000  Uiso   1.00
O503   O     0.64106   0.48287   0.48416   0.00000  Uiso   1.00
H504   H     0.65634   0.46701   0.00663   0.00000  Uiso   1.00
O505   O     0.46254   0.47902   0.08468   0.00000  Uiso   1.00
H506   H     0.46856   0.45666   0.10650   0.00000  Uiso   1.00
O507   O     0.37803   0.49781   0.41299   0.00000  Uiso   1.00
H508   H     0.39076   0.47128   0.39480   0.00000  Uiso   1.00
O509   O     0.54719   0.55765   0.37086   0.00000  Uiso   1.00
H510   H     0.57564   0.57373   0.36842   0.00000  Uiso   1.00
C511   C     0.83311   0.57920   0.24868   0.00000  Uiso   1.00
C512   C     0.81417   0.51738   0.48799   0.00000  Uiso   1.00
C513   C     0.82822   0.51951   0.43425   0.00000  Uiso   1.00
C514   C     0.84897   0.51078   0.01492   0.00000  Uiso   1.00
C515   C     0.89724   0.51305   0.48838   0.00000  Uiso   1.00
C516   C     0.90951   0.52765   0.43842   0.00000  Uiso   1.00
C517   C     0.87403   0.53302   0.41234   0.00000  Uiso   1.00
C518   C     0.83792   0.49765   0.06568   0.00000  Uiso   1.00
C519   C     0.92032   0.50358   0.06614   0.00000  Uiso   1.00
C520   C     0.79422   0.51146   0.40626   0.00000  Uiso   1.00
C521   C     0.87683   0.64325   0.24543   0.00000  Uiso   1.00
C522   C     0.80806   0.50319   0.34962   0.00000  Uiso   1.00
C523   C     0.87811   0.35246   0.24343   0.00000  Uiso   1.00
C524   C     0.83523   0.37603   0.25060   0.00000  Uiso   1.00
C525   C     0.79214   0.35613   0.26048   0.00000  Uiso   1.00
C526   C     0.79474   0.64873   0.24090   0.00000  Uiso   1.00
C527   C     0.83418   0.62410   0.24592   0.00000  Uiso   1.00
C528   C     0.96816   0.53275   0.26868   0.00000  Uiso   1.00
C529   C     0.68384   0.53382   0.26790   0.00000  Uiso   1.00
C530   C     0.69791   0.46675   0.23152   0.00000  Uiso   1.00
C531   C     0.98253   0.46672   0.23054   0.00000  Uiso   1.00
C532   C     0.83402   0.42087   0.25078   0.00000  Uiso   1.00
C533   C     0.85859   0.49968   0.15040   0.00000  Uiso   1.00
C534   C     0.93195   0.50114   0.01280   0.00000  Uiso   1.00
C535   C     0.87245   0.50025   0.09373   0.00000  Uiso   1.00
C536   C     0.74581   0.51133   0.43427   0.00000  Uiso   1.00
C537   C     0.73218   0.52448   0.48560   0.00000  Uiso   1.00
C538   C     0.76601   0.52563   0.01292   0.00000  Uiso   1.00
Cu539  Cu    0.78645   0.49999   0.25000   0.00000  Uiso   1.00
Cu540  Cu    0.88022   0.50001   0.25000   0.00000  Uiso   1.00
H541   H     0.91167   0.36672   0.23913   0.00000  Uiso   1.00
H542   H     0.94395   0.55905   0.28342   0.00000  Uiso   1.00
H543   H     0.72175   0.44073   0.21411   0.00000  Uiso   1.00
H544   H     0.75478   0.53401   0.05308   0.00000  Uiso   1.00
H545   H     0.69522   0.53096   0.00539   0.00000  Uiso   1.00
H546   H     0.90945   0.62557   0.24475   0.00000  Uiso   1.00
N547   N     0.71598   0.49999   0.24998   0.00000  Uiso   1.00
N548   N     0.95069   0.50002   0.24999   0.00000  Uiso   1.00
O549   O     0.79375   0.56011   0.25000   0.00000  Uiso   1.00
O550   O     0.87294   0.56012   0.25000   0.00000  Uiso   1.00
O551   O     0.77441   0.49998   0.32549   0.00000  Uiso   1.00
O552   O     0.85360   0.49999   0.32549   0.00000  Uiso   1.00
O553   O     0.79373   0.43988   0.24999   0.00000  Uiso   1.00
O554   O     0.87292   0.43989   0.24999   0.00000  Uiso   1.00
O555   O     0.81306   0.50001   0.17451   0.00000  Uiso   1.00
O556   O     0.89225   0.50002   0.17451   0.00000  Uiso   1.00
C557   C     0.95607   0.51878   0.09062   0.00000  Uiso   1.00
C558   C     0.95336   0.56065   0.10600   0.00000  Uiso   1.00
C559   C     0.98482   0.57534   0.13236   0.00000  Uiso   1.00
C560   C     0.68609   0.54845   0.14284   0.00000  Uiso   1.00
C561   C     0.68873   0.50687   0.12750   0.00000  Uiso   1.00
C562   C     0.99043   0.49185   0.10176   0.00000  Uiso   1.00
H563   H     0.92634   0.58164   0.09835   0.00000  Uiso   1.00
H564   H     0.98213   0.60745   0.14482   0.00000  Uiso   1.00
H565   H     0.71086   0.55964   0.16287   0.00000  Uiso   1.00
H566   H     0.71495   0.48598   0.13607   0.00000  Uiso   1.00
H567   H     0.99215   0.45931   0.09152   0.00000  Uiso   1.00
C568   C     0.75937   0.36630   0.31178   0.00000  Uiso   1.00
C569   C     0.77182   0.35278   0.35551   0.00000  Uiso   1.00
C570   C     0.74370   0.36526   0.40433   0.00000  Uiso   1.00
C571   C     0.70302   0.39138   0.40998   0.00000  Uiso   1.00
C572   C     0.69027   0.40486   0.36677   0.00000  Uiso   1.00
C573   C     0.71827   0.39230   0.31794   0.00000  Uiso   1.00
H574   H     0.80367   0.66639   0.35176   0.00000  Uiso   1.00
H575   H     0.75355   0.35478   0.43776   0.00000  Uiso   1.00
H576   H     0.68125   0.40098   0.44776   0.00000  Uiso   1.00
H577   H     0.99191   0.42491   0.37114   0.00000  Uiso   1.00
H578   H     0.70759   0.40258   0.28525   0.00000  Uiso   1.00
C579   C     0.77655   0.64201   0.19445   0.00000  Uiso   1.00
C580   C     0.80066   0.61425   0.15358   0.00000  Uiso   1.00
C581   C     0.78602   0.61132   0.10864   0.00000  Uiso   1.00
C582   C     0.74739   0.63602   0.10325   0.00000  Uiso   1.00
C583   C     0.72328   0.66379   0.14284   0.00000  Uiso   1.00
C584   C     0.73784   0.33364   0.18782   0.00000  Uiso   1.00
H585   H     0.83193   0.59562   0.15503   0.00000  Uiso   1.00
H586   H     0.80514   0.59018   0.07765   0.00000  Uiso   1.00
H587   H     0.73614   0.63365   0.06838   0.00000  Uiso   1.00
H588   H     0.69335   0.34972   0.13863   0.00000  Uiso   1.00
H589   H     0.71870   0.35580   0.21735   0.00000  Uiso   1.00
C590   C     0.69516   0.57338   0.28899   0.00000  Uiso   1.00
C591   C     0.70109   0.57502   0.33840   0.00000  Uiso   1.00
C592   C     0.68620   0.61004   0.37068   0.00000  Uiso   1.00
C593   C     0.99729   0.64356   0.35403   0.00000  Uiso   1.00
C594   C     0.99539   0.64421   0.30335   0.00000  Uiso   1.00
C595   C     0.67879   0.60972   0.27055   0.00000  Uiso   1.00
H596   H     0.71060   0.54778   0.35456   0.00000  Uiso   1.00
H597   H     0.68823   0.60982   0.40990   0.00000  Uiso   1.00
H598   H     0.98081   0.33530   0.38069   0.00000  Uiso   1.00
H599   H     0.97868   0.33721   0.29019   0.00000  Uiso   1.00
H600   H     0.67230   0.60934   0.23312   0.00000  Uiso   1.00
O601   O     0.96952   0.43335   0.20632   0.00000  Uiso   1.00
H602   H     0.94583   0.44364   0.18890   0.00000  Uiso   1.00
O603   O     0.95477   0.53910   0.41534   0.00000  Uiso   1.00
H604   H     0.96933   0.54902   0.44229   0.00000  Uiso   1.00
O605   O     0.97439   0.48287   0.48416   0.00000  Uiso   1.00
H606   H     0.98968   0.46701   0.00663   0.00000  Uiso   1.00
O607   O     0.79587   0.47902   0.08468   0.00000  Uiso   1.00
H608   H     0.80189   0.45666   0.10650   0.00000  Uiso   1.00
O609   O     0.71137   0.49781   0.41299   0.00000  Uiso   1.00
H610   H     0.72409   0.47128   0.39480   0.00000  Uiso   1.00
O611   O     0.88052   0.55765   0.37086   0.00000  Uiso   1.00
H612   H     0.90898   0.57373   0.36842   0.00000  Uiso   1.00
C613   C     0.16644   0.91254   0.24868   0.00000  Uiso   1.00
C614   C     0.14751   0.85071   0.48799   0.00000  Uiso   1.00
C615   C     0.16156   0.85285   0.43425   0.00000  Uiso   1.00
C616   C     0.18230   0.84411   0.01492   0.00000  Uiso   1.00
C617   C     0.23058   0.84639   0.48838   0.00000  Uiso   1.00
C618   C     0.24284   0.86098   0.43842   0.00000  Uiso   1.00
C619   C     0.20737   0.86636   0.41234   0.00000  Uiso   1.00
C620   C     0.17126   0.83098   0.06568   0.00000  Uiso   1.00
C621   C     0.25365   0.83692   0.06614   0.00000  Uiso   1.00
C622   C     0.12756   0.84479   0.40626   0.00000  Uiso   1.00
C623   C     0.21017   0.97659   0.24543   0.00000  Uiso   1.00
C624   C     0.14139   0.83653   0.34962   0.00000  Uiso   1.00
C625   C     0.21144   0.68579   0.24343   0.00000  Uiso   1.00
C626   C     0.16856   0.70936   0.25060   0.00000  Uiso   1.00
C627   C     0.12547   0.68946   0.26048   0.00000  Uiso   1.00
C628   C     0.12807   0.98207   0.24090   0.00000  Uiso   1.00
C629   C     0.16751   0.95744   0.24592   0.00000  Uiso   1.00
C630   C     0.30149   0.86608   0.26868   0.00000  Uiso   1.00
C631   C     0.01717   0.86715   0.26790   0.00000  Uiso   1.00
C632   C     0.03125   0.80009   0.23152   0.00000  Uiso   1.00
C633   C     0.31587   0.80006   0.23054   0.00000  Uiso   1.00
C634   C     0.16735   0.75420   0.25078   0.00000  Uiso   1.00
C635   C     0.19192   0.83301   0.15040   0.00000  Uiso   1.00
C636   C     0.26529   0.83447   0.01280   0.00000  Uiso   1.00
C637   C     0.20578   0.83358   0.09373   0.00000  Uiso   1.00
C638   C     0.07914   0.84467   0.43427   0.00000  Uiso   1.00
C639   C     0.06552   0.85781   0.48560   0.00000  Uiso   1.00
C640   C     0.09934   0.85897   0.01292   0.00000  Uiso   1.00
Cu641  Cu    0.11978   0.83333   0.25000   0.00000  Uiso   1.00
Cu642  Cu    0.21355   0.83334   0.25000   0.00000  Uiso   1.00
H643   H     0.24500   0.70005   0.23913   0.00000  Uiso   1.00
H644   H     0.27728   0.89238   0.28342   0.00000  Uiso   1.00
H645   H     0.05509   0.77406   0.21411   0.00000  Uiso   1.00
H646   H     0.08811   0.86734   0.05308   0.00000  Uiso   1.00
H647   H     0.02856   0.86429   0.00539   0.00000  Uiso   1.00
H648   H     0.24279   0.95890   0.24475   0.00000  Uiso   1.00
N649   N     0.04931   0.83332   0.24998   0.00000  Uiso   1.00
N650   N     0.28402   0.83335   0.24999   0.00000  Uiso   1.00
O651   O     0.12708   0.89345   0.25000   0.00000  Uiso   1.00
O652   O     0.20627   0.89346   0.25000   0.00000  Uiso   1.00
O653   O     0.10775   0.83332   0.32549   0.00000  Uiso   1.00
O654   O     0.18694   0.83333   0.32549   0.00000  Uiso   1.00
O655   O     0.12706   0.77321   0.24999   0.00000  Uiso   1.00
O656   O     0.20625   0.77322   0.24999   0.00000  Uiso   1.00
O657   O     0.14640   0.83334   0.17451   0.00000  Uiso   1.00
O658   O     0.22559   0.83335   0.17451   0.00000  Uiso   1.00
C659   C     0.28940   0.85212   0.09062   0.00000  Uiso   1.00
C660   C     0.28670   0.89398   0.10600   0.00000  Uiso   1.00
C661   C     0.31815   0.90867   0.13236   0.00000  Uiso   1.00
C662   C     0.01942   0.88178   0.14284   0.00000  Uiso   1.00
C663   C     0.02206   0.84020   0.12750   0.00000  Uiso   1.00
C664   C     0.32376   0.82519   0.10176   0.00000  Uiso   1.00
H665   H     0.25967   0.91497   0.09835   0.00000  Uiso   1.00
H666   H     0.31546   0.94078   0.14482   0.00000  Uiso   1.00
H667   H     0.04419   0.89298   0.16287   0.00000  Uiso   1.00
H668   H     0.04828   0.81931   0.13607   0.00000  Uiso   1.00
H669   H     0.32549   0.79264   0.09152   0.00000  Uiso   1.00
C670   C     0.09270   0.69964   0.31178   0.00000  Uiso   1.00
C671   C     0.10515   0.68612   0.35551   0.00000  Uiso   1.00
C672   C     0.07703   0.69859   0.40433   0.00000  Uiso   1.00
C673   C     0.03636   0.72472   0.40998   0.00000  Uiso   1.00
C674   C     0.02360   0.73820   0.36677   0.00000  Uiso   1.00
C675   C     0.05160   0.72564   0.31794   0.00000  Uiso   1.00
H676   H     0.13701   0.99972   0.35176   0.00000  Uiso   1.00
H677   H     0.08688   0.68812   0.43776   0.00000  Uiso   1.00
H678   H     0.01458   0.73431   0.44776   0.00000  Uiso   1.00
H679   H     0.32524   0.75825   0.37114   0.00000  Uiso   1.00
H680   H     0.04092   0.73591   0.28525   0.00000  Uiso   1.00
C681   C     0.10988   0.97535   0.19445   0.00000  Uiso   1.00
C682   C     0.13399   0.94758   0.15358   0.00000  Uiso   1.00
C683   C     0.11936   0.94465   0.10864   0.00000  Uiso   1.00
C684   C     0.08072   0.96935   0.10325   0.00000  Uiso   1.00
C685   C     0.05662   0.99712   0.14284   0.00000  Uiso   1.00
C686   C     0.07117   0.66698   0.18782   0.00000  Uiso   1.00
H687   H     0.16526   0.92895   0.15503   0.00000  Uiso   1.00
H688   H     0.13847   0.92352   0.07765   0.00000  Uiso   1.00
H689   H     0.06947   0.96698   0.06838   0.00000  Uiso   1.00
H690   H     0.02668   0.68306   0.13863   0.00000  Uiso   1.00
H691   H     0.05203   0.68913   0.21735   0.00000  Uiso   1.00
C692   C     0.02849   0.90671   0.28899   0.00000  Uiso   1.00
C693   C     0.03443   0.90836   0.33840   0.00000  Uiso   1.00
C694   C     0.01954   0.94338   0.37068   0.00000  Uiso   1.00
C695   C     0.33063   0.97689   0.35403   0.00000  Uiso   1.00
C696   C     0.32872   0.97755   0.30335   0.00000  Uiso   1.00
C697   C     0.01213   0.94306   0.27055   0.00000  Uiso   1.00
H698   H     0.04393   0.88111   0.35456   0.00000  Uiso   1.00
H699   H     0.02156   0.94315   0.40990   0.00000  Uiso   1.00
H700   H     0.31414   0.66863   0.38069   0.00000  Uiso   1.00
H701   H     0.31201   0.67054   0.29019   0.00000  Uiso   1.00
H702   H     0.00563   0.94267   0.23312   0.00000  Uiso   1.00
O703   O     0.30285   0.76669   0.20632   0.00000  Uiso   1.00
H704   H     0.27916   0.77697   0.18890   0.00000  Uiso   1.00
O705   O     0.28810   0.87243   0.41534   0.00000  Uiso   1.00
H706   H     0.30266   0.88235   0.44229   0.00000  Uiso   1.00
O707   O     0.30772   0.81621   0.48416   0.00000  Uiso   1.00
H708   H     0.32301   0.80034   0.00663   0.00000  Uiso   1.00
O709   O     0.12921   0.81235   0.08468   0.00000  Uiso   1.00
H710   H     0.13523   0.79000   0.10650   0.00000  Uiso   1.00
O711   O     0.04470   0.83114   0.41299   0.00000  Uiso   1.00
H712   H     0.05742   0.80461   0.39480   0.00000  Uiso   1.00
O713   O     0.21386   0.89098   0.37086   0.00000  Uiso   1.00
H714   H     0.24231   0.90706   0.36842   0.00000  Uiso   1.00
C715   C     0.49977   0.91254   0.24868   0.00000  Uiso   1.00
C716   C     0.48084   0.85071   0.48799   0.00000  Uiso   1.00
C717   C     0.49489   0.85285   0.43425   0.00000  Uiso   1.00
C718   C     0.51564   0.84411   0.01492   0.00000  Uiso   1.00
C719   C     0.56391   0.84639   0.48838   0.00000  Uiso   1.00
C720   C     0.57618   0.86098   0.43842   0.00000  Uiso   1.00
C721   C     0.54070   0.86636   0.41234   0.00000  Uiso   1.00
C722   C     0.50459   0.83098   0.06568   0.00000  Uiso   1.00
C723   C     0.58699   0.83692   0.06614   0.00000  Uiso   1.00
C724   C     0.46089   0.84479   0.40626   0.00000  Uiso   1.00
C725   C     0.54350   0.97659   0.24543   0.00000  Uiso   1.00
C726   C     0.47473   0.83653   0.34962   0.00000  Uiso   1.00
C727   C     0.54477   0.68579   0.24343   0.00000  Uiso   1.00
C728   C     0.50189   0.70936   0.25060   0.00000  Uiso   1.00
C729   C     0.45881   0.68946   0.26048   0.00000  Uiso   1.00
C730   C     0.46141   0.98207   0.24090   0.00000  Uiso   1.00
C731   C     0.50085   0.95744   0.24592   0.00000  Uiso   1.00
C732   C     0.63483   0.86608   0.26868   0.00000  Uiso   1.00
C733   C     0.35050   0.86715   0.26790   0.00000  Uiso   1.00
C734   C     0.36458   0.80009   0.23152   0.00000  Uiso   1.00
C735   C     0.64920   0.80006   0.23054   0.00000  Uiso   1.00
C736   C     0.50069   0.75420   0.25078   0.00000  Uiso   1.00
C737   C     0.52526   0.83301   0.15040   0.00000  Uiso   1.00
C738   C     0.59862   0.83447   0.01280   0.00000  Uiso   1.00
C739   C     0.53912   0.83358   0.09373   0.00000  Uiso   1.00
C740   C     0.41248   0.84467   0.43427   0.00000  Uiso   1.00
C741   C     0.39885   0.85781   0.48560   0.00000  Uiso   1.00
C742   C     0.43267   0.85897   0.01292   0.00000  Uiso   1.00
Cu743  Cu    0.45311   0.83333   0.25000   0.00000  Uiso   1.00
Cu744  Cu    0.54689   0.83334   0.25000   0.00000  Uiso   1.00
H745   H     0.57834   0.70005   0.23913   0.00000  Uiso   1.00
H746   H     0.61062   0.89238   0.28342   0.00000  Uiso   1.00
H747   H     0.38842   0.77406   0.21411   0.00000  Uiso   1.00
H748   H     0.42144   0.86734   0.05308   0.00000  Uiso   1.00
H749   H     0.36189   0.86429   0.00539   0.00000  Uiso   1.00
H750   H     0.57612   0.95890   0.24475   0.00000  Uiso   1.00
N751   N     0.38265   0.83332   0.24998   0.00000  Uiso   1.00
N752   N     0.61735   0.83335   0.24999   0.00000  Uiso   1.00
O753   O     0.46042   0.89345   0.25000   0.00000  Uiso   1.00
O754   O     0.53961   0.89346   0.25000   0.00000  Uiso   1.00
O755   O     0.44108   0.83332   0.32549   0.00000  Uiso   1.00
O756   O     0.52027   0.83333   0.32549   0.00000  Uiso   1.00
O757   O     0.46039   0.77321   0.24999   0.00000  Uiso   1.00
O758   O     0.53958   0.77322   0.24999   0.00000  Uiso   1.00
O759   O     0.47973   0.83334   0.17451   0.00000  Uiso   1.00
O760   O     0.55892   0.83335   0.17451   0.00000  Uiso   1.00
C761   C     0.62274   0.85212   0.09062   0.00000  Uiso   1.00
C762   C     0.62003   0.89398   0.10600   0.00000  Uiso   1.00
C763   C     0.65149   0.90867   0.13236   0.00000  Uiso   1.00
C764   C     0.35276   0.88178   0.14284   0.00000  Uiso   1.00
C765   C     0.35539   0.84020   0.12750   0.00000  Uiso   1.00
C766   C     0.65710   0.82519   0.10176   0.00000  Uiso   1.00
H767   H     0.59301   0.91497   0.09835   0.00000  Uiso   1.00
H768   H     0.64880   0.94078   0.14482   0.00000  Uiso   1.00
H769   H     0.37753   0.89298   0.16287   0.00000  Uiso   1.00
H770   H     0.38162   0.81931   0.13607   0.00000  Uiso   1.00
H771   H     0.65882   0.79264   0.09152   0.00000  Uiso   1.00
C772   C     0.42603   0.69964   0.31178   0.00000  Uiso   1.00
C773   C     0.43848   0.68612   0.35551   0.00000  Uiso   1.00
C774   C     0.41036   0.69859   0.40433   0.00000  Uiso   1.00
C775   C     0.36969   0.72472   0.40998   0.00000  Uiso   1.00
C776   C     0.35693   0.73820   0.36677   0.00000  Uiso   1.00
C777   C     0.38494   0.72564   0.31794   0.00000  Uiso   1.00
H778   H     0.47034   0.99972   0.35176   0.00000  Uiso   1.00
H779   H     0.42021   0.68812   0.43776   0.00000  Uiso   1.00
H780   H     0.34791   0.73431   0.44776   0.00000  Uiso   1.00
H781   H     0.65857   0.75825   0.37114   0.00000  Uiso   1.00
H782   H     0.37426   0.73591   0.28525   0.00000  Uiso   1.00
C783   C     0.44322   0.97535   0.19445   0.00000  Uiso   1.00
C784   C     0.46732   0.94758   0.15358   0.00000  Uiso   1.00
C785   C     0.45269   0.94465   0.10864   0.00000  Uiso   1.00
C786   C     0.41405   0.96935   0.10325   0.00000  Uiso   1.00
C787   C     0.38995   0.99712   0.14284   0.00000  Uiso   1.00
C788   C     0.40450   0.66698   0.18782   0.00000  Uiso   1.00
H789   H     0.49860   0.92895   0.15503   0.00000  Uiso   1.00
H790   H     0.47181   0.92352   0.07765   0.00000  Uiso   1.00
H791   H     0.40280   0.96698   0.06838   0.00000  Uiso   1.00
H792   H     0.36002   0.68306   0.13863   0.00000  Uiso   1.00
H793   H     0.38536   0.68913   0.21735   0.00000  Uiso   1.00
C794   C     0.36182   0.90671   0.28899   0.00000  Uiso   1.00
C795   C     0.36776   0.90836   0.33840   0.00000  Uiso   1.00
C796   C     0.35287   0.94338   0.37068   0.00000  Uiso   1.00
C797   C     0.66396   0.97689   0.35403   0.00000  Uiso   1.00
C798   C     0.66206   0.97755   0.30335   0.00000  Uiso   1.00
C799   C     0.34546   0.94306   0.27055   0.00000  Uiso   1.00
H800   H     0.37726   0.88111   0.35456   0.00000  Uiso   1.00
H801   H     0.35490   0.94315   0.40990   0.00000  Uiso   1.00
H802   H     0.64747   0.66863   0.38069   0.00000  Uiso   1.00
H803   H     0.64535   0.67054   0.29019   0.00000  Uiso   1.00
H804   H     0.33897   0.94267   0.23312   0.00000  Uiso   1.00
O805   O     0.63618   0.76669   0.20632   0.00000  Uiso   1.00
H806   H     0.61249   0.77697   0.18890   0.00000  Uiso   1.00
O807   O     0.62143   0.87243   0.41534   0.00000  Uiso   1.00
H808   H     0.63600   0.88235   0.44229   0.00000  Uiso   1.00
O809   O     0.64106   0.81621   0.48416   0.00000  Uiso   1.00
H810   H     0.65634   0.80034   0.00663   0.00000  Uiso   1.00
O811   O     0.46254   0.81235   0.08468   0.00000  Uiso   1.00
H812   H     0.46856   0.79000   0.10650   0.00000  Uiso   1.00
O813   O     0.37803   0.83114   0.41299   0.00000  Uiso   1.00
H814   H     0.39076   0.80461   0.39480   0.00000  Uiso   1.00
O815   O     0.54719   0.89098   0.37086   0.00000  Uiso   1.00
H816   H     0.57564   0.90706   0.36842   0.00000  Uiso   1.00
C817   C     0.83311   0.91254   0.24868   0.00000  Uiso   1.00
C818   C     0.81417   0.85071   0.48799   0.00000  Uiso   1.00
C819   C     0.82822   0.85285   0.43425   0.00000  Uiso   1.00
C820   C     0.84897   0.84411   0.01492   0.00000  Uiso   1.00
C821   C     0.89724   0.84639   0.48838   0.00000  Uiso   1.00
C822   C     0.90951   0.86098   0.43842   0.00000  Uiso   1.00
C823   C     0.87403   0.86636   0.41234   0.00000  Uiso   1.00
C824   C     0.83792   0.83098   0.06568   0.00000  Uiso   1.00
C825   C     0.92032   0.83692   0.06614   0.00000  Uiso   1.00
C826   C     0.79422   0.84479   0.40626   0.00000  Uiso   1.00
C827   C     0.87683   0.97659   0.24543   0.00000  Uiso   1.00
C828   C     0.80806   0.83653   0.34962   0.00000  Uiso   1.00
C829   C     0.87811   0.68579   0.24343   0.00000  Uiso   1.00
C830   C     0.83523   0.70936   0.25060   0.00000  Uiso   1.00
C831   C     0.79214   0.68946   0.26048   0.00000  Uiso   1.00
C832   C     0.79474   0.98207   0.24090   0.00000  Uiso   1.00
C833   C     0.83418   0.95744   0.24592   0.00000  Uiso   1.00
C834   C     0.96816   0.86608   0.26868   0.00000  Uiso   1.00
C835   C     0.68384   0.86715   0.26790   0.00000  Uiso   1.00
C836   C     0.69791   0.80009   0.23152   0.00000  Uiso   1.00
C837   C     0.98253   0.80006   0.23054   0.00000  Uiso   1.00
C838   C     0.83402   0.75420   0.25078   0.00000  Uiso   1.00
C839   C     0.85859   0.83301   0.15040   0.00000  Uiso   1.00
C840   C     0.93195   0.83447   0.01280   0.00000  Uiso   1.00
C841   C     0.87245   0.83358   0.09373   0.00000  Uiso   1.00
C842   C     0.74581   0.84467   0.43427   0.00000  Uiso   1.00
C843   C     0.73218   0.85781   0.48560   0.00000  Uiso   1.00
C844   C     0.76601   0.85897   0.01292   0.00000  Uiso   1.00
Cu845  Cu    0.78645   0.83333   0.25000   0.00000  Uiso   1.00
Cu846  Cu    0.88022   0.83334   0.25000   0.00000  Uiso   1.00
H847   H     0.91167   0.70005   0.23913   0.00000  Uiso   1.00
H848   H     0.94395   0.89238   0.28342   0.00000  Uiso   1.00
H849   H     0.72175   0.77406   0.21411   0.00000  Uiso   1.00
H850   H     0.75478   0.86734   0.05308   0.00000  Uiso   1.00
H851   H     0.69522   0.86429   0.00539   0.00000  Uiso   1.00
H852   H     0.90945   0.95890   0.24475   0.00000  Uiso   1.00
N853   N     0.71598   0.83332   0.24998   0.00000  Uiso   1.00
N854   N     0.95069   0.83335   0.24999   0.00000  Uiso   1.00
O855   O     0.79375   0.89345   0.25000   0.00000  Uiso   1.00
O856   O     0.87294   0.89346   0.25000   0.00000  Uiso   1.00
O857   O     0.77441   0.83332   0.32549   0.00000  Uiso   1.00
O858   O     0.85360   0.83333   0.32549   0.00000  Uiso   1.00
O859   O     0.79373   0.77321   0.24999   0.00000  Uiso   1.00
O860   O     0.87292   0.77322   0.24999   0.00000  Uiso   1.00
O861   O     0.81306   0.83334   0.17451   0.00000  Uiso   1.00
O862   O     0.89225   0.83335   0.17451   0.00000  Uiso   1.00
C863   C     0.95607   0.85212   0.09062   0.00000  Uiso   1.00
C864   C     0.95336   0.89398   0.10600   0.00000  Uiso   1.00
C865   C     0.98482   0.90867   0.13236   0.00000  Uiso   1.00
C866   C     0.68609   0.88178   0.14284   0.00000  Uiso   1.00
C867   C     0.68873   0.84020   0.12750   0.00000  Uiso   1.00
C868   C     0.99043   0.82519   0.10176   0.00000  Uiso   1.00
H869   H     0.92634   0.91497   0.09835   0.00000  Uiso   1.00
H870   H     0.98213   0.94078   0.14482   0.00000  Uiso   1.00
H871   H     0.71086   0.89298   0.16287   0.00000  Uiso   1.00
H872   H     0.71495   0.81931   0.13607   0.00000  Uiso   1.00
H873   H     0.99215   0.79264   0.09152   0.00000  Uiso   1.00
C874   C     0.75937   0.69964   0.31178   0.00000  Uiso   1.00
C875   C     0.77182   0.68612   0.35551   0.00000  Uiso   1.00
C876   C     0.74370   0.69859   0.40433   0.00000  Uiso   1.00
C877   C     0.70302   0.72472   0.40998   0.00000  Uiso   1.00
C878   C     0.69027   0.73820   0.36677   0.00000  Uiso   1.00
C879   C     0.71827   0.72564   0.31794   0.00000  Uiso   1.00
H880   H     0.80367   0.99972   0.35176   0.00000  Uiso   1.00
H881   H     0.75355   0.68812   0.43776   0.00000  Uiso   1.00
H882   H     0.68125   0.73431   0.44776   0.00000  Uiso   1.00
H883   H     0.99191   0.75825   0.37114   0.00000  Uiso   1.00
H884   H     0.70759   0.73591   0.28525   0.00000  Uiso   1.00
C885   C     0.77655   0.97535   0.19445   0.00000  Uiso   1.00
C886   C     0.80066   0.94758   0.15358   0.00000  Uiso   1.00
C887   C     0.78602   0.94465   0.10864   0.00000  Uiso   1.00
C888   C     0.74739   0.96935   0.10325   0.00000  Uiso   1.00
C889   C     0.72328   0.99712   0.14284   0.00000  Uiso   1.00
C890   C     0.73784   0.66698   0.18782   0.00000  Uiso   1.00
H891   H     0.83193   0.92895   0.15503   0.00000  Uiso   1.00
H892   H     0.80514   0.92352   0.07765   0.00000  Uiso   1.00
H893   H     0.73614   0.96698   0.06838   0.00000  Uiso   1.00
H894   H     0.69335   0.68306   0.13863   0.00000  Uiso   1.00
H895   H     0.71870   0.68913   0.21735   0.00000  Uiso   1.00
C896   C     0.69516   0.90671   0.28899   0.00000  Uiso   1.00
C897   C     0.70109   0.90836   0.33840   0.00000  Uiso   1.00
C898   C     0.68620   0.94338   0.37068   0.00000  Uiso   1.00
C899   C     0.99729   0.97689   0.35403   0.00000  Uiso   1.00
C900   C     0.99539   0.97755   0.30335   0.00000  Uiso   1.00
C901   C     0.67879   0.94306   0.27055   0.00000  Uiso   1.00
H902   H     0.71060   0.88111   0.35456   0.00000  Uiso   1.00
H903   H     0.68823   0.94315   0.40990   0.00000  Uiso   1.00
H904   H     0.98081   0.66863   0.38069   0.00000  Uiso   1.00
H905   H     0.97868   0.67054   0.29019   0.00000  Uiso   1.00
H906   H     0.67230   0.94267   0.23312   0.00000  Uiso   1.00
O907   O     0.96952   0.76669   0.20632   0.00000  Uiso   1.00
H908   H     0.94583   0.77697   0.18890   0.00000  Uiso   1.00
O909   O     0.95477   0.87243   0.41534   0.00000  Uiso   1.00
H910   H     0.96933   0.88235   0.44229   0.00000  Uiso   1.00
O911   O     0.97439   0.81621   0.48416   0.00000  Uiso   1.00
H912   H     0.98968   0.80034   0.00663   0.00000  Uiso   1.00
O913   O     0.79587   0.81235   0.08468   0.00000  Uiso   1.00
H914   H     0.80189   0.79000   0.10650   0.00000  Uiso   1.00
O915   O     0.71137   0.83114   0.41299   0.00000  Uiso   1.00
H916   H     0.72409   0.80461   0.39480   0.00000  Uiso   1.00
O917   O     0.88052   0.89098   0.37086   0.00000  Uiso   1.00
H918   H     0.90898   0.90706   0.36842   0.00000  Uiso   1.00
C919   C     0.16644   0.24587   0.74868   0.00000  Uiso   1.00
C920   C     0.14751   0.18405   0.98799   0.00000  Uiso   1.00
C921   C     0.16156   0.18618   0.93425   0.00000  Uiso   1.00
C922   C     0.18230   0.17744   0.51492   0.00000  Uiso   1.00
C923   C     0.23058   0.17972   0.98838   0.00000  Uiso   1.00
C924   C     0.24284   0.19431   0.93842   0.00000  Uiso   1.00
C925   C     0.20737   0.19969   0.91234   0.00000  Uiso   1.00
C926   C     0.17126   0.16432   0.56568   0.00000  Uiso   1.00
C927   C     0.25365   0.17025   0.56614   0.00000  Uiso   1.00
C928   C     0.12756   0.17812   0.90626   0.00000  Uiso   1.00
C929   C     0.21017   0.30992   0.74543   0.00000  Uiso   1.00
C930   C     0.14139   0.16986   0.84962   0.00000  Uiso   1.00
C931   C     0.21144   0.01912   0.74343   0.00000  Uiso   1.00
C932   C     0.16856   0.04270   0.75060   0.00000  Uiso   1.00
C933   C     0.12547   0.02280   0.76048   0.00000  Uiso   1.00
C934   C     0.12807   0.31540   0.74090   0.00000  Uiso   1.00
C935   C     0.16751   0.29077   0.74592   0.00000  Uiso   1.00
C936   C     0.30149   0.19941   0.76868   0.00000  Uiso   1.00
C937   C     0.01717   0.20049   0.76790   0.00000  Uiso   1.00
C938   C     0.03125   0.13342   0.73152   0.00000  Uiso   1.00
C939   C     0.31587   0.13339   0.73054   0.00000  Uiso   1.00
C940   C     0.16735   0.08754   0.75078   0.00000  Uiso   1.00
C941   C     0.19192   0.16635   0.65040   0.00000  Uiso   1.00
C942   C     0.26529   0.16781   0.51280   0.00000  Uiso   1.00
C943   C     0.20578   0.16691   0.59373   0.00000  Uiso   1.00
C944   C     0.07914   0.17800   0.93427   0.00000  Uiso   1.00
C945   C     0.06552   0.19114   0.98560   0.00000  Uiso   1.00
C946   C     0.09934   0.19230   0.51292   0.00000  Uiso   1.00
Cu947  Cu    0.11978   0.16666   0.75000   0.00000  Uiso   1.00
Cu948  Cu    0.21355   0.16667   0.75000   0.00000  Uiso   1.00
H949   H     0.24500   0.03339   0.73913   0.00000  Uiso   1.00
H950   H     0.27728   0.22571   0.78342   0.00000  Uiso   1.00
H951   H     0.05509   0.10740   0.71411   0.00000  Uiso   1.00
H952   H     0.08811   0.20067   0.55308   0.00000  Uiso   1.00
H953   H     0.02856   0.19762   0.50539   0.00000  Uiso   1.00
H954   H     0.24279   0.29223   0.74475   0.00000  Uiso   1.00
N955   N     0.04931   0.16666   0.74998   0.00000  Uiso   1.00
N956   N     0.28402   0.16669   0.74999   0.00000  Uiso   1.00
O957   O     0.12708   0.22678   0.75000   0.00000  Uiso   1.00
O958   O     0.20627   0.22679   0.75000   0.00000  Uiso   1.00
O959   O     0.10775   0.16665   0.82549   0.00000  Uiso   1.00
O960   O     0.18694   0.16666   0.82549   0.00000  Uiso   1.00
O961   O     0.12706   0.10654   0.74999   0.00000  Uiso   1.00
O962   O     0.20625   0.10655   0.74999   0.00000  Uiso   1.00
O963   O     0.14640   0.16667   0.67451   0.00000  Uiso   1.00
O964   O     0.22559   0.16668   0.67451   0.00000  Uiso   1.00
C965   C     0.28940   0.18545   0.59062   0.00000  Uiso   1.00
C966   C     0.28670   0.22732   0.60600   0.00000  Uiso   1.00
C967   C     0.31815   0.24201   0.63236   0.00000  Uiso   1.00
C968   C     0.01942   0.21511   0.64284   0.00000  Uiso   1.00
C969   C     0.02206   0.17353   0.62750   0.00000  Uiso   1.00
C970   C     0.32376   0.15852   0.60176   0.00000  Uiso   1.00
H971   H     0.25967   0.24831   0.59835   0.00000  Uiso   1.00
H972   H     0.31546   0.27411   0.64482   0.00000  Uiso   1.00
H973   H     0.04419   0.22631   0.66287   0.00000  Uiso   1.00
H974   H     0.04828   0.15264   0.63607   0.00000  Uiso   1.00
H975   H     0.32549   0.12597   0.59152   0.00000  Uiso   1.00
C976   C     0.09270   0.03297   0.81178   0.00000  Uiso   1.00
C977   C     0.10515   0.01945   0.85551   0.00000  Uiso   1.00
C978   C     0.07703   0.03192   0.90433   0.00000  Uiso   1.00
C979   C     0.03636   0.05805   0.90998   0.00000  Uiso   1.00
C980   C     0.02360   0.07153   0.86677   0.00000  Uiso   1.00
C981   C     0.05160   0.05897   0.81794   0.00000  Uiso   1.00
H982   H     0.13701   0.33305   0.85176   0.00000  Uiso   1.00
H983   H     0.08688   0.02145   0.93776   0.00000  Uiso   1.00
H984   H     0.01458   0.06765   0.94776   0.00000  Uiso   1.00
H985   H     0.32524   0.09158   0.87114   0.00000  Uiso   1.00
H986   H     0.04092   0.06924   0.78525   0.00000  Uiso   1.00
C987   C     0.10988   0.30868   0.69445   0.00000  Uiso   1.00
C988   C     0.13399   0.28091   0.65358   0.00000  Uiso   1.00
C989   C     0.11936   0.27798   0.60864   0.00000  Uiso   1.00
C990   C     0.08072   0.30269   0.60325   0.00000  Uiso   1.00
C991   C     0.05662   0.33045   0.64284   0.00000  Uiso   1.00
C992   C     0.07117   0.00031   0.68782   0.00000  Uiso   1.00
H993   H     0.16526   0.26229   0.65503   0.00000  Uiso   1.00
H994   H     0.13847   0.25685   0.57765   0.00000  Uiso   1.00
H995   H     0.06947   0.30031   0.56838   0.00000  Uiso   1.00
H996   H     0.02668   0.01639   0.63863   0.00000  Uiso   1.00
H997   H     0.05203   0.02247   0.71735   0.00000  Uiso   1.00
C998   C     0.02849   0.24004   0.78899   0.00000  Uiso   1.00
C999   C     0.03443   0.24169   0.83840   0.00000  Uiso   1.00
C1000  C     0.01954   0.27671   0.87068   0.00000  Uiso   1.00
C1001  C     0.33063   0.31022   0.85403   0.00000  Uiso   1.00
C1002  C     0.32872   0.31088   0.80335   0.00000  Uiso   1.00
C1003  C     0.01213   0.27639   0.77055   0.00000  Uiso   1.00
H1004  H     0.04393   0.21445   0.85456   0.00000  Uiso   1.00
H1005  H     0.02156   0.27648   0.90990   0.00000  Uiso   1.00
H1006  H     0.31414   0.00197   0.88069   0.00000  Uiso   1.00
H1007  H     0.31201   0.00388   0.79019   0.00000  Uiso   1.00
H1008  H     0.00563   0.27600   0.73312   0.00000  Uiso   1.00
O1009  O     0.30285   0.10002   0.70632   0.00000  Uiso   1.00
H1010  H     0.27916   0.11031   0.68890   0.00000  Uiso   1.00
O1011  O     0.28810   0.20576   0.91534   0.00000  Uiso   1.00
H1012  H     0.30266   0.21569   0.94229   0.00000  Uiso   1.00
O1013  O     0.30772   0.14954   0.98416   0.00000  Uiso   1.00
H1014  H     0.32301   0.13367   0.50663   0.00000  Uiso   1.00
O1015  O     0.12921   0.14569   0.58468   0.00000  Uiso   1.00
H1016  H     0.13523   0.12333   0.60650   0.00000  Uiso   1.00
O1017  O     0.04470   0.16448   0.91299   0.00000  Uiso   1.00
H1018  H     0.05742   0.13795   0.89480   0.00000  Uiso   1.00
O1019  O     0.21386   0.22432   0.87086   0.00000  Uiso   1.00
H1020  H     0.24231   0.24040   0.86842   0.00000  Uiso   1.00
C1021  C     0.49977   0.24587   0.74868   0.00000  Uiso   1.00
C1022  C     0.48084   0.18405   0.98799   0.00000  Uiso   1.00
C1023  C     0.49489   0.18618   0.93425   0.00000  Uiso   1.00
C1024  C     0.51564   0.17744   0.51492   0.00000  Uiso   1.00
C1025  C     0.56391   0.17972   0.98838   0.00000  Uiso   1.00
C1026  C     0.57618   0.19431   0.93842   0.00000  Uiso   1.00
C1027  C     0.54070   0.19969   0.91234   0.00000  Uiso   1.00
C1028  C     0.50459   0.16432   0.56568   0.00000  Uiso   1.00
C1029  C     0.58699   0.17025   0.56614   0.00000  Uiso   1.00
C1030  C     0.46089   0.17812   0.90626   0.00000  Uiso   1.00
C1031  C     0.54350   0.30992   0.74543   0.00000  Uiso   1.00
C1032  C     0.47473   0.16986   0.84962   0.00000  Uiso   1.00
C1033  C     0.54477   0.01912   0.74343   0.00000  Uiso   1.00
C1034  C     0.50189   0.04270   0.75060   0.00000  Uiso   1.00
C1035  C     0.45881   0.02280   0.76048   0.00000  Uiso   1.00
C1036  C     0.46141   0.31540   0.74090   0.00000  Uiso   1.00
C1037  C     0.50085   0.29077   0.74592   0.00000  Uiso   1.00
C1038  C     0.63483   0.19941   0.76868   0.00000  Uiso   1.00
C1039  C     0.35050   0.20049   0.76790   0.00000  Uiso   1.00
C1040  C     0.36458   0.13342   0.73152   0.00000  Uiso   1.00
C1041  C     0.64920   0.13339   0.73054   0.00000  Uiso   1.00
C1042  C     0.50069   0.08754   0.75078   0.00000  Uiso   1.00
C1043  C     0.52526   0.16635   0.65040   0.00000  Uiso   1.00
C1044  C     0.59862   0.16781   0.51280   0.00000  Uiso   1.00
C1045  C     0.53912   0.16691   0.59373   0.00000  Uiso   1.00
C1046  C     0.41248   0.17800   0.93427   0.00000  Uiso   1.00
C1047  C     0.39885   0.19114   0.98560   0.00000  Uiso   1.00
C1048  C     0.43267   0.19230   0.51292   0.00000  Uiso   1.00
Cu1049 Cu    0.45311   0.16666   0.75000   0.00000  Uiso   1.00
Cu1050 Cu    0.54689   0.16667   0.75000   0.00000  Uiso   1.00
H1051  H     0.57834   0.03339   0.73913   0.00000  Uiso   1.00
H1052  H     0.61062   0.22571   0.78342   0.00000  Uiso   1.00
H1053  H     0.38842   0.10740   0.71411   0.00000  Uiso   1.00
H1054  H     0.42144   0.20067   0.55308   0.00000  Uiso   1.00
H1055  H     0.36189   0.19762   0.50539   0.00000  Uiso   1.00
H1056  H     0.57612   0.29223   0.74475   0.00000  Uiso   1.00
N1057  N     0.38265   0.16666   0.74998   0.00000  Uiso   1.00
N1058  N     0.61735   0.16669   0.74999   0.00000  Uiso   1.00
O1059  O     0.46042   0.22678   0.75000   0.00000  Uiso   1.00
O1060  O     0.53961   0.22679   0.75000   0.00000  Uiso   1.00
O1061  O     0.44108   0.16665   0.82549   0.00000  Uiso   1.00
O1062  O     0.52027   0.16666   0.82549   0.00000  Uiso   1.00
O1063  O     0.46039   0.10654   0.74999   0.00000  Uiso   1.00
O1064  O     0.53958   0.10655   0.74999   0.00000  Uiso   1.00
O1065  O     0.47973   0.16667   0.67451   0.00000  Uiso   1.00
O1066  O     0.55892   0.16668   0.67451   0.00000  Uiso   1.00
C1067  C     0.62274   0.18545   0.59062   0.00000  Uiso   1.00
C1068  C     0.62003   0.22732   0.60600   0.00000  Uiso   1.00
C1069  C     0.65149   0.24201   0.63236   0.00000  Uiso   1.00
C1070  C     0.35276   0.21511   0.64284   0.00000  Uiso   1.00
C1071  C     0.35539   0.17353   0.62750   0.00000  Uiso   1.00
C1072  C     0.65710   0.15852   0.60176   0.00000  Uiso   1.00
H1073  H     0.59301   0.24831   0.59835   0.00000  Uiso   1.00
H1074  H     0.64880   0.27411   0.64482   0.00000  Uiso   1.00
H1075  H     0.37753   0.22631   0.66287   0.00000  Uiso   1.00
H1076  H     0.38162   0.15264   0.63607   0.00000  Uiso   1.00
H1077  H     0.65882   0.12597   0.59152   0.00000  Uiso   1.00
C1078  C     0.42603   0.03297   0.81178   0.00000  Uiso   1.00
C1079  C     0.43848   0.01945   0.85551   0.00000  Uiso   1.00
C1080  C     0.41036   0.03192   0.90433   0.00000  Uiso   1.00
C1081  C     0.36969   0.05805   0.90998   0.00000  Uiso   1.00
C1082  C     0.35693   0.07153   0.86677   0.00000  Uiso   1.00
C1083  C     0.38494   0.05897   0.81794   0.00000  Uiso   1.00
H1084  H     0.47034   0.33305   0.85176   0.00000  Uiso   1.00
H1085  H     0.42021   0.02145   0.93776   0.00000  Uiso   1.00
H1086  H     0.34791   0.06765   0.94776   0.00000  Uiso   1.00
H1087  H     0.65857   0.09158   0.87114   0.00000  Uiso   1.00
H1088  H     0.37426   0.06924   0.78525   0.00000  Uiso   1.00
C1089  C     0.44322   0.30868   0.69445   0.00000  Uiso   1.00
C1090  C     0.46732   0.28091   0.65358   0.00000  Uiso   1.00
C1091  C     0.45269   0.27798   0.60864   0.00000  Uiso   1.00
C1092  C     0.41405   0.30269   0.60325   0.00000  Uiso   1.00
C1093  C     0.38995   0.33045   0.64284   0.00000  Uiso   1.00
C1094  C     0.40450   0.00031   0.68782   0.00000  Uiso   1.00
H1095  H     0.49860   0.26229   0.65503   0.00000  Uiso   1.00
H1096  H     0.47181   0.25685   0.57765   0.00000  Uiso   1.00
H1097  H     0.40280   0.30031   0.56838   0.00000  Uiso   1.00
H1098  H     0.36002   0.01639   0.63863   0.00000  Uiso   1.00
H1099  H     0.38536   0.02247   0.71735   0.00000  Uiso   1.00
C1100  C     0.36182   0.24004   0.78899   0.00000  Uiso   1.00
C1101  C     0.36776   0.24169   0.83840   0.00000  Uiso   1.00
C1102  C     0.35287   0.27671   0.87068   0.00000  Uiso   1.00
C1103  C     0.66396   0.31022   0.85403   0.00000  Uiso   1.00
C1104  C     0.66206   0.31088   0.80335   0.00000  Uiso   1.00
C1105  C     0.34546   0.27639   0.77055   0.00000  Uiso   1.00
H1106  H     0.37726   0.21445   0.85456   0.00000  Uiso   1.00
H1107  H     0.35490   0.27648   0.90990   0.00000  Uiso   1.00
H1108  H     0.64747   0.00197   0.88069   0.00000  Uiso   1.00
H1109  H     0.64535   0.00388   0.79019   0.00000  Uiso   1.00
H1110  H     0.33897   0.27600   0.73312   0.00000  Uiso   1.00
O1111  O     0.63618   0.10002   0.70632   0.00000  Uiso   1.00
H1112  H     0.61249   0.11031   0.68890   0.00000  Uiso   1.00
O1113  O     0.62143   0.20576   0.91534   0.00000  Uiso   1.00
H1114  H     0.63600   0.21569   0.94229   0.00000  Uiso   1.00
O1115  O     0.64106   0.14954   0.98416   0.00000  Uiso   1.00
H1116  H     0.65634   0.13367   0.50663   0.00000  Uiso   1.00
O1117  O     0.46254   0.14569   0.58468   0.00000  Uiso   1.00
H1118  H     0.46856   0.12333   0.60650   0.00000  Uiso   1.00
O1119  O     0.37803   0.16448   0.91299   0.00000  Uiso   1.00
H1120  H     0.39076   0.13795   0.89480   0.00000  Uiso   1.00
O1121  O     0.54719   0.22432   0.87086   0.00000  Uiso   1.00
H1122  H     0.57564   0.24040   0.86842   0.00000  Uiso   1.00
C1123  C     0.83311   0.24587   0.74868   0.00000  Uiso   1.00
C1124  C     0.81417   0.18405   0.98799   0.00000  Uiso   1.00
C1125  C     0.82822   0.18618   0.93425   0.00000  Uiso   1.00
C1126  C     0.84897   0.17744   0.51492   0.00000  Uiso   1.00
C1127  C     0.89724   0.17972   0.98838   0.00000  Uiso   1.00
C1128  C     0.90951   0.19431   0.93842   0.00000  Uiso   1.00
C1129  C     0.87403   0.19969   0.91234   0.00000  Uiso   1.00
C1130  C     0.83792   0.16432   0.56568   0.00000  Uiso   1.00
C1131  C     0.92032   0.17025   0.56614   0.00000  Uiso   1.00
C1132  C     0.79422   0.17812   0.90626   0.00000  Uiso   1.00
C1133  C     0.87683   0.30992   0.74543   0.00000  Uiso   1.00
C1134  C     0.80806   0.16986   0.84962   0.00000  Uiso   1.00
C1135  C     0.87811   0.01912   0.74343   0.00000  Uiso   1.00
C1136  C     0.83523   0.04270   0.75060   0.00000  Uiso   1.00
C1137  C     0.79214   0.02280   0.76048   0.00000  Uiso   1.00
C1138  C     0.79474   0.31540   0.74090   0.00000  Uiso   1.00
C1139  C     0.83418   0.29077   0.74592   0.00000  Uiso   1.00
C1140  C     0.96816   0.19941   0.76868   0.00000  Uiso   1.00
C1141  C     0.68384   0.20049   0.76790   0.00000  Uiso   1.00
C1142  C     0.69791   0.13342   0.73152   0.00000  Uiso   1.00
C1143  C     0.98253   0.13339   0.73054   0.00000  Uiso   1.00
C1144  C     0.83402   0.08754   0.75078   0.00000  Uiso   1.00
C1145  C     0.85859   0.16635   0.65040   0.00000  Uiso   1.00
C1146  C     0.93195   0.16781   0.51280   0.00000  Uiso   1.00
C1147  C     0.87245   0.16691   0.59373   0.00000  Uiso   1.00
C1148  C     0.74581   0.17800   0.93427   0.00000  Uiso   1.00
C1149  C     0.73218   0.19114   0.98560   0.00000  Uiso   1.00
C1150  C     0.76601   0.19230   0.51292   0.00000  Uiso   1.00
Cu1151 Cu    0.78645   0.16666   0.75000   0.00000  Uiso   1.00
Cu1152 Cu    0.88022   0.16667   0.75000   0.00000  Uiso   1.00
H1153  H     0.91167   0.03339   0.73913   0.00000  Uiso   1.00
H1154  H     0.94395   0.22571   0.78342   0.00000  Uiso   1.00
H1155  H     0.72175   0.10740   0.71411   0.00000  Uiso   1.00
H1156  H     0.75478   0.20067   0.55308   0.00000  Uiso   1.00
H1157  H     0.69522   0.19762   0.50539   0.00000  Uiso   1.00
H1158  H     0.90945   0.29223   0.74475   0.00000  Uiso   1.00
N1159  N     0.71598   0.16666   0.74998   0.00000  Uiso   1.00
N1160  N     0.95069   0.16669   0.74999   0.00000  Uiso   1.00
O1161  O     0.79375   0.22678   0.75000   0.00000  Uiso   1.00
O1162  O     0.87294   0.22679   0.75000   0.00000  Uiso   1.00
O1163  O     0.77441   0.16665   0.82549   0.00000  Uiso   1.00
O1164  O     0.85360   0.16666   0.82549   0.00000  Uiso   1.00
O1165  O     0.79373   0.10654   0.74999   0.00000  Uiso   1.00
O1166  O     0.87292   0.10655   0.74999   0.00000  Uiso   1.00
O1167  O     0.81306   0.16667   0.67451   0.00000  Uiso   1.00
O1168  O     0.89225   0.16668   0.67451   0.00000  Uiso   1.00
C1169  C     0.95607   0.18545   0.59062   0.00000  Uiso   1.00
C1170  C     0.95336   0.22732   0.60600   0.00000  Uiso   1.00
C1171  C     0.98482   0.24201   0.63236   0.00000  Uiso   1.00
C1172  C     0.68609   0.21511   0.64284   0.00000  Uiso   1.00
C1173  C     0.68873   0.17353   0.62750   0.00000  Uiso   1.00
C1174  C     0.99043   0.15852   0.60176   0.00000  Uiso   1.00
H1175  H     0.92634   0.24831   0.59835   0.00000  Uiso   1.00
H1176  H     0.98213   0.27411   0.64482   0.00000  Uiso   1.00
H1177  H     0.71086   0.22631   0.66287   0.00000  Uiso   1.00
H1178  H     0.71495   0.15264   0.63607   0.00000  Uiso   1.00
H1179  H     0.99215   0.12597   0.59152   0.00000  Uiso   1.00
C1180  C     0.75937   0.03297   0.81178   0.00000  Uiso   1.00
C1181  C     0.77182   0.01945   0.85551   0.00000  Uiso   1.00
C1182  C     0.74370   0.03192   0.90433   0.00000  Uiso   1.00
C1183  C     0.70302   0.05805   0.90998   0.00000  Uiso   1.00
C1184  C     0.69027   0.07153   0.86677   0.00000  Uiso   1.00
C1185  C     0.71827   0.05897   0.81794   0.00000  Uiso   1.00
H1186  H     0.80367   0.33305   0.85176   0.00000  Uiso   1.00
H1187  H     0.75355   0.02145   0.93776   0.00000  Uiso   1.00
H1188  H     0.68125   0.06765   0.94776   0.00000  Uiso   1.00
H1189  H     0.99191   0.09158   0.87114   0.00000  Uiso   1.00
H1190  H     0.70759   0.06924   0.78525   0.00000  Uiso   1.00
C1191  C     0.77655   0.30868   0.69445   0.00000  Uiso   1.00
C1192  C     0.80066   0.28091   0.65358   0.00000  Uiso   1.00
C1193  C     0.78602   0.27798   0.60864   0.00000  Uiso   1.00
C1194  C     0.74739   0.30269   0.60325   0.00000  Uiso   1.00
C1195  C     0.72328   0.33045   0.64284   0.00000  Uiso   1.00
C1196  C     0.73784   0.00031   0.68782   0.00000  Uiso   1.00
H1197  H     0.83193   0.26229   0.65503   0.00000  Uiso   1.00
H1198  H     0.80514   0.25685   0.57765   0.00000  Uiso   1.00
H1199  H     0.73614   0.30031   0.56838   0.00000  Uiso   1.00
H1200  H     0.69335   0.01639   0.63863   0.00000  Uiso   1.00
H1201  H     0.71870   0.02247   0.71735   0.00000  Uiso   1.00
C1202  C     0.69516   0.24004   0.78899   0.00000  Uiso   1.00
C1203  C     0.70109   0.24169   0.83840   0.00000  Uiso   1.00
C1204  C     0.68620   0.27671   0.87068   0.00000  Uiso   1.00
C1205  C     0.99729   0.31022   0.85403   0.00000  Uiso   1.00
C1206  C     0.99539   0.31088   0.80335   0.00000  Uiso   1.00
C1207  C     0.67879   0.27639   0.77055   0.00000  Uiso   1.00
H1208  H     0.71060   0.21445   0.85456   0.00000  Uiso   1.00
H1209  H     0.68823   0.27648   0.90990   0.00000  Uiso   1.00
H1210  H     0.98081   0.00197   0.88069   0.00000  Uiso   1.00
H1211  H     0.97868   0.00388   0.79019   0.00000  Uiso   1.00
H1212  H     0.67230   0.27600   0.73312   0.00000  Uiso   1.00
O1213  O     0.96952   0.10002   0.70632   0.00000  Uiso   1.00
H1214  H     0.94583   0.11031   0.68890   0.00000  Uiso   1.00
O1215  O     0.95477   0.20576   0.91534   0.00000  Uiso   1.00
H1216  H     0.96933   0.21569   0.94229   0.00000  Uiso   1.00
O1217  O     0.97439   0.14954   0.98416   0.00000  Uiso   1.00
H1218  H     0.98968   0.13367   0.50663   0.00000  Uiso   1.00
O1219  O     0.79587   0.14569   0.58468   0.00000  Uiso   1.00
H1220  H     0.80189   0.12333   0.60650   0.00000  Uiso   1.00
O1221  O     0.71137   0.16448   0.91299   0.00000  Uiso   1.00
H1222  H     0.72409   0.13795   0.89480   0.00000  Uiso   1.00
O1223  O     0.88052   0.22432   0.87086   0.00000  Uiso   1.00
H1224  H     0.90898   0.24040   0.86842   0.00000  Uiso   1.00
C1225  C     0.16644   0.57920   0.74868   0.00000  Uiso   1.00
C1226  C     0.14751   0.51738   0.98799   0.00000  Uiso   1.00
C1227  C     0.16156   0.51951   0.93425   0.00000  Uiso   1.00
C1228  C     0.18230   0.51078   0.51492   0.00000  Uiso   1.00
C1229  C     0.23058   0.51305   0.98838   0.00000  Uiso   1.00
C1230  C     0.24284   0.52765   0.93842   0.00000  Uiso   1.00
C1231  C     0.20737   0.53302   0.91234   0.00000  Uiso   1.00
C1232  C     0.17126   0.49765   0.56568   0.00000  Uiso   1.00
C1233  C     0.25365   0.50358   0.56614   0.00000  Uiso   1.00
C1234  C     0.12756   0.51146   0.90626   0.00000  Uiso   1.00
C1235  C     0.21017   0.64325   0.74543   0.00000  Uiso   1.00
C1236  C     0.14139   0.50319   0.84962   0.00000  Uiso   1.00
C1237  C     0.21144   0.35246   0.74343   0.00000  Uiso   1.00
C1238  C     0.16856   0.37603   0.75060   0.00000  Uiso   1.00
C1239  C     0.12547   0.35613   0.76048   0.00000  Uiso   1.00
C1240  C     0.12807   0.64873   0.74090   0.00000  Uiso   1.00
C1241  C     0.16751   0.62410   0.74592   0.00000  Uiso   1.00
C1242  C     0.30149   0.53275   0.76868   0.00000  Uiso   1.00
C1243  C     0.01717   0.53382   0.76790   0.00000  Uiso   1.00
C1244  C     0.03125   0.46675   0.73152   0.00000  Uiso   1.00
C1245  C     0.31587   0.46672   0.73054   0.00000  Uiso   1.00
C1246  C     0.16735   0.42087   0.75078   0.00000  Uiso   1.00
C1247  C     0.19192   0.49968   0.65040   0.00000  Uiso   1.00
C1248  C     0.26529   0.50114   0.51280   0.00000  Uiso   1.00
C1249  C     0.20578   0.50025   0.59373   0.00000  Uiso   1.00
C1250  C     0.07914   0.51133   0.93427   0.00000  Uiso   1.00
C1251  C     0.06552   0.52448   0.98560   0.00000  Uiso   1.00
C1252  C     0.09934   0.52563   0.51292   0.00000  Uiso   1.00
Cu1253 Cu    0.11978   0.49999   0.75000   0.00000  Uiso   1.00
Cu1254 Cu    0.21355   0.50001   0.75000   0.00000  Uiso   1.00
H1255  H     0.24500   0.36672   0.73913   0.00000  Uiso   1.00
H1256  H     0.27728   0.55905   0.78342   0.00000  Uiso   1.00
H1257  H     0.05509   0.44073   0.71411   0.00000  Uiso   1.00
H1258  H     0.08811   0.53401   0.55308   0.00000  Uiso   1.00
H1259  H     0.02856   0.53096   0.50539   0.00000  Uiso   1.00
H1260  H     0.24279   0.62557   0.74475   0.00000  Uiso   1.00
N1261  N     0.04931   0.49999   0.74998   0.00000  Uiso   1.00
N1262  N     0.28402   0.50002   0.74999   0.00000  Uiso   1.00
O1263  O     0.12708   0.56011   0.75000   0.00000  Uiso   1.00
O1264  O     0.20627   0.56012   0.75000   0.00000  Uiso   1.00
O1265  O     0.10775   0.49998   0.82549   0.00000  Uiso   1.00
O1266  O     0.18694   0.49999   0.82549   0.00000  Uiso   1.00
O1267  O     0.12706   0.43988   0.74999   0.00000  Uiso   1.00
O1268  O     0.20625   0.43989   0.74999   0.00000  Uiso   1.00
O1269  O     0.14640   0.50001   0.67451   0.00000  Uiso   1.00
O1270  O     0.22559   0.50002   0.67451   0.00000  Uiso   1.00
C1271  C     0.28940   0.51878   0.59062   0.00000  Uiso   1.00
C1272  C     0.28670   0.56065   0.60600   0.00000  Uiso   1.00
C1273  C     0.31815   0.57534   0.63236   0.00000  Uiso   1.00
C1274  C     0.01942   0.54845   0.64284   0.00000  Uiso   1.00
C1275  C     0.02206   0.50687   0.62750   0.00000  Uiso   1.00
C1276  C     0.32376   0.49185   0.60176   0.00000  Uiso   1.00
H1277  H     0.25967   0.58164   0.59835   0.00000  Uiso   1.00
H1278  H     0.31546   0.60745   0.64482   0.00000  Uiso   1.00
H1279  H     0.04419   0.55964   0.66287   0.00000  Uiso   1.00
H1280  H     0.04828   0.48598   0.63607   0.00000  Uiso   1.00
H1281  H     0.32549   0.45931   0.59152   0.00000  Uiso   1.00
C1282  C     0.09270   0.36630   0.81178   0.00000  Uiso   1.00
C1283  C     0.10515   0.35278   0.85551   0.00000  Uiso   1.00
C1284  C     0.07703   0.36526   0.90433   0.00000  Uiso   1.00
C1285  C     0.03636   0.39138   0.90998   0.00000  Uiso   1.00
C1286  C     0.02360   0.40486   0.86677   0.00000  Uiso   1.00
C1287  C     0.05160   0.39230   0.81794   0.00000  Uiso   1.00
H1288  H     0.13701   0.66639   0.85176   0.00000  Uiso   1.00
H1289  H     0.08688   0.35478   0.93776   0.00000  Uiso   1.00
H1290  H     0.01458   0.40098   0.94776   0.00000  Uiso   1.00
H1291  H     0.32524   0.42491   0.87114   0.00000  Uiso   1.00
H1292  H     0.04092   0.40258   0.78525   0.00000  Uiso   1.00
C1293  C     0.10988   0.64201   0.69445   0.00000  Uiso   1.00
C1294  C     0.13399   0.61425   0.65358   0.00000  Uiso   1.00
C1295  C     0.11936   0.61132   0.60864   0.00000  Uiso   1.00
C1296  C     0.08072   0.63602   0.60325   0.00000  Uiso   1.00
C1297  C     0.05662   0.66379   0.64284   0.00000  Uiso   1.00
C1298  C     0.07117   0.33364   0.68782   0.00000  Uiso   1.00
H1299  H     0.16526   0.59562   0.65503   0.00000  Uiso   1.00
H1300  H     0.13847   0.59018   0.57765   0.00000  Uiso   1.00
H1301  H     0.06947   0.63365   0.56838   0.00000  Uiso   1.00
H1302  H     0.02668   0.34972   0.63863   0.00000  Uiso   1.00
H1303  H     0.05203   0.35580   0.71735   0.00000  Uiso   1.00
C1304  C     0.02849   0.57338   0.78899   0.00000  Uiso   1.00
C1305  C     0.03443   0.57502   0.83840   0.00000  Uiso   1.00
C1306  C     0.01954   0.61004   0.87068   0.00000  Uiso   1.00
C1307  C     0.33063   0.64356   0.85403   0.00000  Uiso   1.00
C1308  C     0.32872   0.64421   0.80335   0.00000  Uiso   1.00
C1309  C     0.01213   0.60972   0.77055   0.00000  Uiso   1.00
H1310  H     0.04393   0.54778   0.85456   0.00000  Uiso   1.00
H1311  H     0.02156   0.60982   0.90990   0.00000  Uiso   1.00
H1312  H     0.31414   0.33530   0.88069   0.00000  Uiso   1.00
H1313  H     0.31201   0.33721   0.79019   0.00000  Uiso   1.00
H1314  H     0.00563   0.60934   0.73312   0.00000  Uiso   1.00
O1315  O     0.30285   0.43335   0.70632   0.00000  Uiso   1.00
H1316  H     0.27916   0.44364   0.68890   0.00000  Uiso   1.00
O1317  O     0.28810   0.53910   0.91534   0.00000  Uiso   1.00
H1318  H     0.30266   0.54902   0.94229   0.00000  Uiso   1.00
O1319  O     0.30772   0.48287   0.98416   0.00000  Uiso   1.00
H1320  H     0.32301   0.46701   0.50663   0.00000  Uiso   1.00
O1321  O     0.12921   0.47902   0.58468   0.00000  Uiso   1.00
H1322  H     0.13523   0.45666   0.60650   0.00000  Uiso   1.00
O1323  O     0.04470   0.49781   0.91299   0.00000  Uiso   1.00
H1324  H     0.05742   0.47128   0.89480   0.00000  Uiso   1.00
O1325  O     0.21386   0.55765   0.87086   0.00000  Uiso   1.00
H1326  H     0.24231   0.57373   0.86842   0.00000  Uiso   1.00
C1327  C     0.49977   0.57920   0.74868   0.00000  Uiso   1.00
C1328  C     0.48084   0.51738   0.98799   0.00000  Uiso   1.00
C1329  C     0.49489   0.51951   0.93425   0.00000  Uiso   1.00
C1330  C     0.51564   0.51078   0.51492   0.00000  Uiso   1.00
C1331  C     0.56391   0.51305   0.98838   0.00000  Uiso   1.00
C1332  C     0.57618   0.52765   0.93842   0.00000  Uiso   1.00
C1333  C     0.54070   0.53302   0.91234   0.00000  Uiso   1.00
C1334  C     0.50459   0.49765   0.56568   0.00000  Uiso   1.00
C1335  C     0.58699   0.50358   0.56614   0.00000  Uiso   1.00
C1336  C     0.46089   0.51146   0.90626   0.00000  Uiso   1.00
C1337  C     0.54350   0.64325   0.74543   0.00000  Uiso   1.00
C1338  C     0.47473   0.50319   0.84962   0.00000  Uiso   1.00
C1339  C     0.54477   0.35246   0.74343   0.00000  Uiso   1.00
C1340  C     0.50189   0.37603   0.75060   0.00000  Uiso   1.00
C1341  C     0.45881   0.35613   0.76048   0.00000  Uiso   1.00
C1342  C     0.46141   0.64873   0.74090   0.00000  Uiso   1.00
C1343  C     0.50085   0.62410   0.74592   0.00000  Uiso   1.00
C1344  C     0.63483   0.53275   0.76868   0.00000  Uiso   1.00
C1345  C     0.35050   0.53382   0.76790   0.00000  Uiso   1.00
C1346  C     0.36458   0.46675   0.73152   0.00000  Uiso   1.00
C1347  C     0.64920   0.46672   0.73054   0.00000  Uiso   1.00
C1348  C     0.50069   0.42087   0.75078   0.00000  Uiso   1.00
C1349  C     0.52526   0.49968   0.65040   0.00000  Uiso   1.00
C1350  C     0.59862   0.50114   0.51280   0.00000  Uiso   1.00
C1351  C     0.53912   0.50025   0.59373   0.00000  Uiso   1.00
C1352  C     0.41248   0.51133   0.93427   0.00000  Uiso   1.00
C1353  C     0.39885   0.52448   0.98560   0.00000  Uiso   1.00
C1354  C     0.43267   0.52563   0.51292   0.00000  Uiso   1.00
Cu1355 Cu    0.45311   0.49999   0.75000   0.00000  Uiso   1.00
Cu1356 Cu    0.54689   0.50001   0.75000   0.00000  Uiso   1.00
H1357  H     0.57834   0.36672   0.73913   0.00000  Uiso   1.00
H1358  H     0.61062   0.55905   0.78342   0.00000  Uiso   1.00
H1359  H     0.38842   0.44073   0.71411   0.00000  Uiso   1.00
H1360  H     0.42144   0.53401   0.55308   0.00000  Uiso   1.00
H1361  H     0.36189   0.53096   0.50539   0.00000  Uiso   1.00
H1362  H     0.57612   0.62557   0.74475   0.00000  Uiso   1.00
N1363  N     0.38265   0.49999   0.74998   0.00000  Uiso   1.00
N1364  N     0.61735   0.50002   0.74999   0.00000  Uiso   1.00
O1365  O     0.46042   0.56011   0.75000   0.00000  Uiso   1.00
O1366  O     0.53961   0.56012   0.75000   0.00000  Uiso   1.00
O1367  O     0.44108   0.49998   0.82549   0.00000  Uiso   1.00
O1368  O     0.52027   0.49999   0.82549   0.00000  Uiso   1.00
O1369  O     0.46039   0.43988   0.74999   0.00000  Uiso   1.00
O1370  O     0.53958   0.43989   0.74999   0.00000  Uiso   1.00
O1371  O     0.47973   0.50001   0.67451   0.00000  Uiso   1.00
O1372  O     0.55892   0.50002   0.67451   0.00000  Uiso   1.00
C1373  C     0.62274   0.51878   0.59062   0.00000  Uiso   1.00
C1374  C     0.62003   0.56065   0.60600   0.00000  Uiso   1.00
C1375  C     0.65149   0.57534   0.63236   0.00000  Uiso   1.00
C1376  C     0.35276   0.54845   0.64284   0.00000  Uiso   1.00
C1377  C     0.35539   0.50687   0.62750   0.00000  Uiso   1.00
C1378  C     0.65710   0.49185   0.60176   0.00000  Uiso   1.00
H1379  H     0.59301   0.58164   0.59835   0.00000  Uiso   1.00
H1380  H     0.64880   0.60745   0.64482   0.00000  Uiso   1.00
H1381  H     0.37753   0.55964   0.66287   0.00000  Uiso   1.00
H1382  H     0.38162   0.48598   0.63607   0.00000  Uiso   1.00
H1383  H     0.65882   0.45931   0.59152   0.00000  Uiso   1.00
C1384  C     0.42603   0.36630   0.81178   0.00000  Uiso   1.00
C1385  C     0.43848   0.35278   0.85551   0.00000  Uiso   1.00
C1386  C     0.41036   0.36526   0.90433   0.00000  Uiso   1.00
C1387  C     0.36969   0.39138   0.90998   0.00000  Uiso   1.00
C1388  C     0.35693   0.40486   0.86677   0.00000  Uiso   1.00
C1389  C     0.38494   0.39230   0.81794   0.00000  Uiso   1.00
H1390  H     0.47034   0.66639   0.85176   0.00000  Uiso   1.00
H1391  H     0.42021   0.35478   0.93776   0.00000  Uiso   1.00
H1392  H     0.34791   0.40098   0.94776   0.00000  Uiso   1.00
H1393  H     0.65857   0.42491   0.87114   0.00000  Uiso   1.00
H1394  H     0.37426   0.40258   0.78525   0.00000  Uiso   1.00
C1395  C     0.44322   0.64201   0.69445   0.00000  Uiso   1.00
C1396  C     0.46732   0.61425   0.65358   0.00000  Uiso   1.00
C1397  C     0.45269   0.61132   0.60864   0.00000  Uiso   1.00
C1398  C     0.41405   0.63602   0.60325   0.00000  Uiso   1.00
C1399  C     0.38995   0.66379   0.64284   0.00000  Uiso   1.00
C1400  C     0.40450   0.33364   0.68782   0.00000  Uiso   1.00
H1401  H     0.49860   0.59562   0.65503   0.00000  Uiso   1.00
H1402  H     0.47181   0.59018   0.57765   0.00000  Uiso   1.00
H1403  H     0.40280   0.63365   0.56838   0.00000  Uiso   1.00
H1404  H     0.36002   0.34972   0.63863   0.00000  Uiso   1.00
H1405  H     0.38536   0.35580   0.71735   0.00000  Uiso   1.00
C1406  C     0.36182   0.57338   0.78899   0.00000  Uiso   1.00
C1407  C     0.36776   0.57502   0.83840   0.00000  Uiso   1.00
C1408  C     0.35287   0.61004   0.87068   0.00000  Uiso   1.00
C1409  C     0.66396   0.64356   0.85403   0.00000  Uiso   1.00
C1410  C     0.66206   0.64421   0.80335   0.00000  Uiso   1.00
C1411  C     0.34546   0.60972   0.77055   0.00000  Uiso   1.00
H1412  H     0.37726   0.54778   0.85456   0.00000  Uiso   1.00
H1413  H     0.35490   0.60982   0.90990   0.00000  Uiso   1.00
H1414  H     0.64747   0.33530   0.88069   0.00000  Uiso   1.00
H1415  H     0.64535   0.33721   0.79019   0.00000  Uiso   1.00
H1416  H     0.33897   0.60934   0.73312   0.00000  Uiso   1.00
O1417  O     0.63618   0.43335   0.70632   0.00000  Uiso   1.00
H1418  H     0.61249   0.44364   0.68890   0.00000  Uiso   1.00
O1419  O     0.62143   0.53910   0.91534   0.00000  Uiso   1.00
H1420  H     0.63600   0.54902   0.94229   0.00000  Uiso   1.00
O1421  O     0.64106   0.48287   0.98416   0.00000  Uiso   1.00
H1422  H     0.65634   0.46701   0.50663   0.00000  Uiso   1.00
O1423  O     0.46254   0.47902   0.58468   0.00000  Uiso   1.00
H1424  H     0.46856   0.45666   0.60650   0.00000  Uiso   1.00
O1425  O     0.37803   0.49781   0.91299   0.00000  Uiso   1.00
H1426  H     0.39076   0.47128   0.89480   0.00000  Uiso   1.00
O1427  O     0.54719   0.55765   0.87086   0.00000  Uiso   1.00
H1428  H     0.57564   0.57373   0.86842   0.00000  Uiso   1.00
C1429  C     0.83311   0.57920   0.74868   0.00000  Uiso   1.00
C1430  C     0.81417   0.51738   0.98799   0.00000  Uiso   1.00
C1431  C     0.82822   0.51951   0.93425   0.00000  Uiso   1.00
C1432  C     0.84897   0.51078   0.51492   0.00000  Uiso   1.00
C1433  C     0.89724   0.51305   0.98838   0.00000  Uiso   1.00
C1434  C     0.90951   0.52765   0.93842   0.00000  Uiso   1.00
C1435  C     0.87403   0.53302   0.91234   0.00000  Uiso   1.00
C1436  C     0.83792   0.49765   0.56568   0.00000  Uiso   1.00
C1437  C     0.92032   0.50358   0.56614   0.00000  Uiso   1.00
C1438  C     0.79422   0.51146   0.90626   0.00000  Uiso   1.00
C1439  C     0.87683   0.64325   0.74543   0.00000  Uiso   1.00
C1440  C     0.80806   0.50319   0.84962   0.00000  Uiso   1.00
C1441  C     0.87811   0.35246   0.74343   0.00000  Uiso   1.00
C1442  C     0.83523   0.37603   0.75060   0.00000  Uiso   1.00
C1443  C     0.79214   0.35613   0.76048   0.00000  Uiso   1.00
C1444  C     0.79474   0.64873   0.74090   0.00000  Uiso   1.00
C1445  C     0.83418   0.62410   0.74592   0.00000  Uiso   1.00
C1446  C     0.96816   0.53275   0.76868   0.00000  Uiso   1.00
C1447  C     0.68384   0.53382   0.76790   0.00000  Uiso   1.00
C1448  C     0.69791   0.46675   0.73152   0.00000  Uiso   1.00
C1449  C     0.98253   0.46672   0.73054   0.00000  Uiso   1.00
C1450  C     0.83402   0.42087   0.75078   0.00000  Uiso   1.00
C1451  C     0.85859   0.49968   0.65040   0.00000  Uiso   1.00
C1452  C     0.93195   0.50114   0.51280   0.00000  Uiso   1.00
C1453  C     0.87245   0.50025   0.59373   0.00000  Uiso   1.00
C1454  C     0.74581   0.51133   0.93427   0.00000  Uiso   1.00
C1455  C     0.73218   0.52448   0.98560   0.00000  Uiso   1.00
C1456  C     0.76601   0.52563   0.51292   0.00000  Uiso   1.00
Cu1457 Cu    0.78645   0.49999   0.75000   0.00000  Uiso   1.00
Cu1458 Cu    0.88022   0.50001   0.75000   0.00000  Uiso   1.00
H1459  H     0.91167   0.36672   0.73913   0.00000  Uiso   1.00
H1460  H     0.94395   0.55905   0.78342   0.00000  Uiso   1.00
H1461  H     0.72175   0.44073   0.71411   0.00000  Uiso   1.00
H1462  H     0.75478   0.53401   0.55308   0.00000  Uiso   1.00
H1463  H     0.69522   0.53096   0.50539   0.00000  Uiso   1.00
H1464  H     0.90945   0.62557   0.74475   0.00000  Uiso   1.00
N1465  N     0.71598   0.49999   0.74998   0.00000  Uiso   1.00
N1466  N     0.95069   0.50002   0.74999   0.00000  Uiso   1.00
O1467  O     0.79375   0.56011   0.75000   0.00000  Uiso   1.00
O1468  O     0.87294   0.56012   0.75000   0.00000  Uiso   1.00
O1469  O     0.77441   0.49998   0.82549   0.00000  Uiso   1.00
O1470  O     0.85360   0.49999   0.82549   0.00000  Uiso   1.00
O1471  O     0.79373   0.43988   0.74999   0.00000  Uiso   1.00
O1472  O     0.87292   0.43989   0.74999   0.00000  Uiso   1.00
O1473  O     0.81306   0.50001   0.67451   0.00000  Uiso   1.00
O1474  O     0.89225   0.50002   0.67451   0.00000  Uiso   1.00
C1475  C     0.95607   0.51878   0.59062   0.00000  Uiso   1.00
C1476  C     0.95336   0.56065   0.60600   0.00000  Uiso   1.00
C1477  C     0.98482   0.57534   0.63236   0.00000  Uiso   1.00
C1478  C     0.68609   0.54845   0.64284   0.00000  Uiso   1.00
C1479  C     0.68873   0.50687   0.62750   0.00000  Uiso   1.00
C1480  C     0.99043   0.49185   0.60176   0.00000  Uiso   1.00
H1481  H     0.92634   0.58164   0.59835   0.00000  Uiso   1.00
H1482  H     0.98213   0.60745   0.64482   0.00000  Uiso   1.00
H1483  H     0.71086   0.55964   0.66287   0.00000  Uiso   1.00
H1484  H     0.71495   0.48598   0.63607   0.00000  Uiso   1.00
H1485  H     0.99215   0.45931   0.59152   0.00000  Uiso   1.00
C1486  C     0.75937   0.36630   0.81178   0.00000  Uiso   1.00
C1487  C     0.77182   0.35278   0.85551   0.00000  Uiso   1.00
C1488  C     0.74370   0.36526   0.90433   0.00000  Uiso   1.00
C1489  C     0.70302   0.39138   0.90998   0.00000  Uiso   1.00
C1490  C     0.69027   0.40486   0.86677   0.00000  Uiso   1.00
C1491  C     0.71827   0.39230   0.81794   0.00000  Uiso   1.00
H1492  H     0.80367   0.66639   0.85176   0.00000  Uiso   1.00
H1493  H     0.75355   0.35478   0.93776   0.00000  Uiso   1.00
H1494  H     0.68125   0.40098   0.94776   0.00000  Uiso   1.00
H1495  H     0.99191   0.42491   0.87114   0.00000  Uiso   1.00
H1496  H     0.70759   0.40258   0.78525   0.00000  Uiso   1.00
C1497  C     0.77655   0.64201   0.69445   0.00000  Uiso   1.00
C1498  C     0.80066   0.61425   0.65358   0.00000  Uiso   1.00
C1499  C     0.78602   0.61132   0.60864   0.00000  Uiso   1.00
C1500  C     0.74739   0.63602   0.60325   0.00000  Uiso   1.00
C1501  C     0.72328   0.66379   0.64284   0.00000  Uiso   1.00
C1502  C     0.73784   0.33364   0.68782   0.00000  Uiso   1.00
H1503  H     0.83193   0.59562   0.65503   0.00000  Uiso   1.00
H1504  H     0.80514   0.59018   0.57765   0.00000  Uiso   1.00
H1505  H     0.73614   0.63365   0.56838   0.00000  Uiso   1.00
H1506  H     0.69335   0.34972   0.63863   0.00000  Uiso   1.00
H1507  H     0.71870   0.35580   0.71735   0.00000  Uiso   1.00
C1508  C     0.69516   0.57338   0.78899   0.00000  Uiso   1.00
C1509  C     0.70109   0.57502   0.83840   0.00000  Uiso   1.00
C1510  C     0.68620   0.61004   0.87068   0.00000  Uiso   1.00
C1511  C     0.99729   0.64356   0.85403   0.00000  Uiso   1.00
C1512  C     0.99539   0.64421   0.80335   0.00000  Uiso   1.00
C1513  C     0.67879   0.60972   0.77055   0.00000  Uiso   1.00
H1514  H     0.71060   0.54778   0.85456   0.00000  Uiso   1.00
H1515  H     0.68823   0.60982   0.90990   0.00000  Uiso   1.00
H1516  H     0.98081   0.33530   0.88069   0.00000  Uiso   1.00
H1517  H     0.97868   0.33721   0.79019   0.00000  Uiso   1.00
H1518  H     0.67230   0.60934   0.73312   0.00000  Uiso   1.00
O1519  O     0.96952   0.43335   0.70632   0.00000  Uiso   1.00
H1520  H     0.94583   0.44364   0.68890   0.00000  Uiso   1.00
O1521  O     0.95477   0.53910   0.91534   0.00000  Uiso   1.00
H1522  H     0.96933   0.54902   0.94229   0.00000  Uiso   1.00
O1523  O     0.97439   0.48287   0.98416   0.00000  Uiso   1.00
H1524  H     0.98968   0.46701   0.50663   0.00000  Uiso   1.00
O1525  O     0.79587   0.47902   0.58468   0.00000  Uiso   1.00
H1526  H     0.80189   0.45666   0.60650   0.00000  Uiso   1.00
O1527  O     0.71137   0.49781   0.91299   0.00000  Uiso   1.00
H1528  H     0.72409   0.47128   0.89480   0.00000  Uiso   1.00
O1529  O     0.88052   0.55765   0.87086   0.00000  Uiso   1.00
H1530  H     0.90898   0.57373   0.86842   0.00000  Uiso   1.00
C1531  C     0.16644   0.91254   0.74868   0.00000  Uiso   1.00
C1532  C     0.14751   0.85071   0.98799   0.00000  Uiso   1.00
C1533  C     0.16156   0.85285   0.93425   0.00000  Uiso   1.00
C1534  C     0.18230   0.84411   0.51492   0.00000  Uiso   1.00
C1535  C     0.23058   0.84639   0.98838   0.00000  Uiso   1.00
C1536  C     0.24284   0.86098   0.93842   0.00000  Uiso   1.00
C1537  C     0.20737   0.86636   0.91234   0.00000  Uiso   1.00
C1538  C     0.17126   0.83098   0.56568   0.00000  Uiso   1.00
C1539  C     0.25365   0.83692   0.56614   0.00000  Uiso   1.00
C1540  C     0.12756   0.84479   0.90626   0.00000  Uiso   1.00
C1541  C     0.21017   0.97659   0.74543   0.00000  Uiso   1.00
C1542  C     0.14139   0.83653   0.84962   0.00000  Uiso   1.00
C1543  C     0.21144   0.68579   0.74343   0.00000  Uiso   1.00
C1544  C     0.16856   0.70936   0.75060   0.00000  Uiso   1.00
C1545  C     0.12547   0.68946   0.76048   0.00000  Uiso   1.00
C1546  C     0.12807   0.98207   0.74090   0.00000  Uiso   1.00
C1547  C     0.16751   0.95744   0.74592   0.00000  Uiso   1.00
C1548  C     0.30149   0.86608   0.76868   0.00000  Uiso   1.00
C1549  C     0.01717   0.86715   0.76790   0.00000  Uiso   1.00
C1550  C     0.03125   0.80009   0.73152   0.00000  Uiso   1.00
C1551  C     0.31587   0.80006   0.73054   0.00000  Uiso   1.00
C1552  C     0.16735   0.75420   0.75078   0.00000  Uiso   1.00
C1553  C     0.19192   0.83301   0.65040   0.00000  Uiso   1.00
C1554  C     0.26529   0.83447   0.51280   0.00000  Uiso   1.00
C1555  C     0.20578   0.83358   0.59373   0.00000  Uiso   1.00
C1556  C     0.07914   0.84467   0.93427   0.00000  Uiso   1.00
C1557  C     0.06552   0.85781   0.98560   0.00000  Uiso   1.00
C1558  C     0.09934   0.85897   0.51292   0.00000  Uiso   1.00
Cu1559 Cu    0.11978   0.83333   0.75000   0.00000  Uiso   1.00
Cu1560 Cu    0.21355   0.83334   0.75000   0.00000  Uiso   1.00
H1561  H     0.24500   0.70005   0.73913   0.00000  Uiso   1.00
H1562  H     0.27728   0.89238   0.78342   0.00000  Uiso   1.00
H1563  H     0.05509   0.77406   0.71411   0.00000  Uiso   1.00
H1564  H     0.08811   0.86734   0.55308   0.00000  Uiso   1.00
H1565  H     0.02856   0.86429   0.50539   0.00000  Uiso   1.00
H1566  H     0.24279   0.95890   0.74475   0.00000  Uiso   1.00
N1567  N     0.04931   0.83332   0.74998   0.00000  Uiso   1.00
N1568  N     0.28402   0.83335   0.74999   0.00000  Uiso   1.00
O1569  O     0.12708   0.89345   0.75000   0.00000  Uiso   1.00
O1570  O     0.20627   0.89346   0.75000   0.00000  Uiso   1.00
O1571  O     0.10775   0.83332   0.82549   0.00000  Uiso   1.00
O1572  O     0.18694   0.83333   0.82549   0.00000  Uiso   1.00
O1573  O     0.12706   0.77321   0.74999   0.00000  Uiso   1.00
O1574  O     0.20625   0.77322   0.74999   0.00000  Uiso   1.00
O1575  O     0.14640   0.83334   0.67451   0.00000  Uiso   1.00
O1576  O     0.22559   0.83335   0.67451   0.00000  Uiso   1.00
C1577  C     0.28940   0.85212   0.59062   0.00000  Uiso   1.00
C1578  C     0.28670   0.89398   0.60600   0.00000  Uiso   1.00
C1579  C     0.31815   0.90867   0.63236   0.00000  Uiso   1.00
C1580  C     0.01942   0.88178   0.64284   0.00000  Uiso   1.00
C1581  C     0.02206   0.84020   0.62750   0.00000  Uiso   1.00
C1582  C     0.32376   0.82519   0.60176   0.00000  Uiso   1.00
H1583  H     0.25967   0.91497   0.59835   0.00000  Uiso   1.00
H1584  H     0.31546   0.94078   0.64482   0.00000  Uiso   1.00
H1585  H     0.04419   0.89298   0.66287   0.00000  Uiso   1.00
H1586  H     0.04828   0.81931   0.63607   0.00000  Uiso   1.00
H1587  H     0.32549   0.79264   0.59152   0.00000  Uiso   1.00
C1588  C     0.09270   0.69964   0.81178   0.00000  Uiso   1.00
C1589  C     0.10515   0.68612   0.85551   0.00000  Uiso   1.00
C1590  C     0.07703   0.69859   0.90433   0.00000  Uiso   1.00
C1591  C     0.03636   0.72472   0.90998   0.00000  Uiso   1.00
C1592  C     0.02360   0.73820   0.86677   0.00000  Uiso   1.00
C1593  C     0.05160   0.72564   0.81794   0.00000  Uiso   1.00
H1594  H     0.13701   0.99972   0.85176   0.00000  Uiso   1.00
H1595  H     0.08688   0.68812   0.93776   0.00000  Uiso   1.00
H1596  H     0.01458   0.73431   0.94776   0.00000  Uiso   1.00
H1597  H     0.32524   0.75825   0.87114   0.00000  Uiso   1.00
H1598  H     0.04092   0.73591   0.78525   0.00000  Uiso   1.00
C1599  C     0.10988   0.97535   0.69445   0.00000  Uiso   1.00
C1600  C     0.13399   0.94758   0.65358   0.00000  Uiso   1.00
C1601  C     0.11936   0.94465   0.60864   0.00000  Uiso   1.00
C1602  C     0.08072   0.96935   0.60325   0.00000  Uiso   1.00
C1603  C     0.05662   0.99712   0.64284   0.00000  Uiso   1.00
C1604  C     0.07117   0.66698   0.68782   0.00000  Uiso   1.00
H1605  H     0.16526   0.92895   0.65503   0.00000  Uiso   1.00
H1606  H     0.13847   0.92352   0.57765   0.00000  Uiso   1.00
H1607  H     0.06947   0.96698   0.56838   0.00000  Uiso   1.00
H1608  H     0.02668   0.68306   0.63863   0.00000  Uiso   1.00
H1609  H     0.05203   0.68913   0.71735   0.00000  Uiso   1.00
C1610  C     0.02849   0.90671   0.78899   0.00000  Uiso   1.00
C1611  C     0.03443   0.90836   0.83840   0.00000  Uiso   1.00
C1612  C     0.01954   0.94338   0.87068   0.00000  Uiso   1.00
C1613  C     0.33063   0.97689   0.85403   0.00000  Uiso   1.00
C1614  C     0.32872   0.97755   0.80335   0.00000  Uiso   1.00
C1615  C     0.01213   0.94306   0.77055   0.00000  Uiso   1.00
H1616  H     0.04393   0.88111   0.85456   0.00000  Uiso   1.00
H1617  H     0.02156   0.94315   0.90990   0.00000  Uiso   1.00
H1618  H     0.31414   0.66863   0.88069   0.00000  Uiso   1.00
H1619  H     0.31201   0.67054   0.79019   0.00000  Uiso   1.00
H1620  H     0.00563   0.94267   0.73312   0.00000  Uiso   1.00
O1621  O     0.30285   0.76669   0.70632   0.00000  Uiso   1.00
H1622  H     0.27916   0.77697   0.68890   0.00000  Uiso   1.00
O1623  O     0.28810   0.87243   0.91534   0.00000  Uiso   1.00
H1624  H     0.30266   0.88235   0.94229   0.00000  Uiso   1.00
O1625  O     0.30772   0.81621   0.98416   0.00000  Uiso   1.00
H1626  H     0.32301   0.80034   0.50663   0.00000  Uiso   1.00
O1627  O     0.12921   0.81235   0.58468   0.00000  Uiso   1.00
H1628  H     0.13523   0.79000   0.60650   0.00000  Uiso   1.00
O1629  O     0.04470   0.83114   0.91299   0.00000  Uiso   1.00
H1630  H     0.05742   0.80461   0.89480   0.00000  Uiso   1.00
O1631  O     0.21386   0.89098   0.87086   0.00000  Uiso   1.00
H1632  H     0.24231   0.90706   0.86842   0.00000  Uiso   1.00
C1633  C     0.49977   0.91254   0.74868   0.00000  Uiso   1.00
C1634  C     0.48084   0.85071   0.98799   0.00000  Uiso   1.00
C1635  C     0.49489   0.85285   0.93425   0.00000  Uiso   1.00
C1636  C     0.51564   0.84411   0.51492   0.00000  Uiso   1.00
C1637  C     0.56391   0.84639   0.98838   0.00000  Uiso   1.00
C1638  C     0.57618   0.86098   0.93842   0.00000  Uiso   1.00
C1639  C     0.54070   0.86636   0.91234   0.00000  Uiso   1.00
C1640  C     0.50459   0.83098   0.56568   0.00000  Uiso   1.00
C1641  C     0.58699   0.83692   0.56614   0.00000  Uiso   1.00
C1642  C     0.46089   0.84479   0.90626   0.00000  Uiso   1.00
C1643  C     0.54350   0.97659   0.74543   0.00000  Uiso   1.00
C1644  C     0.47473   0.83653   0.84962   0.00000  Uiso   1.00
C1645  C     0.54477   0.68579   0.74343   0.00000  Uiso   1.00
C1646  C     0.50189   0.70936   0.75060   0.00000  Uiso   1.00
C1647  C     0.45881   0.68946   0.76048   0.00000  Uiso   1.00
C1648  C     0.46141   0.98207   0.74090   0.00000  Uiso   1.00
C1649  C     0.50085   0.95744   0.74592   0.00000  Uiso   1.00
C1650  C     0.63483   0.86608   0.76868   0.00000  Uiso   1.00
C1651  C     0.35050   0.86715   0.76790   0.00000  Uiso   1.00
C1652  C     0.36458   0.80009   0.73152   0.00000  Uiso   1.00
C1653  C     0.64920   0.80006   0.73054   0.00000  Uiso   1.00
C1654  C     0.50069   0.75420   0.75078   0.00000  Uiso   1.00
C1655  C     0.52526   0.83301   0.65040   0.00000  Uiso   1.00
C1656  C     0.59862   0.83447   0.51280   0.00000  Uiso   1.00
C1657  C     0.53912   0.83358   0.59373   0.00000  Uiso   1.00
C1658  C     0.41248   0.84467   0.93427   0.00000  Uiso   1.00
C1659  C     0.39885   0.85781   0.98560   0.00000  Uiso   1.00
C1660  C     0.43267   0.85897   0.51292   0.00000  Uiso   1.00
Cu1661 Cu    0.45311   0.83333   0.75000   0.00000  Uiso   1.00
Cu1662 Cu    0.54689   0.83334   0.75000   0.00000  Uiso   1.00
H1663  H     0.57834   0.70005   0.73913   0.00000  Uiso   1.00
H1664  H     0.61062   0.89238   0.78342   0.00000  Uiso   1.00
H1665  H     0.38842   0.77406   0.71411   0.00000  Uiso   1.00
H1666  H     0.42144   0.86734   0.55308   0.00000  Uiso   1.00
H1667  H     0.36189   0.86429   0.50539   0.00000  Uiso   1.00
H1668  H     0.57612   0.95890   0.74475   0.00000  Uiso   1.00
N1669  N     0.38265   0.83332   0.74998   0.00000  Uiso   1.00
N1670  N     0.61735   0.83335   0.74999   0.00000  Uiso   1.00
O1671  O     0.46042   0.89345   0.75000   0.00000  Uiso   1.00
O1672  O     0.53961   0.89346   0.75000   0.00000  Uiso   1.00
O1673  O     0.44108   0.83332   0.82549   0.00000  Uiso   1.00
O1674  O     0.52027   0.83333   0.82549   0.00000  Uiso   1.00
O1675  O     0.46039   0.77321   0.74999   0.00000  Uiso   1.00
O1676  O     0.53958   0.77322   0.74999   0.00000  Uiso   1.00
O1677  O     0.47973   0.83334   0.67451   0.00000  Uiso   1.00
O1678  O     0.55892   0.83335   0.67451   0.00000  Uiso   1.00
C1679  C     0.62274   0.85212   0.59062   0.00000  Uiso   1.00
C1680  C     0.62003   0.89398   0.60600   0.00000  Uiso   1.00
C1681  C     0.65149   0.90867   0.63236   0.00000  Uiso   1.00
C1682  C     0.35276   0.88178   0.64284   0.00000  Uiso   1.00
C1683  C     0.35539   0.84020   0.62750   0.00000  Uiso   1.00
C1684  C     0.65710   0.82519   0.60176   0.00000  Uiso   1.00
H1685  H     0.59301   0.91497   0.59835   0.00000  Uiso   1.00
H1686  H     0.64880   0.94078   0.64482   0.00000  Uiso   1.00
H1687  H     0.37753   0.89298   0.66287   0.00000  Uiso   1.00
H1688  H     0.38162   0.81931   0.63607   0.00000  Uiso   1.00
H1689  H     0.65882   0.79264   0.59152   0.00000  Uiso   1.00
C1690  C     0.42603   0.69964   0.81178   0.00000  Uiso   1.00
C1691  C     0.43848   0.68612   0.85551   0.00000  Uiso   1.00
C1692  C     0.41036   0.69859   0.90433   0.00000  Uiso   1.00
C1693  C     0.36969   0.72472   0.90998   0.00000  Uiso   1.00
C1694  C     0.35693   0.73820   0.86677   0.00000  Uiso   1.00
C1695  C     0.38494   0.72564   0.81794   0.00000  Uiso   1.00
H1696  H     0.47034   0.99972   0.85176   0.00000  Uiso   1.00
H1697  H     0.42021   0.68812   0.93776   0.00000  Uiso   1.00
H1698  H     0.34791   0.73431   0.94776   0.00000  Uiso   1.00
H1699  H     0.65857   0.75825   0.87114   0.00000  Uiso   1.00
H1700  H     0.37426   0.73591   0.78525   0.00000  Uiso   1.00
C1701  C     0.44322   0.97535   0.69445   0.00000  Uiso   1.00
C1702  C     0.46732   0.94758   0.65358   0.00000  Uiso   1.00
C1703  C     0.45269   0.94465   0.60864   0.00000  Uiso   1.00
C1704  C     0.41405   0.96935   0.60325   0.00000  Uiso   1.00
C1705  C     0.38995   0.99712   0.64284   0.00000  Uiso   1.00
C1706  C     0.40450   0.66698   0.68782   0.00000  Uiso   1.00
H1707  H     0.49860   0.92895   0.65503   0.00000  Uiso   1.00
H1708  H     0.47181   0.92352   0.57765   0.00000  Uiso   1.00
H1709  H     0.40280   0.96698   0.56838   0.00000  Uiso   1.00
H1710  H     0.36002   0.68306   0.63863   0.00000  Uiso   1.00
H1711  H     0.38536   0.68913   0.71735   0.00000  Uiso   1.00
C1712  C     0.36182   0.90671   0.78899   0.00000  Uiso   1.00
C1713  C     0.36776   0.90836   0.83840   0.00000  Uiso   1.00
C1714  C     0.35287   0.94338   0.87068   0.00000  Uiso   1.00
C1715  C     0.66396   0.97689   0.85403   0.00000  Uiso   1.00
C1716  C     0.66206   0.97755   0.80335   0.00000  Uiso   1.00
C1717  C     0.34546   0.94306   0.77055   0.00000  Uiso   1.00
H1718  H     0.37726   0.88111   0.85456   0.00000  Uiso   1.00
H1719  H     0.35490   0.94315   0.90990   0.00000  Uiso   1.00
H1720  H     0.64747   0.66863   0.88069   0.00000  Uiso   1.00
H1721  H     0.64535   0.67054   0.79019   0.00000  Uiso   1.00
H1722  H     0.33897   0.94267   0.73312   0.00000  Uiso   1.00
O1723  O     0.63618   0.76669   0.70632   0.00000  Uiso   1.00
H1724  H     0.61249   0.77697   0.68890   0.00000  Uiso   1.00
O1725  O     0.62143   0.87243   0.91534   0.00000  Uiso   1.00
H1726  H     0.63600   0.88235   0.94229   0.00000  Uiso   1.00
O1727  O     0.64106   0.81621   0.98416   0.00000  Uiso   1.00
H1728  H     0.65634   0.80034   0.50663   0.00000  Uiso   1.00
O1729  O     0.46254   0.81235   0.58468   0.00000  Uiso   1.00
H1730  H     0.46856   0.79000   0.60650   0.00000  Uiso   1.00
O1731  O     0.37803   0.83114   0.91299   0.00000  Uiso   1.00
H1732  H     0.39076   0.80461   0.89480   0.00000  Uiso   1.00
O1733  O     0.54719   0.89098   0.87086   0.00000  Uiso   1.00
H1734  H     0.57564   0.90706   0.86842   0.00000  Uiso   1.00
C1735  C     0.83311   0.91254   0.74868   0.00000  Uiso   1.00
C1736  C     0.81417   0.85071   0.98799   0.00000  Uiso   1.00
C1737  C     0.82822   0.85285   0.93425   0.00000  Uiso   1.00
C1738  C     0.84897   0.84411   0.51492   0.00000  Uiso   1.00
C1739  C     0.89724   0.84639   0.98838   0.00000  Uiso   1.00
C1740  C     0.90951   0.86098   0.93842   0.00000  Uiso   1.00
C1741  C     0.87403   0.86636   0.91234   0.00000  Uiso   1.00
C1742  C     0.83792   0.83098   0.56568   0.00000  Uiso   1.00
C1743  C     0.92032   0.83692   0.56614   0.00000  Uiso   1.00
C1744  C     0.79422   0.84479   0.90626   0.00000  Uiso   1.00
C1745  C     0.87683   0.97659   0.74543   0.00000  Uiso   1.00
C1746  C     0.80806   0.83653   0.84962   0.00000  Uiso   1.00
C1747  C     0.87811   0.68579   0.74343   0.00000  Uiso   1.00
C1748  C     0.83523   0.70936   0.75060   0.00000  Uiso   1.00
C1749  C     0.79214   0.68946   0.76048   0.00000  Uiso   1.00
C1750  C     0.79474   0.98207   0.74090   0.00000  Uiso   1.00
C1751  C     0.83418   0.95744   0.74592   0.00000  Uiso   1.00
C1752  C     0.96816   0.86608   0.76868   0.00000  Uiso   1.00
C1753  C     0.68384   0.86715   0.76790   0.00000  Uiso   1.00
C1754  C     0.69791   0.80009   0.73152   0.00000  Uiso   1.00
C1755  C     0.98253   0.80006   0.73054   0.00000  Uiso   1.00
C1756  C     0.83402   0.75420   0.75078   0.00000  Uiso   1.00
C1757  C     0.85859   0.83301   0.65040   0.00000  Uiso   1.00
C1758  C     0.93195   0.83447   0.51280   0.00000  Uiso   1.00
C1759  C     0.87245   0.83358   0.59373   0.00000  Uiso   1.00
C1760  C     0.74581   0.84467   0.93427   0.00000  Uiso   1.00
C1761  C     0.73218   0.85781   0.98560   0.00000  Uiso   1.00
C1762  C     0.76601   0.85897   0.51292   0.00000  Uiso   1.00
Cu1763 Cu    0.78645   0.83333   0.75000   0.00000  Uiso   1.00
Cu1764 Cu    0.88022   0.83334   0.75000   0.00000  Uiso   1.00
H1765  H     0.91167   0.70005   0.73913   0.00000  Uiso   1.00
H1766  H     0.94395   0.89238   0.78342   0.00000  Uiso   1.00
H1767  H     0.72175   0.77406   0.71411   0.00000  Uiso   1.00
H1768  H     0.75478   0.86734   0.55308   0.00000  Uiso   1.00
H1769  H     0.69522   0.86429   0.50539   0.00000  Uiso   1.00
H1770  H     0.90945   0.95890   0.74475   0.00000  Uiso   1.00
N1771  N     0.71598   0.83332   0.74998   0.00000  Uiso   1.00
N1772  N     0.95069   0.83335   0.74999   0.00000  Uiso   1.00
O1773  O     0.79375   0.89345   0.75000   0.00000  Uiso   1.00
O1774  O     0.87294   0.89346   0.75000   0.00000  Uiso   1.00
O1775  O     0.77441   0.83332   0.82549   0.00000  Uiso   1.00
O1776  O     0.85360   0.83333   0.82549   0.00000  Uiso   1.00
O1777  O     0.79373   0.77321   0.74999   0.00000  Uiso   1.00
O1778  O     0.87292   0.77322   0.74999   0.00000  Uiso   1.00
O1779  O     0.81306   0.83334   0.67451   0.00000  Uiso   1.00
O1780  O     0.89225   0.83335   0.67451   0.00000  Uiso   1.00
C1781  C     0.95607   0.85212   0.59062   0.00000  Uiso   1.00
C1782  C     0.95336   0.89398   0.60600   0.00000  Uiso   1.00
C1783  C     0.98482   0.90867   0.63236   0.00000  Uiso   1.00
C1784  C     0.68609   0.88178   0.64284   0.00000  Uiso   1.00
C1785  C     0.68873   0.84020   0.62750   0.00000  Uiso   1.00
C1786  C     0.99043   0.82519   0.60176   0.00000  Uiso   1.00
H1787  H     0.92634   0.91497   0.59835   0.00000  Uiso   1.00
H1788  H     0.98213   0.94078   0.64482   0.00000  Uiso   1.00
H1789  H     0.71086   0.89298   0.66287   0.00000  Uiso   1.00
H1790  H     0.71495   0.81931   0.63607   0.00000  Uiso   1.00
H1791  H     0.99215   0.79264   0.59152   0.00000  Uiso   1.00
C1792  C     0.75937   0.69964   0.81178   0.00000  Uiso   1.00
C1793  C     0.77182   0.68612   0.85551   0.00000  Uiso   1.00
C1794  C     0.74370   0.69859   0.90433   0.00000  Uiso   1.00
C1795  C     0.70302   0.72472   0.90998   0.00000  Uiso   1.00
C1796  C     0.69027   0.73820   0.86677   0.00000  Uiso   1.00
C1797  C     0.71827   0.72564   0.81794   0.00000  Uiso   1.00
H1798  H     0.80367   0.99972   0.85176   0.00000  Uiso   1.00
H1799  H     0.75355   0.68812   0.93776   0.00000  Uiso   1.00
H1800  H     0.68125   0.73431   0.94776   0.00000  Uiso   1.00
H1801  H     0.99191   0.75825   0.87114   0.00000  Uiso   1.00
H1802  H     0.70759   0.73591   0.78525   0.00000  Uiso   1.00
C1803  C     0.77655   0.97535   0.69445   0.00000  Uiso   1.00
C1804  C     0.80066   0.94758   0.65358   0.00000  Uiso   1.00
C1805  C     0.78602   0.94465   0.60864   0.00000  Uiso   1.00
C1806  C     0.74739   0.96935   0.60325   0.00000  Uiso   1.00
C1807  C     0.72328   0.99712   0.64284   0.00000  Uiso   1.00
C1808  C     0.73784   0.66698   0.68782   0.00000  Uiso   1.00
H1809  H     0.83193   0.92895   0.65503   0.00000  Uiso   1.00
H1810  H     0.80514   0.92352   0.57765   0.00000  Uiso   1.00
H1811  H     0.73614   0.96698   0.56838   0.00000  Uiso   1.00
H1812  H     0.69335   0.68306   0.63863   0.00000  Uiso   1.00
H1813  H     0.71870   0.68913   0.71735   0.00000  Uiso   1.00
C1814  C     0.69516   0.90671   0.78899   0.00000  Uiso   1.00
C1815  C     0.70109   0.90836   0.83840   0.00000  Uiso   1.00
C1816  C     0.68620   0.94338   0.87068   0.00000  Uiso   1.00
C1817  C     0.99729   0.97689   0.85403   0.00000  Uiso   1.00
C1818  C     0.99539   0.97755   0.80335   0.00000  Uiso   1.00
C1819  C     0.67879   0.94306   0.77055   0.00000  Uiso   1.00
H1820  H     0.71060   0.88111   0.85456   0.00000  Uiso   1.00
H1821  H     0.68823   0.94315   0.90990   0.00000  Uiso   1.00
H1822  H     0.98081   0.66863   0.88069   0.00000  Uiso   1.00
H1823  H     0.97868   0.67054   0.79019   0.00000  Uiso   1.00
H1824  H     0.67230   0.94267   0.73312   0.00000  Uiso   1.00
O1825  O     0.96952   0.76669   0.70632   0.00000  Uiso   1.00
H1826  H     0.94583   0.77697   0.68890   0.00000  Uiso   1.00
O1827  O     0.95477   0.87243   0.91534   0.00000  Uiso   1.00
H1828  H     0.96933   0.88235   0.94229   0.00000  Uiso   1.00
O1829  O     0.97439   0.81621   0.98416   0.00000  Uiso   1.00
H1830  H     0.98968   0.80034   0.50663   0.00000  Uiso   1.00
O1831  O     0.79587   0.81235   0.58468   0.00000  Uiso   1.00
H1832  H     0.80189   0.79000   0.60650   0.00000  Uiso   1.00
O1833  O     0.71137   0.83114   0.91299   0.00000  Uiso   1.00
H1834  H     0.72409   0.80461   0.89480   0.00000  Uiso   1.00
O1835  O     0.88052   0.89098   0.87086   0.00000  Uiso   1.00
H1836  H     0.90898   0.90706   0.86842   0.00000  Uiso   1.00
loop_
_geom_bond_atom_site_label_1
_geom_bond_atom_site_label_2
_geom_bond_distance
_geom_bond_site_symmetry_2
_ccdc_geom_bond_type
C1     O40     1.299   .     A
C1     C17     1.468   .     S
C1     O39     1.323   .     A
C2     C3      1.413   .     A
C2     C922    1.410   .     S
C2     C946    1.396   .     S
C3     C7      1.408   .     A
C3     C10     1.427   .     A
C4     C8      1.416   .     A
C4     C920    1.410   1_554 S
C4     C923    1.407   1_554 S
C5     C6      1.413   .     A
C5     C922    1.407   .     S
C5     C942    1.395   .     S
C6     O93     1.377   .     S
C6     C7      1.406   .     A
C7     O101    1.382   .     S
C8     C25     1.417   .     A
C8     O97     1.376   .     S
C9     C25     1.409   .     A
C9     C47     1.471   .     S
C9     C24     1.397   .     A
C10    C26     1.415   .     A
C10    C12     1.496   .     S
C11    H36     1.083   .     S
C11    C17     1.414   .     A
C11    C319    1.390   .     S
C12    O42     1.313   .     A
C12    O41     1.321   .     A
C13    C14     1.399   .     A
C13    H31     1.083   .     S
C13    C623    1.390   1_545 S
C14    C22     1.459   .     S
C14    C15     1.407   .     A
C15    C58     1.483   .     S
C15    C628    1.404   1_545 S
C16    C17     1.408   .     A
C16    C69     1.505   .     S
C16    C321    1.404   .     S
C18    H32     1.078   .     S
C18    N38     1.344   .     A
C18    C121    1.424   .     S
C19    N37     1.397   .     A
C19    C80     1.480   .     S
C19    C222    1.424   1_455 S
C20    H33     1.081   .     S
C20    N37     1.364   .     A
C20    C225    1.426   1_455 S
C21    N38     1.387   .     A
C21    O91     1.372   .     S
C21    C122    1.426   .     S
C22    O44     1.313   .     A
C22    O43     1.306   .     A
C23    O45     1.314   .     A
C23    O46     1.315   .     A
C23    C25     1.486   .     S
C24    C923    1.395   1_554 S
C24    O1013   1.371   1_554 S
C26    C27     1.392   .     A
C26    O99     1.366   .     S
C27    C946    1.382   .     S
C27    H953    1.076   .     S
C28    H34     1.075   .     S
C28    C920    1.396   1_554 S
C28    C945    1.382   1_554 S
Cu29   O43     1.959   .     S
Cu29   O45     1.992   .     S
Cu29   Cu30    2.731   .     S
Cu29   O39     1.980   .     S
Cu29   O41     1.987   .     S
Cu29   N37     2.053   .     S
Cu30   N38     2.052   .     S
Cu30   O44     1.980   .     S
Cu30   O46     1.987   .     S
Cu30   O40     1.959   .     S
Cu30   O42     1.992   .     S
H35    C945    1.076   1_554 S
C47    C48     1.406   .     A
C47    C52     1.398   .     A
C48    H53     1.083   .     S
C48    C49     1.395   .     A
C49    H54     1.081   .     S
C49    C152    1.395   .     S
C50    C51     1.397   .     A
C50    H55     1.081   .     S
C50    C253    1.395   1_455 S
C51    H56     1.074   .     S
C51    C256    1.392   1_455 S
C52    H57     1.083   .     S
C52    C153    1.392   .     S
C58    C59     1.408   .     A
C58    C63     1.402   .     A
C59    C60     1.398   .     A
C59    H676    1.083   1_545 S
C60    C61     1.396   .     A
C60    H65     1.082   .     S
C61    H66     1.082   .     S
C61    C62     1.399   .     A
C62    C63     1.398   .     A
C62    H271    1.083   1_455 S
C63    H68     1.073   .     S
H64    C365    1.083   .     S
H67    C164    1.083   .     S
C69    C70     1.416   .     A
C69    C380    1.412   .     S
C70    C71     1.397   .     A
C70    H75     1.080   .     S
C71    C72     1.394   .     A
C71    H76     1.082   .     S
C72    H77     1.082   .     S
C72    C73     1.394   .     A
C73    C380    1.397   .     S
C73    H384    1.083   .     S
C74    H79     1.078   .     S
C74    C681    1.412   1_545 S
C74    C685    1.397   1_545 S
H78    C685    1.083   1_545 S
C80    C85     1.411   .     A
C80    C81     1.398   .     A
C81    C82     1.395   .     A
C81    H86     1.059   .     S
C82    H87     1.083   .     S
C82    C287    1.391   1_455 S
C83    C84     1.393   .     A
C83    C184    1.391   .     S
C83    H394    1.078   .     S
C84    C187    1.395   .     S
C84    H395    1.082   .     S
C85    H90     1.082   .     S
C85    C288    1.395   1_455 S
H88    C695    1.078   1_545 S
H89    C696    1.082   1_545 S
O91    H92     0.986   .     S
O93    H94     0.991   .     S
O95    C942    1.371   .     S
O95    H1014   0.990   .     S
H96    O1013   0.990   1_554 S
O97    H98     0.991   .     S
O99    H100    0.987   .     S
O101   H102    0.990   .     S
C103   O142    1.299   .     A
C103   C119    1.468   .     S
C103   O141    1.323   .     A
C104   C105    1.413   .     A
C104   C1024   1.410   .     S
C104   C1048   1.396   .     S
C105   C109    1.408   .     A
C105   C112    1.427   .     A
C106   C110    1.416   .     A
C106   C1022   1.410   1_554 S
C106   C1025   1.407   1_554 S
C107   C108    1.413   .     A
C107   C1024   1.407   .     S
C107   C1044   1.395   .     S
C108   O195    1.377   .     S
C108   C109    1.406   .     A
C109   O203    1.382   .     S
C110   C127    1.417   .     A
C110   O199    1.376   .     S
C111   C127    1.409   .     A
C111   C149    1.471   .     S
C111   C126    1.397   .     A
C112   C128    1.415   .     A
C112   C114    1.496   .     S
C113   H138    1.083   .     S
C113   C119    1.414   .     A
C113   C421    1.390   .     S
C114   O144    1.313   .     A
C114   O143    1.321   .     A
C115   C116    1.399   .     A
C115   H133    1.083   .     S
C115   C725    1.390   1_545 S
C116   C124    1.459   .     S
C116   C117    1.407   .     A
C117   C160    1.483   .     S
C117   C730    1.404   1_545 S
C118   C119    1.408   .     A
C118   C171    1.505   .     S
C118   C423    1.404   .     S
C120   H134    1.078   .     S
C120   N140    1.344   .     A
C120   C223    1.424   .     S
C121   N139    1.397   .     A
C121   C182    1.480   .     S
C122   H135    1.081   .     S
C122   N139    1.364   .     A
C123   N140    1.387   .     A
C123   O193    1.372   .     S
C123   C224    1.426   .     S
C124   O146    1.313   .     A
C124   O145    1.306   .     A
C125   O147    1.314   .     A
C125   O148    1.315   .     A
C125   C127    1.486   .     S
C126   C1025   1.395   1_554 S
C126   O1115   1.371   1_554 S
C128   C129    1.392   .     A
C128   O201    1.366   .     S
C129   C1048   1.382   .     S
C129   H1055   1.076   .     S
C130   H136    1.075   .     S
C130   C1022   1.396   1_554 S
C130   C1047   1.382   1_554 S
Cu131  O145    1.959   .     S
Cu131  O147    1.992   .     S
Cu131  Cu132   2.731   .     S
Cu131  O141    1.980   .     S
Cu131  O143    1.987   .     S
Cu131  N139    2.053   .     S
Cu132  N140    2.052   .     S
Cu132  O146    1.980   .     S
Cu132  O148    1.987   .     S
Cu132  O142    1.959   .     S
Cu132  O144    1.992   .     S
H137   C1047   1.076   1_554 S
C149   C150    1.406   .     A
C149   C154    1.398   .     A
C150   H155    1.083   .     S
C150   C151    1.395   .     A
C151   H156    1.081   .     S
C151   C254    1.395   .     S
C152   C153    1.397   .     A
C152   H157    1.081   .     S
C153   H158    1.074   .     S
C154   H159    1.083   .     S
C154   C255    1.392   .     S
C160   C161    1.408   .     A
C160   C165    1.402   .     A
C161   C162    1.398   .     A
C161   H778    1.083   1_545 S
C162   C163    1.396   .     A
C162   H167    1.082   .     S
C163   H168    1.082   .     S
C163   C164    1.399   .     A
C164   C165    1.398   .     A
C165   H170    1.073   .     S
H166   C467    1.083   .     S
H169   C266    1.083   .     S
C171   C172    1.416   .     A
C171   C482    1.412   .     S
C172   C173    1.397   .     A
C172   H177    1.080   .     S
C173   C174    1.394   .     A
C173   H178    1.082   .     S
C174   H179    1.082   .     S
C174   C175    1.394   .     A
C175   C482    1.397   .     S
C175   H486    1.083   .     S
C176   H181    1.078   .     S
C176   C783    1.412   1_545 S
C176   C787    1.397   1_545 S
H180   C787    1.083   1_545 S
C182   C187    1.411   .     A
C182   C183    1.398   .     A
C183   C184    1.395   .     A
C183   H188    1.059   .     S
C184   H189    1.083   .     S
C185   C186    1.393   .     A
C185   C286    1.391   .     S
C185   H496    1.078   .     S
C186   C289    1.395   .     S
C186   H497    1.082   .     S
C187   H192    1.082   .     S
H190   C797    1.078   1_545 S
H191   C798    1.082   1_545 S
O193   H194    0.986   .     S
O195   H196    0.991   .     S
O197   C1044   1.371   .     S
O197   H1116   0.990   .     S
H198   O1115   0.990   1_554 S
O199   H200    0.991   .     S
O201   H202    0.987   .     S
O203   H204    0.990   .     S
C205   O244    1.299   .     A
C205   C221    1.468   .     S
C205   O243    1.323   .     A
C206   C207    1.413   .     A
C206   C1126   1.410   .     S
C206   C1150   1.396   .     S
C207   C211    1.408   .     A
C207   C214    1.427   .     A
C208   C212    1.416   .     A
C208   C1124   1.410   1_554 S
C208   C1127   1.407   1_554 S
C209   C210    1.413   .     A
C209   C1126   1.407   .     S
C209   C1146   1.395   .     S
C210   O297    1.377   .     S
C210   C211    1.406   .     A
C211   O305    1.382   .     S
C212   C229    1.417   .     A
C212   O301    1.376   .     S
C213   C229    1.409   .     A
C213   C251    1.471   .     S
C213   C228    1.397   .     A
C214   C230    1.415   .     A
C214   C216    1.496   .     S
C215   H240    1.083   .     S
C215   C221    1.414   .     A
C215   C523    1.390   .     S
C216   O246    1.313   .     A
C216   O245    1.321   .     A
C217   C218    1.399   .     A
C217   H235    1.083   .     S
C217   C827    1.390   1_545 S
C218   C226    1.459   .     S
C218   C219    1.407   .     A
C219   C262    1.483   .     S
C219   C832    1.404   1_545 S
C220   C221    1.408   .     A
C220   C273    1.505   .     S
C220   C525    1.404   .     S
C222   H236    1.078   .     S
C222   N242    1.344   .     A
C222   C19     1.424   1_655 S
C223   N241    1.397   .     A
C223   C284    1.480   .     S
C224   H237    1.081   .     S
C224   N241    1.364   .     A
C225   N242    1.387   .     A
C225   O295    1.372   .     S
C225   C20     1.426   1_655 S
C226   O248    1.313   .     A
C226   O247    1.306   .     A
C227   O249    1.314   .     A
C227   O250    1.315   .     A
C227   C229    1.486   .     S
C228   C1127   1.395   1_554 S
C228   O1217   1.371   1_554 S
C230   C231    1.392   .     A
C230   O303    1.366   .     S
C231   C1150   1.382   .     S
C231   H1157   1.076   .     S
C232   H238    1.075   .     S
C232   C1124   1.396   1_554 S
C232   C1149   1.382   1_554 S
Cu233  O247    1.959   .     S
Cu233  O249    1.992   .     S
Cu233  Cu234   2.731   .     S
Cu233  O243    1.980   .     S
Cu233  O245    1.987   .     S
Cu233  N241    2.053   .     S
Cu234  N242    2.052   .     S
Cu234  O248    1.980   .     S
Cu234  O250    1.987   .     S
Cu234  O244    1.959   .     S
Cu234  O246    1.992   .     S
H239   C1149   1.076   1_554 S
C251   C252    1.406   .     A
C251   C256    1.398   .     A
C252   H257    1.083   .     S
C252   C253    1.395   .     A
C253   H258    1.081   .     S
C253   C50     1.395   1_655 S
C254   C255    1.397   .     A
C254   H259    1.081   .     S
C255   H260    1.074   .     S
C256   H261    1.083   .     S
C256   C51     1.392   1_655 S
C262   C263    1.408   .     A
C262   C267    1.402   .     A
C263   C264    1.398   .     A
C263   H880    1.083   1_545 S
C264   C265    1.396   .     A
C264   H269    1.082   .     S
C265   H270    1.082   .     S
C265   C266    1.399   .     A
C266   C267    1.398   .     A
C267   H272    1.073   .     S
H268   C569    1.083   .     S
H271   C62     1.083   1_655 S
C273   C274    1.416   .     A
C273   C584    1.412   .     S
C274   C275    1.397   .     A
C274   H279    1.080   .     S
C275   C276    1.394   .     A
C275   H280    1.082   .     S
C276   H281    1.082   .     S
C276   C277    1.394   .     A
C277   C584    1.397   .     S
C277   H588    1.083   .     S
C278   H283    1.078   .     S
C278   C885    1.412   1_545 S
C278   C889    1.397   1_545 S
H282   C889    1.083   1_545 S
C284   C289    1.411   .     A
C284   C285    1.398   .     A
C285   C286    1.395   .     A
C285   H290    1.059   .     S
C286   H291    1.083   .     S
C287   C288    1.393   .     A
C287   C82     1.391   1_655 S
C287   H598    1.078   .     S
C288   C85     1.395   1_655 S
C288   H599    1.082   .     S
C289   H294    1.082   .     S
H292   C899    1.078   1_545 S
H293   C900    1.082   1_545 S
O295   H296    0.986   .     S
O297   H298    0.991   .     S
O299   C1146   1.371   .     S
O299   H1218   0.990   .     S
H300   O1217   0.990   1_554 S
O301   H302    0.991   .     S
O303   H304    0.987   .     S
O305   H306    0.990   .     S
C307   O346    1.299   .     A
C307   C323    1.468   .     S
C307   O345    1.323   .     A
C308   C309    1.413   .     A
C308   C1228   1.410   .     S
C308   C1252   1.396   .     S
C309   C313    1.408   .     A
C309   C316    1.427   .     A
C310   C314    1.416   .     A
C310   C1226   1.410   1_554 S
C310   C1229   1.407   1_554 S
C311   C312    1.413   .     A
C311   C1228   1.407   .     S
C311   C1248   1.395   .     S
C312   O399    1.377   .     S
C312   C313    1.406   .     A
C313   O407    1.382   .     S
C314   C331    1.417   .     A
C314   O403    1.376   .     S
C315   C331    1.409   .     A
C315   C353    1.471   .     S
C315   C330    1.397   .     A
C316   C332    1.415   .     A
C316   C318    1.496   .     S
C317   H342    1.083   .     S
C317   C323    1.414   .     A
C317   C625    1.390   .     S
C318   O348    1.313   .     A
C318   O347    1.321   .     A
C319   C320    1.399   .     A
C319   H337    1.083   .     S
C320   C328    1.459   .     S
C320   C321    1.407   .     A
C321   C364    1.483   .     S
C322   C323    1.408   .     A
C322   C375    1.505   .     S
C322   C627    1.404   .     S
C324   H338    1.078   .     S
C324   N344    1.344   .     A
C324   C427    1.424   .     S
C325   N343    1.397   .     A
C325   C386    1.480   .     S
C325   C528    1.424   1_455 S
C326   H339    1.081   .     S
C326   N343    1.364   .     A
C326   C531    1.426   1_455 S
C327   N344    1.387   .     A
C327   O397    1.372   .     S
C327   C428    1.426   .     S
C328   O350    1.313   .     A
C328   O349    1.306   .     A
C329   O351    1.314   .     A
C329   O352    1.315   .     A
C329   C331    1.486   .     S
C330   C1229   1.395   1_554 S
C330   O1319   1.371   1_554 S
C332   C333    1.392   .     A
C332   O405    1.366   .     S
C333   C1252   1.382   .     S
C333   H1259   1.076   .     S
C334   H340    1.075   .     S
C334   C1226   1.396   1_554 S
C334   C1251   1.382   1_554 S
Cu335  O349    1.959   .     S
Cu335  O351    1.992   .     S
Cu335  Cu336   2.731   .     S
Cu335  O345    1.980   .     S
Cu335  O347    1.987   .     S
Cu335  N343    2.053   .     S
Cu336  N344    2.052   .     S
Cu336  O350    1.980   .     S
Cu336  O352    1.987   .     S
Cu336  O346    1.959   .     S
Cu336  O348    1.992   .     S
H341   C1251   1.076   1_554 S
C353   C354    1.406   .     A
C353   C358    1.398   .     A
C354   H359    1.083   .     S
C354   C355    1.395   .     A
C355   H360    1.081   .     S
C355   C458    1.395   .     S
C356   C357    1.397   .     A
C356   H361    1.081   .     S
C356   C559    1.395   1_455 S
C357   H362    1.074   .     S
C357   C562    1.392   1_455 S
C358   H363    1.083   .     S
C358   C459    1.392   .     S
C364   C365    1.408   .     A
C364   C369    1.402   .     A
C365   C366    1.398   .     A
C366   C367    1.396   .     A
C366   H371    1.082   .     S
C367   H372    1.082   .     S
C367   C368    1.399   .     A
C368   C369    1.398   .     A
C368   H577    1.083   1_455 S
C369   H374    1.073   .     S
H370   C671    1.083   .     S
H373   C470    1.083   .     S
C375   C376    1.416   .     A
C375   C686    1.412   .     S
C376   C377    1.397   .     A
C376   H381    1.080   .     S
C377   C378    1.394   .     A
C377   H382    1.082   .     S
C378   H383    1.082   .     S
C378   C379    1.394   .     A
C379   C686    1.397   .     S
C379   H690    1.083   .     S
C380   H385    1.078   .     S
C386   C391    1.411   .     A
C386   C387    1.398   .     A
C387   C388    1.395   .     A
C387   H392    1.059   .     S
C388   H393    1.083   .     S
C388   C593    1.391   1_455 S
C389   C390    1.393   .     A
C389   C490    1.391   .     S
C389   H700    1.078   .     S
C390   C493    1.395   .     S
C390   H701    1.082   .     S
C391   H396    1.082   .     S
C391   C594    1.395   1_455 S
O397   H398    0.986   .     S
O399   H400    0.991   .     S
O401   C1248   1.371   .     S
O401   H1320   0.990   .     S
H402   O1319   0.990   1_554 S
O403   H404    0.991   .     S
O405   H406    0.987   .     S
O407   H408    0.990   .     S
C409   O448    1.299   .     A
C409   C425    1.468   .     S
C409   O447    1.323   .     A
C410   C411    1.413   .     A
C410   C1330   1.410   .     S
C410   C1354   1.396   .     S
C411   C415    1.408   .     A
C411   C418    1.427   .     A
C412   C416    1.416   .     A
C412   C1328   1.410   1_554 S
C412   C1331   1.407   1_554 S
C413   C414    1.413   .     A
C413   C1330   1.407   .     S
C413   C1350   1.395   .     S
C414   O501    1.377   .     S
C414   C415    1.406   .     A
C415   O509    1.382   .     S
C416   C433    1.417   .     A
C416   O505    1.376   .     S
C417   C433    1.409   .     A
C417   C455    1.471   .     S
C417   C432    1.397   .     A
C418   C434    1.415   .     A
C418   C420    1.496   .     S
C419   H444    1.083   .     S
C419   C425    1.414   .     A
C419   C727    1.390   .     S
C420   O450    1.313   .     A
C420   O449    1.321   .     A
C421   C422    1.399   .     A
C421   H439    1.083   .     S
C422   C430    1.459   .     S
C422   C423    1.407   .     A
C423   C466    1.483   .     S
C424   C425    1.408   .     A
C424   C477    1.505   .     S
C424   C729    1.404   .     S
C426   H440    1.078   .     S
C426   N446    1.344   .     A
C426   C529    1.424   .     S
C427   N445    1.397   .     A
C427   C488    1.480   .     S
C428   H441    1.081   .     S
C428   N445    1.364   .     A
C429   N446    1.387   .     A
C429   O499    1.372   .     S
C429   C530    1.426   .     S
C430   O452    1.313   .     A
C430   O451    1.306   .     A
C431   O453    1.314   .     A
C431   O454    1.315   .     A
C431   C433    1.486   .     S
C432   C1331   1.395   1_554 S
C432   O1421   1.371   1_554 S
C434   C435    1.392   .     A
C434   O507    1.366   .     S
C435   C1354   1.382   .     S
C435   H1361   1.076   .     S
C436   H442    1.075   .     S
C436   C1328   1.396   1_554 S
C436   C1353   1.382   1_554 S
Cu437  O451    1.959   .     S
Cu437  O453    1.992   .     S
Cu437  Cu438   2.731   .     S
Cu437  O447    1.980   .     S
Cu437  O449    1.987   .     S
Cu437  N445    2.053   .     S
Cu438  N446    2.052   .     S
Cu438  O452    1.980   .     S
Cu438  O454    1.987   .     S
Cu438  O448    1.959   .     S
Cu438  O450    1.992   .     S
H443   C1353   1.076   1_554 S
C455   C456    1.406   .     A
C455   C460    1.398   .     A
C456   H461    1.083   .     S
C456   C457    1.395   .     A
C457   H462    1.081   .     S
C457   C560    1.395   .     S
C458   C459    1.397   .     A
C458   H463    1.081   .     S
C459   H464    1.074   .     S
C460   H465    1.083   .     S
C460   C561    1.392   .     S
C466   C467    1.408   .     A
C466   C471    1.402   .     A
C467   C468    1.398   .     A
C468   C469    1.396   .     A
C468   H473    1.082   .     S
C469   H474    1.082   .     S
C469   C470    1.399   .     A
C470   C471    1.398   .     A
C471   H476    1.073   .     S
H472   C773    1.083   .     S
H475   C572    1.083   .     S
C477   C478    1.416   .     A
C477   C788    1.412   .     S
C478   C479    1.397   .     A
C478   H483    1.080   .     S
C479   C480    1.394   .     A
C479   H484    1.082   .     S
C480   H485    1.082   .     S
C480   C481    1.394   .     A
C481   C788    1.397   .     S
C481   H792    1.083   .     S
C482   H487    1.078   .     S
C488   C493    1.411   .     A
C488   C489    1.398   .     A
C489   C490    1.395   .     A
C489   H494    1.059   .     S
C490   H495    1.083   .     S
C491   C492    1.393   .     A
C491   C592    1.391   .     S
C491   H802    1.078   .     S
C492   C595    1.395   .     S
C492   H803    1.082   .     S
C493   H498    1.082   .     S
O499   H500    0.986   .     S
O501   H502    0.991   .     S
O503   C1350   1.371   .     S
O503   H1422   0.990   .     S
H504   O1421   0.990   1_554 S
O505   H506    0.991   .     S
O507   H508    0.987   .     S
O509   H510    0.990   .     S
C511   O550    1.299   .     A
C511   C527    1.468   .     S
C511   O549    1.323   .     A
C512   C513    1.413   .     A
C512   C1432   1.410   .     S
C512   C1456   1.396   .     S
C513   C517    1.408   .     A
C513   C520    1.427   .     A
C514   C518    1.416   .     A
C514   C1430   1.410   1_554 S
C514   C1433   1.407   1_554 S
C515   C516    1.413   .     A
C515   C1432   1.407   .     S
C515   C1452   1.395   .     S
C516   O603    1.377   .     S
C516   C517    1.406   .     A
C517   O611    1.382   .     S
C518   C535    1.417   .     A
C518   O607    1.376   .     S
C519   C535    1.409   .     A
C519   C557    1.471   .     S
C519   C534    1.397   .     A
C520   C536    1.415   .     A
C520   C522    1.496   .     S
C521   H546    1.083   .     S
C521   C527    1.414   .     A
C521   C829    1.390   .     S
C522   O552    1.313   .     A
C522   O551    1.321   .     A
C523   C524    1.399   .     A
C523   H541    1.083   .     S
C524   C532    1.459   .     S
C524   C525    1.407   .     A
C525   C568    1.483   .     S
C526   C527    1.408   .     A
C526   C579    1.505   .     S
C526   C831    1.404   .     S
C528   H542    1.078   .     S
C528   N548    1.344   .     A
C528   C325    1.424   1_655 S
C529   N547    1.397   .     A
C529   C590    1.480   .     S
C530   H543    1.081   .     S
C530   N547    1.364   .     A
C531   N548    1.387   .     A
C531   O601    1.372   .     S
C531   C326    1.426   1_655 S
C532   O554    1.313   .     A
C532   O553    1.306   .     A
C533   O555    1.314   .     A
C533   O556    1.315   .     A
C533   C535    1.486   .     S
C534   C1433   1.395   1_554 S
C534   O1523   1.371   1_554 S
C536   C537    1.392   .     A
C536   O609    1.366   .     S
C537   C1456   1.382   .     S
C537   H1463   1.076   .     S
C538   H544    1.075   .     S
C538   C1430   1.396   1_554 S
C538   C1455   1.382   1_554 S
Cu539  O553    1.959   .     S
Cu539  O555    1.992   .     S
Cu539  Cu540   2.731   .     S
Cu539  O549    1.980   .     S
Cu539  O551    1.987   .     S
Cu539  N547    2.053   .     S
Cu540  N548    2.052   .     S
Cu540  O554    1.980   .     S
Cu540  O556    1.987   .     S
Cu540  O550    1.959   .     S
Cu540  O552    1.992   .     S
H545   C1455   1.076   1_554 S
C557   C558    1.406   .     A
C557   C562    1.398   .     A
C558   H563    1.083   .     S
C558   C559    1.395   .     A
C559   H564    1.081   .     S
C559   C356    1.395   1_655 S
C560   C561    1.397   .     A
C560   H565    1.081   .     S
C561   H566    1.074   .     S
C562   H567    1.083   .     S
C562   C357    1.392   1_655 S
C568   C569    1.408   .     A
C568   C573    1.402   .     A
C569   C570    1.398   .     A
C570   C571    1.396   .     A
C570   H575    1.082   .     S
C571   H576    1.082   .     S
C571   C572    1.399   .     A
C572   C573    1.398   .     A
C573   H578    1.073   .     S
H574   C875    1.083   .     S
H577   C368    1.083   1_655 S
C579   C580    1.416   .     A
C579   C890    1.412   .     S
C580   C581    1.397   .     A
C580   H585    1.080   .     S
C581   C582    1.394   .     A
C581   H586    1.082   .     S
C582   H587    1.082   .     S
C582   C583    1.394   .     A
C583   C890    1.397   .     S
C583   H894    1.083   .     S
C584   H589    1.078   .     S
C590   C595    1.411   .     A
C590   C591    1.398   .     A
C591   C592    1.395   .     A
C591   H596    1.059   .     S
C592   H597    1.083   .     S
C593   C594    1.393   .     A
C593   C388    1.391   1_655 S
C593   H904    1.078   .     S
C594   C391    1.395   1_655 S
C594   H905    1.082   .     S
C595   H600    1.082   .     S
O601   H602    0.986   .     S
O603   H604    0.991   .     S
O605   C1452   1.371   .     S
O605   H1524   0.990   .     S
H606   O1523   0.990   1_554 S
O607   H608    0.991   .     S
O609   H610    0.987   .     S
O611   H612    0.990   .     S
C613   O652    1.299   .     A
C613   C629    1.468   .     S
C613   O651    1.323   .     A
C614   C615    1.413   .     A
C614   C1534   1.410   .     S
C614   C1558   1.396   .     S
C615   C619    1.408   .     A
C615   C622    1.427   .     A
C616   C620    1.416   .     A
C616   C1532   1.410   1_554 S
C616   C1535   1.407   1_554 S
C617   C618    1.413   .     A
C617   C1534   1.407   .     S
C617   C1554   1.395   .     S
C618   O705    1.377   .     S
C618   C619    1.406   .     A
C619   O713    1.382   .     S
C620   C637    1.417   .     A
C620   O709    1.376   .     S
C621   C637    1.409   .     A
C621   C659    1.471   .     S
C621   C636    1.397   .     A
C622   C638    1.415   .     A
C622   C624    1.496   .     S
C623   H648    1.083   .     S
C623   C629    1.414   .     A
C623   C13     1.390   1_565 S
C624   O654    1.313   .     A
C624   O653    1.321   .     A
C625   C626    1.399   .     A
C625   H643    1.083   .     S
C626   C634    1.459   .     S
C626   C627    1.407   .     A
C627   C670    1.483   .     S
C628   C629    1.408   .     A
C628   C681    1.505   .     S
C628   C15     1.404   1_565 S
C630   H644    1.078   .     S
C630   N650    1.344   .     A
C630   C733    1.424   .     S
C631   N649    1.397   .     A
C631   C692    1.480   .     S
C631   C834    1.424   1_455 S
C632   H645    1.081   .     S
C632   N649    1.364   .     A
C632   C837    1.426   1_455 S
C633   N650    1.387   .     A
C633   O703    1.372   .     S
C633   C734    1.426   .     S
C634   O656    1.313   .     A
C634   O655    1.306   .     A
C635   O657    1.314   .     A
C635   O658    1.315   .     A
C635   C637    1.486   .     S
C636   C1535   1.395   1_554 S
C636   O1625   1.371   1_554 S
C638   C639    1.392   .     A
C638   O711    1.366   .     S
C639   C1558   1.382   .     S
C639   H1565   1.076   .     S
C640   H646    1.075   .     S
C640   C1532   1.396   1_554 S
C640   C1557   1.382   1_554 S
Cu641  O655    1.959   .     S
Cu641  O657    1.992   .     S
Cu641  Cu642   2.731   .     S
Cu641  O651    1.980   .     S
Cu641  O653    1.987   .     S
Cu641  N649    2.053   .     S
Cu642  N650    2.052   .     S
Cu642  O656    1.980   .     S
Cu642  O658    1.987   .     S
Cu642  O652    1.959   .     S
Cu642  O654    1.992   .     S
H647   C1557   1.076   1_554 S
C659   C660    1.406   .     A
C659   C664    1.398   .     A
C660   H665    1.083   .     S
C660   C661    1.395   .     A
C661   H666    1.081   .     S
C661   C764    1.395   .     S
C662   C663    1.397   .     A
C662   H667    1.081   .     S
C662   C865    1.395   1_455 S
C663   H668    1.074   .     S
C663   C868    1.392   1_455 S
C664   H669    1.083   .     S
C664   C765    1.392   .     S
C670   C671    1.408   .     A
C670   C675    1.402   .     A
C671   C672    1.398   .     A
C672   C673    1.396   .     A
C672   H677    1.082   .     S
C673   H678    1.082   .     S
C673   C674    1.399   .     A
C674   C675    1.398   .     A
C674   H883    1.083   1_455 S
C675   H680    1.073   .     S
H676   C59     1.083   1_565 S
H679   C776    1.083   .     S
C681   C682    1.416   .     A
C681   C74     1.412   1_565 S
C682   C683    1.397   .     A
C682   H687    1.080   .     S
C683   C684    1.394   .     A
C683   H688    1.082   .     S
C684   H689    1.082   .     S
C684   C685    1.394   .     A
C685   C74     1.397   1_565 S
C685   H78     1.083   1_565 S
C686   H691    1.078   .     S
C692   C697    1.411   .     A
C692   C693    1.398   .     A
C693   C694    1.395   .     A
C693   H698    1.059   .     S
C694   H699    1.083   .     S
C694   C899    1.391   1_455 S
C695   C696    1.393   .     A
C695   C796    1.391   .     S
C695   H88     1.078   1_565 S
C696   C799    1.395   .     S
C696   H89     1.082   1_565 S
C697   H702    1.082   .     S
C697   C900    1.395   1_455 S
O703   H704    0.986   .     S
O705   H706    0.991   .     S
O707   C1554   1.371   .     S
O707   H1626   0.990   .     S
H708   O1625   0.990   1_554 S
O709   H710    0.991   .     S
O711   H712    0.987   .     S
O713   H714    0.990   .     S
C715   O754    1.299   .     A
C715   C731    1.468   .     S
C715   O753    1.323   .     A
C716   C717    1.413   .     A
C716   C1636   1.410   .     S
C716   C1660   1.396   .     S
C717   C721    1.408   .     A
C717   C724    1.427   .     A
C718   C722    1.416   .     A
C718   C1634   1.410   1_554 S
C718   C1637   1.407   1_554 S
C719   C720    1.413   .     A
C719   C1636   1.407   .     S
C719   C1656   1.395   .     S
C720   O807    1.377   .     S
C720   C721    1.406   .     A
C721   O815    1.382   .     S
C722   C739    1.417   .     A
C722   O811    1.376   .     S
C723   C739    1.409   .     A
C723   C761    1.471   .     S
C723   C738    1.397   .     A
C724   C740    1.415   .     A
C724   C726    1.496   .     S
C725   H750    1.083   .     S
C725   C731    1.414   .     A
C725   C115    1.390   1_565 S
C726   O756    1.313   .     A
C726   O755    1.321   .     A
C727   C728    1.399   .     A
C727   H745    1.083   .     S
C728   C736    1.459   .     S
C728   C729    1.407   .     A
C729   C772    1.483   .     S
C730   C731    1.408   .     A
C730   C783    1.505   .     S
C730   C117    1.404   1_565 S
C732   H746    1.078   .     S
C732   N752    1.344   .     A
C732   C835    1.424   .     S
C733   N751    1.397   .     A
C733   C794    1.480   .     S
C734   H747    1.081   .     S
C734   N751    1.364   .     A
C735   N752    1.387   .     A
C735   O805    1.372   .     S
C735   C836    1.426   .     S
C736   O758    1.313   .     A
C736   O757    1.306   .     A
C737   O759    1.314   .     A
C737   O760    1.315   .     A
C737   C739    1.486   .     S
C738   C1637   1.395   1_554 S
C738   O1727   1.371   1_554 S
C740   C741    1.392   .     A
C740   O813    1.366   .     S
C741   C1660   1.382   .     S
C741   H1667   1.076   .     S
C742   H748    1.075   .     S
C742   C1634   1.396   1_554 S
C742   C1659   1.382   1_554 S
Cu743  O757    1.959   .     S
Cu743  O759    1.992   .     S
Cu743  Cu744   2.731   .     S
Cu743  O753    1.980   .     S
Cu743  O755    1.987   .     S
Cu743  N751    2.053   .     S
Cu744  N752    2.052   .     S
Cu744  O758    1.980   .     S
Cu744  O760    1.987   .     S
Cu744  O754    1.959   .     S
Cu744  O756    1.992   .     S
H749   C1659   1.076   1_554 S
C761   C762    1.406   .     A
C761   C766    1.398   .     A
C762   H767    1.083   .     S
C762   C763    1.395   .     A
C763   H768    1.081   .     S
C763   C866    1.395   .     S
C764   C765    1.397   .     A
C764   H769    1.081   .     S
C765   H770    1.074   .     S
C766   H771    1.083   .     S
C766   C867    1.392   .     S
C772   C773    1.408   .     A
C772   C777    1.402   .     A
C773   C774    1.398   .     A
C774   C775    1.396   .     A
C774   H779    1.082   .     S
C775   H780    1.082   .     S
C775   C776    1.399   .     A
C776   C777    1.398   .     A
C777   H782    1.073   .     S
H778   C161    1.083   1_565 S
H781   C878    1.083   .     S
C783   C784    1.416   .     A
C783   C176    1.412   1_565 S
C784   C785    1.397   .     A
C784   H789    1.080   .     S
C785   C786    1.394   .     A
C785   H790    1.082   .     S
C786   H791    1.082   .     S
C786   C787    1.394   .     A
C787   C176    1.397   1_565 S
C787   H180    1.083   1_565 S
C788   H793    1.078   .     S
C794   C799    1.411   .     A
C794   C795    1.398   .     A
C795   C796    1.395   .     A
C795   H800    1.059   .     S
C796   H801    1.083   .     S
C797   C798    1.393   .     A
C797   C898    1.391   .     S
C797   H190    1.078   1_565 S
C798   C901    1.395   .     S
C798   H191    1.082   1_565 S
C799   H804    1.082   .     S
O805   H806    0.986   .     S
O807   H808    0.991   .     S
O809   C1656   1.371   .     S
O809   H1728   0.990   .     S
H810   O1727   0.990   1_554 S
O811   H812    0.991   .     S
O813   H814    0.987   .     S
O815   H816    0.990   .     S
C817   O856    1.299   .     A
C817   C833    1.468   .     S
C817   O855    1.323   .     A
C818   C819    1.413   .     A
C818   C1738   1.410   .     S
C818   C1762   1.396   .     S
C819   C823    1.408   .     A
C819   C826    1.427   .     A
C820   C824    1.416   .     A
C820   C1736   1.410   1_554 S
C820   C1739   1.407   1_554 S
C821   C822    1.413   .     A
C821   C1738   1.407   .     S
C821   C1758   1.395   .     S
C822   O909    1.377   .     S
C822   C823    1.406   .     A
C823   O917    1.382   .     S
C824   C841    1.417   .     A
C824   O913    1.376   .     S
C825   C841    1.409   .     A
C825   C863    1.471   .     S
C825   C840    1.397   .     A
C826   C842    1.415   .     A
C826   C828    1.496   .     S
C827   H852    1.083   .     S
C827   C833    1.414   .     A
C827   C217    1.390   1_565 S
C828   O858    1.313   .     A
C828   O857    1.321   .     A
C829   C830    1.399   .     A
C829   H847    1.083   .     S
C830   C838    1.459   .     S
C830   C831    1.407   .     A
C831   C874    1.483   .     S
C832   C833    1.408   .     A
C832   C885    1.505   .     S
C832   C219    1.404   1_565 S
C834   H848    1.078   .     S
C834   N854    1.344   .     A
C834   C631    1.424   1_655 S
C835   N853    1.397   .     A
C835   C896    1.480   .     S
C836   H849    1.081   .     S
C836   N853    1.364   .     A
C837   N854    1.387   .     A
C837   O907    1.372   .     S
C837   C632    1.426   1_655 S
C838   O860    1.313   .     A
C838   O859    1.306   .     A
C839   O861    1.314   .     A
C839   O862    1.315   .     A
C839   C841    1.486   .     S
C840   C1739   1.395   1_554 S
C840   O1829   1.371   1_554 S
C842   C843    1.392   .     A
C842   O915    1.366   .     S
C843   C1762   1.382   .     S
C843   H1769   1.076   .     S
C844   H850    1.075   .     S
C844   C1736   1.396   1_554 S
C844   C1761   1.382   1_554 S
Cu845  O859    1.959   .     S
Cu845  O861    1.992   .     S
Cu845  Cu846   2.731   .     S
Cu845  O855    1.980   .     S
Cu845  O857    1.987   .     S
Cu845  N853    2.053   .     S
Cu846  N854    2.052   .     S
Cu846  O860    1.980   .     S
Cu846  O862    1.987   .     S
Cu846  O856    1.959   .     S
Cu846  O858    1.992   .     S
H851   C1761   1.076   1_554 S
C863   C864    1.406   .     A
C863   C868    1.398   .     A
C864   H869    1.083   .     S
C864   C865    1.395   .     A
C865   H870    1.081   .     S
C865   C662    1.395   1_655 S
C866   C867    1.397   .     A
C866   H871    1.081   .     S
C867   H872    1.074   .     S
C868   H873    1.083   .     S
C868   C663    1.392   1_655 S
C874   C875    1.408   .     A
C874   C879    1.402   .     A
C875   C876    1.398   .     A
C876   C877    1.396   .     A
C876   H881    1.082   .     S
C877   H882    1.082   .     S
C877   C878    1.399   .     A
C878   C879    1.398   .     A
C879   H884    1.073   .     S
H880   C263    1.083   1_565 S
H883   C674    1.083   1_655 S
C885   C886    1.416   .     A
C885   C278    1.412   1_565 S
C886   C887    1.397   .     A
C886   H891    1.080   .     S
C887   C888    1.394   .     A
C887   H892    1.082   .     S
C888   H893    1.082   .     S
C888   C889    1.394   .     A
C889   C278    1.397   1_565 S
C889   H282    1.083   1_565 S
C890   H895    1.078   .     S
C896   C901    1.411   .     A
C896   C897    1.398   .     A
C897   C898    1.395   .     A
C897   H902    1.059   .     S
C898   H903    1.083   .     S
C899   C900    1.393   .     A
C899   C694    1.391   1_655 S
C899   H292    1.078   1_565 S
C900   C697    1.395   1_655 S
C900   H293    1.082   1_565 S
C901   H906    1.082   .     S
O907   H908    0.986   .     S
O909   H910    0.991   .     S
O911   C1758   1.371   .     S
O911   H1830   0.990   .     S
H912   O1829   0.990   1_554 S
O913   H914    0.991   .     S
O915   H916    0.987   .     S
O917   H918    0.990   .     S
C919   O958    1.299   .     A
C919   C935    1.468   .     S
C919   O957    1.323   .     A
C920   C921    1.413   .     A
C920   C4      1.410   1_556 S
C920   C28     1.396   1_556 S
C921   C925    1.408   .     A
C921   C928    1.427   .     A
C922   C926    1.416   .     A
C923   C924    1.413   .     A
C923   C4      1.407   1_556 S
C923   C24     1.395   1_556 S
C924   O1011   1.377   .     S
C924   C925    1.406   .     A
C925   O1019   1.382   .     S
C926   C943    1.417   .     A
C926   O1015   1.376   .     S
C927   C943    1.409   .     A
C927   C965    1.471   .     S
C927   C942    1.397   .     A
C928   C944    1.415   .     A
C928   C930    1.496   .     S
C929   H954    1.083   .     S
C929   C935    1.414   .     A
C929   C1237   1.390   .     S
C930   O960    1.313   .     A
C930   O959    1.321   .     A
C931   C932    1.399   .     A
C931   H949    1.083   .     S
C931   C1541   1.390   1_545 S
C932   C940    1.459   .     S
C932   C933    1.407   .     A
C933   C976    1.483   .     S
C933   C1546   1.404   1_545 S
C934   C935    1.408   .     A
C934   C987    1.505   .     S
C934   C1239   1.404   .     S
C936   H950    1.078   .     S
C936   N956    1.344   .     A
C936   C1039   1.424   .     S
C937   N955    1.397   .     A
C937   C998    1.480   .     S
C937   C1140   1.424   1_455 S
C938   H951    1.081   .     S
C938   N955    1.364   .     A
C938   C1143   1.426   1_455 S
C939   N956    1.387   .     A
C939   O1009   1.372   .     S
C939   C1040   1.426   .     S
C940   O962    1.313   .     A
C940   O961    1.306   .     A
C941   O963    1.314   .     A
C941   O964    1.315   .     A
C941   C943    1.486   .     S
C944   C945    1.392   .     A
C944   O1017   1.366   .     S
C945   C28     1.382   1_556 S
C945   H35     1.076   1_556 S
C946   H952    1.075   .     S
Cu947  O961    1.959   .     S
Cu947  O963    1.992   .     S
Cu947  Cu948   2.731   .     S
Cu947  O957    1.980   .     S
Cu947  O959    1.987   .     S
Cu947  N955    2.053   .     S
Cu948  N956    2.052   .     S
Cu948  O962    1.980   .     S
Cu948  O964    1.987   .     S
Cu948  O958    1.959   .     S
Cu948  O960    1.992   .     S
C965   C966    1.406   .     A
C965   C970    1.398   .     A
C966   H971    1.083   .     S
C966   C967    1.395   .     A
C967   H972    1.081   .     S
C967   C1070   1.395   .     S
C968   C969    1.397   .     A
C968   H973    1.081   .     S
C968   C1171   1.395   1_455 S
C969   H974    1.074   .     S
C969   C1174   1.392   1_455 S
C970   H975    1.083   .     S
C970   C1071   1.392   .     S
C976   C977    1.408   .     A
C976   C981    1.402   .     A
C977   C978    1.398   .     A
C977   H1594   1.083   1_545 S
C978   C979    1.396   .     A
C978   H983    1.082   .     S
C979   H984    1.082   .     S
C979   C980    1.399   .     A
C980   C981    1.398   .     A
C980   H1189   1.083   1_455 S
C981   H986    1.073   .     S
H982   C1283   1.083   .     S
H985   C1082   1.083   .     S
C987   C988    1.416   .     A
C987   C1298   1.412   .     S
C988   C989    1.397   .     A
C988   H993    1.080   .     S
C989   C990    1.394   .     A
C989   H994    1.082   .     S
C990   H995    1.082   .     S
C990   C991    1.394   .     A
C991   C1298   1.397   .     S
C991   H1302   1.083   .     S
C992   H997    1.078   .     S
C992   C1599   1.412   1_545 S
C992   C1603   1.397   1_545 S
H996   C1603   1.083   1_545 S
C998   C1003   1.411   .     A
C998   C999    1.398   .     A
C999   C1000   1.395   .     A
C999   H1004   1.059   .     S
C1000  H1005   1.083   .     S
C1000  C1205   1.391   1_455 S
C1001  C1002   1.393   .     A
C1001  C1102   1.391   .     S
C1001  H1312   1.078   .     S
C1002  C1105   1.395   .     S
C1002  H1313   1.082   .     S
C1003  H1008   1.082   .     S
C1003  C1206   1.395   1_455 S
H1006  C1613   1.078   1_545 S
H1007  C1614   1.082   1_545 S
O1009  H1010   0.986   .     S
O1011  H1012   0.991   .     S
O1013  C24     1.371   1_556 S
O1013  H96     0.990   1_556 S
O1015  H1016   0.991   .     S
O1017  H1018   0.987   .     S
O1019  H1020   0.990   .     S
C1021  O1060   1.299   .     A
C1021  C1037   1.468   .     S
C1021  O1059   1.323   .     A
C1022  C1023   1.413   .     A
C1022  C106    1.410   1_556 S
C1022  C130    1.396   1_556 S
C1023  C1027   1.408   .     A
C1023  C1030   1.427   .     A
C1024  C1028   1.416   .     A
C1025  C1026   1.413   .     A
C1025  C106    1.407   1_556 S
C1025  C126    1.395   1_556 S
C1026  O1113   1.377   .     S
C1026  C1027   1.406   .     A
C1027  O1121   1.382   .     S
C1028  C1045   1.417   .     A
C1028  O1117   1.376   .     S
C1029  C1045   1.409   .     A
C1029  C1067   1.471   .     S
C1029  C1044   1.397   .     A
C1030  C1046   1.415   .     A
C1030  C1032   1.496   .     S
C1031  H1056   1.083   .     S
C1031  C1037   1.414   .     A
C1031  C1339   1.390   .     S
C1032  O1062   1.313   .     A
C1032  O1061   1.321   .     A
C1033  C1034   1.399   .     A
C1033  H1051   1.083   .     S
C1033  C1643   1.390   1_545 S
C1034  C1042   1.459   .     S
C1034  C1035   1.407   .     A
C1035  C1078   1.483   .     S
C1035  C1648   1.404   1_545 S
C1036  C1037   1.408   .     A
C1036  C1089   1.505   .     S
C1036  C1341   1.404   .     S
C1038  H1052   1.078   .     S
C1038  N1058   1.344   .     A
C1038  C1141   1.424   .     S
C1039  N1057   1.397   .     A
C1039  C1100   1.480   .     S
C1040  H1053   1.081   .     S
C1040  N1057   1.364   .     A
C1041  N1058   1.387   .     A
C1041  O1111   1.372   .     S
C1041  C1142   1.426   .     S
C1042  O1064   1.313   .     A
C1042  O1063   1.306   .     A
C1043  O1065   1.314   .     A
C1043  O1066   1.315   .     A
C1043  C1045   1.486   .     S
C1046  C1047   1.392   .     A
C1046  O1119   1.366   .     S
C1047  C130    1.382   1_556 S
C1047  H137    1.076   1_556 S
C1048  H1054   1.075   .     S
Cu1049 O1063   1.959   .     S
Cu1049 O1065   1.992   .     S
Cu1049 Cu1050  2.731   .     S
Cu1049 O1059   1.980   .     S
Cu1049 O1061   1.987   .     S
Cu1049 N1057   2.053   .     S
Cu1050 N1058   2.052   .     S
Cu1050 O1064   1.980   .     S
Cu1050 O1066   1.987   .     S
Cu1050 O1060   1.959   .     S
Cu1050 O1062   1.992   .     S
C1067  C1068   1.406   .     A
C1067  C1072   1.398   .     A
C1068  H1073   1.083   .     S
C1068  C1069   1.395   .     A
C1069  H1074   1.081   .     S
C1069  C1172   1.395   .     S
C1070  C1071   1.397   .     A
C1070  H1075   1.081   .     S
C1071  H1076   1.074   .     S
C1072  H1077   1.083   .     S
C1072  C1173   1.392   .     S
C1078  C1079   1.408   .     A
C1078  C1083   1.402   .     A
C1079  C1080   1.398   .     A
C1079  H1696   1.083   1_545 S
C1080  C1081   1.396   .     A
C1080  H1085   1.082   .     S
C1081  H1086   1.082   .     S
C1081  C1082   1.399   .     A
C1082  C1083   1.398   .     A
C1083  H1088   1.073   .     S
H1084  C1385   1.083   .     S
H1087  C1184   1.083   .     S
C1089  C1090   1.416   .     A
C1089  C1400   1.412   .     S
C1090  C1091   1.397   .     A
C1090  H1095   1.080   .     S
C1091  C1092   1.394   .     A
C1091  H1096   1.082   .     S
C1092  H1097   1.082   .     S
C1092  C1093   1.394   .     A
C1093  C1400   1.397   .     S
C1093  H1404   1.083   .     S
C1094  H1099   1.078   .     S
C1094  C1701   1.412   1_545 S
C1094  C1705   1.397   1_545 S
H1098  C1705   1.083   1_545 S
C1100  C1105   1.411   .     A
C1100  C1101   1.398   .     A
C1101  C1102   1.395   .     A
C1101  H1106   1.059   .     S
C1102  H1107   1.083   .     S
C1103  C1104   1.393   .     A
C1103  C1204   1.391   .     S
C1103  H1414   1.078   .     S
C1104  C1207   1.395   .     S
C1104  H1415   1.082   .     S
C1105  H1110   1.082   .     S
H1108  C1715   1.078   1_545 S
H1109  C1716   1.082   1_545 S
O1111  H1112   0.986   .     S
O1113  H1114   0.991   .     S
O1115  C126    1.371   1_556 S
O1115  H198    0.990   1_556 S
O1117  H1118   0.991   .     S
O1119  H1120   0.987   .     S
O1121  H1122   0.990   .     S
C1123  O1162   1.299   .     A
C1123  C1139   1.468   .     S
C1123  O1161   1.323   .     A
C1124  C1125   1.413   .     A
C1124  C208    1.410   1_556 S
C1124  C232    1.396   1_556 S
C1125  C1129   1.408   .     A
C1125  C1132   1.427   .     A
C1126  C1130   1.416   .     A
C1127  C1128   1.413   .     A
C1127  C208    1.407   1_556 S
C1127  C228    1.395   1_556 S
C1128  O1215   1.377   .     S
C1128  C1129   1.406   .     A
C1129  O1223   1.382   .     S
C1130  C1147   1.417   .     A
C1130  O1219   1.376   .     S
C1131  C1147   1.409   .     A
C1131  C1169   1.471   .     S
C1131  C1146   1.397   .     A
C1132  C1148   1.415   .     A
C1132  C1134   1.496   .     S
C1133  H1158   1.083   .     S
C1133  C1139   1.414   .     A
C1133  C1441   1.390   .     S
C1134  O1164   1.313   .     A
C1134  O1163   1.321   .     A
C1135  C1136   1.399   .     A
C1135  H1153   1.083   .     S
C1135  C1745   1.390   1_545 S
C1136  C1144   1.459   .     S
C1136  C1137   1.407   .     A
C1137  C1180   1.483   .     S
C1137  C1750   1.404   1_545 S
C1138  C1139   1.408   .     A
C1138  C1191   1.505   .     S
C1138  C1443   1.404   .     S
C1140  H1154   1.078   .     S
C1140  N1160   1.344   .     A
C1140  C937    1.424   1_655 S
C1141  N1159   1.397   .     A
C1141  C1202   1.480   .     S
C1142  H1155   1.081   .     S
C1142  N1159   1.364   .     A
C1143  N1160   1.387   .     A
C1143  O1213   1.372   .     S
C1143  C938    1.426   1_655 S
C1144  O1166   1.313   .     A
C1144  O1165   1.306   .     A
C1145  O1167   1.314   .     A
C1145  O1168   1.315   .     A
C1145  C1147   1.486   .     S
C1148  C1149   1.392   .     A
C1148  O1221   1.366   .     S
C1149  C232    1.382   1_556 S
C1149  H239    1.076   1_556 S
C1150  H1156   1.075   .     S
Cu1151 O1165   1.959   .     S
Cu1151 O1167   1.992   .     S
Cu1151 Cu1152  2.731   .     S
Cu1151 O1161   1.980   .     S
Cu1151 O1163   1.987   .     S
Cu1151 N1159   2.053   .     S
Cu1152 N1160   2.052   .     S
Cu1152 O1166   1.980   .     S
Cu1152 O1168   1.987   .     S
Cu1152 O1162   1.959   .     S
Cu1152 O1164   1.992   .     S
C1169  C1170   1.406   .     A
C1169  C1174   1.398   .     A
C1170  H1175   1.083   .     S
C1170  C1171   1.395   .     A
C1171  H1176   1.081   .     S
C1171  C968    1.395   1_655 S
C1172  C1173   1.397   .     A
C1172  H1177   1.081   .     S
C1173  H1178   1.074   .     S
C1174  H1179   1.083   .     S
C1174  C969    1.392   1_655 S
C1180  C1181   1.408   .     A
C1180  C1185   1.402   .     A
C1181  C1182   1.398   .     A
C1181  H1798   1.083   1_545 S
C1182  C1183   1.396   .     A
C1182  H1187   1.082   .     S
C1183  H1188   1.082   .     S
C1183  C1184   1.399   .     A
C1184  C1185   1.398   .     A
C1185  H1190   1.073   .     S
H1186  C1487   1.083   .     S
H1189  C980    1.083   1_655 S
C1191  C1192   1.416   .     A
C1191  C1502   1.412   .     S
C1192  C1193   1.397   .     A
C1192  H1197   1.080   .     S
C1193  C1194   1.394   .     A
C1193  H1198   1.082   .     S
C1194  H1199   1.082   .     S
C1194  C1195   1.394   .     A
C1195  C1502   1.397   .     S
C1195  H1506   1.083   .     S
C1196  H1201   1.078   .     S
C1196  C1803   1.412   1_545 S
C1196  C1807   1.397   1_545 S
H1200  C1807   1.083   1_545 S
C1202  C1207   1.411   .     A
C1202  C1203   1.398   .     A
C1203  C1204   1.395   .     A
C1203  H1208   1.059   .     S
C1204  H1209   1.083   .     S
C1205  C1206   1.393   .     A
C1205  C1000   1.391   1_655 S
C1205  H1516   1.078   .     S
C1206  C1003   1.395   1_655 S
C1206  H1517   1.082   .     S
C1207  H1212   1.082   .     S
H1210  C1817   1.078   1_545 S
H1211  C1818   1.082   1_545 S
O1213  H1214   0.986   .     S
O1215  H1216   0.991   .     S
O1217  C228    1.371   1_556 S
O1217  H300    0.990   1_556 S
O1219  H1220   0.991   .     S
O1221  H1222   0.987   .     S
O1223  H1224   0.990   .     S
C1225  O1264   1.299   .     A
C1225  C1241   1.468   .     S
C1225  O1263   1.323   .     A
C1226  C1227   1.413   .     A
C1226  C310    1.410   1_556 S
C1226  C334    1.396   1_556 S
C1227  C1231   1.408   .     A
C1227  C1234   1.427   .     A
C1228  C1232   1.416   .     A
C1229  C1230   1.413   .     A
C1229  C310    1.407   1_556 S
C1229  C330    1.395   1_556 S
C1230  O1317   1.377   .     S
C1230  C1231   1.406   .     A
C1231  O1325   1.382   .     S
C1232  C1249   1.417   .     A
C1232  O1321   1.376   .     S
C1233  C1249   1.409   .     A
C1233  C1271   1.471   .     S
C1233  C1248   1.397   .     A
C1234  C1250   1.415   .     A
C1234  C1236   1.496   .     S
C1235  H1260   1.083   .     S
C1235  C1241   1.414   .     A
C1235  C1543   1.390   .     S
C1236  O1266   1.313   .     A
C1236  O1265   1.321   .     A
C1237  C1238   1.399   .     A
C1237  H1255   1.083   .     S
C1238  C1246   1.459   .     S
C1238  C1239   1.407   .     A
C1239  C1282   1.483   .     S
C1240  C1241   1.408   .     A
C1240  C1293   1.505   .     S
C1240  C1545   1.404   .     S
C1242  H1256   1.078   .     S
C1242  N1262   1.344   .     A
C1242  C1345   1.424   .     S
C1243  N1261   1.397   .     A
C1243  C1304   1.480   .     S
C1243  C1446   1.424   1_455 S
C1244  H1257   1.081   .     S
C1244  N1261   1.364   .     A
C1244  C1449   1.426   1_455 S
C1245  N1262   1.387   .     A
C1245  O1315   1.372   .     S
C1245  C1346   1.426   .     S
C1246  O1268   1.313   .     A
C1246  O1267   1.306   .     A
C1247  O1269   1.314   .     A
C1247  O1270   1.315   .     A
C1247  C1249   1.486   .     S
C1250  C1251   1.392   .     A
C1250  O1323   1.366   .     S
C1251  C334    1.382   1_556 S
C1251  H341    1.076   1_556 S
C1252  H1258   1.075   .     S
Cu1253 O1267   1.959   .     S
Cu1253 O1269   1.992   .     S
Cu1253 Cu1254  2.731   .     S
Cu1253 O1263   1.980   .     S
Cu1253 O1265   1.987   .     S
Cu1253 N1261   2.053   .     S
Cu1254 N1262   2.052   .     S
Cu1254 O1268   1.980   .     S
Cu1254 O1270   1.987   .     S
Cu1254 O1264   1.959   .     S
Cu1254 O1266   1.992   .     S
C1271  C1272   1.406   .     A
C1271  C1276   1.398   .     A
C1272  H1277   1.083   .     S
C1272  C1273   1.395   .     A
C1273  H1278   1.081   .     S
C1273  C1376   1.395   .     S
C1274  C1275   1.397   .     A
C1274  H1279   1.081   .     S
C1274  C1477   1.395   1_455 S
C1275  H1280   1.074   .     S
C1275  C1480   1.392   1_455 S
C1276  H1281   1.083   .     S
C1276  C1377   1.392   .     S
C1282  C1283   1.408   .     A
C1282  C1287   1.402   .     A
C1283  C1284   1.398   .     A
C1284  C1285   1.396   .     A
C1284  H1289   1.082   .     S
C1285  H1290   1.082   .     S
C1285  C1286   1.399   .     A
C1286  C1287   1.398   .     A
C1286  H1495   1.083   1_455 S
C1287  H1292   1.073   .     S
H1288  C1589   1.083   .     S
H1291  C1388   1.083   .     S
C1293  C1294   1.416   .     A
C1293  C1604   1.412   .     S
C1294  C1295   1.397   .     A
C1294  H1299   1.080   .     S
C1295  C1296   1.394   .     A
C1295  H1300   1.082   .     S
C1296  H1301   1.082   .     S
C1296  C1297   1.394   .     A
C1297  C1604   1.397   .     S
C1297  H1608   1.083   .     S
C1298  H1303   1.078   .     S
C1304  C1309   1.411   .     A
C1304  C1305   1.398   .     A
C1305  C1306   1.395   .     A
C1305  H1310   1.059   .     S
C1306  H1311   1.083   .     S
C1306  C1511   1.391   1_455 S
C1307  C1308   1.393   .     A
C1307  C1408   1.391   .     S
C1307  H1618   1.078   .     S
C1308  C1411   1.395   .     S
C1308  H1619   1.082   .     S
C1309  H1314   1.082   .     S
C1309  C1512   1.395   1_455 S
O1315  H1316   0.986   .     S
O1317  H1318   0.991   .     S
O1319  C330    1.371   1_556 S
O1319  H402    0.990   1_556 S
O1321  H1322   0.991   .     S
O1323  H1324   0.987   .     S
O1325  H1326   0.990   .     S
C1327  O1366   1.299   .     A
C1327  C1343   1.468   .     S
C1327  O1365   1.323   .     A
C1328  C1329   1.413   .     A
C1328  C412    1.410   1_556 S
C1328  C436    1.396   1_556 S
C1329  C1333   1.408   .     A
C1329  C1336   1.427   .     A
C1330  C1334   1.416   .     A
C1331  C1332   1.413   .     A
C1331  C412    1.407   1_556 S
C1331  C432    1.395   1_556 S
C1332  O1419   1.377   .     S
C1332  C1333   1.406   .     A
C1333  O1427   1.382   .     S
C1334  C1351   1.417   .     A
C1334  O1423   1.376   .     S
C1335  C1351   1.409   .     A
C1335  C1373   1.471   .     S
C1335  C1350   1.397   .     A
C1336  C1352   1.415   .     A
C1336  C1338   1.496   .     S
C1337  H1362   1.083   .     S
C1337  C1343   1.414   .     A
C1337  C1645   1.390   .     S
C1338  O1368   1.313   .     A
C1338  O1367   1.321   .     A
C1339  C1340   1.399   .     A
C1339  H1357   1.083   .     S
C1340  C1348   1.459   .     S
C1340  C1341   1.407   .     A
C1341  C1384   1.483   .     S
C1342  C1343   1.408   .     A
C1342  C1395   1.505   .     S
C1342  C1647   1.404   .     S
C1344  H1358   1.078   .     S
C1344  N1364   1.344   .     A
C1344  C1447   1.424   .     S
C1345  N1363   1.397   .     A
C1345  C1406   1.480   .     S
C1346  H1359   1.081   .     S
C1346  N1363   1.364   .     A
C1347  N1364   1.387   .     A
C1347  O1417   1.372   .     S
C1347  C1448   1.426   .     S
C1348  O1370   1.313   .     A
C1348  O1369   1.306   .     A
C1349  O1371   1.314   .     A
C1349  O1372   1.315   .     A
C1349  C1351   1.486   .     S
C1352  C1353   1.392   .     A
C1352  O1425   1.366   .     S
C1353  C436    1.382   1_556 S
C1353  H443    1.076   1_556 S
C1354  H1360   1.075   .     S
Cu1355 O1369   1.959   .     S
Cu1355 O1371   1.992   .     S
Cu1355 Cu1356  2.731   .     S
Cu1355 O1365   1.980   .     S
Cu1355 O1367   1.987   .     S
Cu1355 N1363   2.053   .     S
Cu1356 N1364   2.052   .     S
Cu1356 O1370   1.980   .     S
Cu1356 O1372   1.987   .     S
Cu1356 O1366   1.959   .     S
Cu1356 O1368   1.992   .     S
C1373  C1374   1.406   .     A
C1373  C1378   1.398   .     A
C1374  H1379   1.083   .     S
C1374  C1375   1.395   .     A
C1375  H1380   1.081   .     S
C1375  C1478   1.395   .     S
C1376  C1377   1.397   .     A
C1376  H1381   1.081   .     S
C1377  H1382   1.074   .     S
C1378  H1383   1.083   .     S
C1378  C1479   1.392   .     S
C1384  C1385   1.408   .     A
C1384  C1389   1.402   .     A
C1385  C1386   1.398   .     A
C1386  C1387   1.396   .     A
C1386  H1391   1.082   .     S
C1387  H1392   1.082   .     S
C1387  C1388   1.399   .     A
C1388  C1389   1.398   .     A
C1389  H1394   1.073   .     S
H1390  C1691   1.083   .     S
H1393  C1490   1.083   .     S
C1395  C1396   1.416   .     A
C1395  C1706   1.412   .     S
C1396  C1397   1.397   .     A
C1396  H1401   1.080   .     S
C1397  C1398   1.394   .     A
C1397  H1402   1.082   .     S
C1398  H1403   1.082   .     S
C1398  C1399   1.394   .     A
C1399  C1706   1.397   .     S
C1399  H1710   1.083   .     S
C1400  H1405   1.078   .     S
C1406  C1411   1.411   .     A
C1406  C1407   1.398   .     A
C1407  C1408   1.395   .     A
C1407  H1412   1.059   .     S
C1408  H1413   1.083   .     S
C1409  C1410   1.393   .     A
C1409  C1510   1.391   .     S
C1409  H1720   1.078   .     S
C1410  C1513   1.395   .     S
C1410  H1721   1.082   .     S
C1411  H1416   1.082   .     S
O1417  H1418   0.986   .     S
O1419  H1420   0.991   .     S
O1421  C432    1.371   1_556 S
O1421  H504    0.990   1_556 S
O1423  H1424   0.991   .     S
O1425  H1426   0.987   .     S
O1427  H1428   0.990   .     S
C1429  O1468   1.299   .     A
C1429  C1445   1.468   .     S
C1429  O1467   1.323   .     A
C1430  C1431   1.413   .     A
C1430  C514    1.410   1_556 S
C1430  C538    1.396   1_556 S
C1431  C1435   1.408   .     A
C1431  C1438   1.427   .     A
C1432  C1436   1.416   .     A
C1433  C1434   1.413   .     A
C1433  C514    1.407   1_556 S
C1433  C534    1.395   1_556 S
C1434  O1521   1.377   .     S
C1434  C1435   1.406   .     A
C1435  O1529   1.382   .     S
C1436  C1453   1.417   .     A
C1436  O1525   1.376   .     S
C1437  C1453   1.409   .     A
C1437  C1475   1.471   .     S
C1437  C1452   1.397   .     A
C1438  C1454   1.415   .     A
C1438  C1440   1.496   .     S
C1439  H1464   1.083   .     S
C1439  C1445   1.414   .     A
C1439  C1747   1.390   .     S
C1440  O1470   1.313   .     A
C1440  O1469   1.321   .     A
C1441  C1442   1.399   .     A
C1441  H1459   1.083   .     S
C1442  C1450   1.459   .     S
C1442  C1443   1.407   .     A
C1443  C1486   1.483   .     S
C1444  C1445   1.408   .     A
C1444  C1497   1.505   .     S
C1444  C1749   1.404   .     S
C1446  H1460   1.078   .     S
C1446  N1466   1.344   .     A
C1446  C1243   1.424   1_655 S
C1447  N1465   1.397   .     A
C1447  C1508   1.480   .     S
C1448  H1461   1.081   .     S
C1448  N1465   1.364   .     A
C1449  N1466   1.387   .     A
C1449  O1519   1.372   .     S
C1449  C1244   1.426   1_655 S
C1450  O1472   1.313   .     A
C1450  O1471   1.306   .     A
C1451  O1473   1.314   .     A
C1451  O1474   1.315   .     A
C1451  C1453   1.486   .     S
C1454  C1455   1.392   .     A
C1454  O1527   1.366   .     S
C1455  C538    1.382   1_556 S
C1455  H545    1.076   1_556 S
C1456  H1462   1.075   .     S
Cu1457 O1471   1.959   .     S
Cu1457 O1473   1.992   .     S
Cu1457 Cu1458  2.731   .     S
Cu1457 O1467   1.980   .     S
Cu1457 O1469   1.987   .     S
Cu1457 N1465   2.053   .     S
Cu1458 N1466   2.052   .     S
Cu1458 O1472   1.980   .     S
Cu1458 O1474   1.987   .     S
Cu1458 O1468   1.959   .     S
Cu1458 O1470   1.992   .     S
C1475  C1476   1.406   .     A
C1475  C1480   1.398   .     A
C1476  H1481   1.083   .     S
C1476  C1477   1.395   .     A
C1477  H1482   1.081   .     S
C1477  C1274   1.395   1_655 S
C1478  C1479   1.397   .     A
C1478  H1483   1.081   .     S
C1479  H1484   1.074   .     S
C1480  H1485   1.083   .     S
C1480  C1275   1.392   1_655 S
C1486  C1487   1.408   .     A
C1486  C1491   1.402   .     A
C1487  C1488   1.398   .     A
C1488  C1489   1.396   .     A
C1488  H1493   1.082   .     S
C1489  H1494   1.082   .     S
C1489  C1490   1.399   .     A
C1490  C1491   1.398   .     A
C1491  H1496   1.073   .     S
H1492  C1793   1.083   .     S
H1495  C1286   1.083   1_655 S
C1497  C1498   1.416   .     A
C1497  C1808   1.412   .     S
C1498  C1499   1.397   .     A
C1498  H1503   1.080   .     S
C1499  C1500   1.394   .     A
C1499  H1504   1.082   .     S
C1500  H1505   1.082   .     S
C1500  C1501   1.394   .     A
C1501  C1808   1.397   .     S
C1501  H1812   1.083   .     S
C1502  H1507   1.078   .     S
C1508  C1513   1.411   .     A
C1508  C1509   1.398   .     A
C1509  C1510   1.395   .     A
C1509  H1514   1.059   .     S
C1510  H1515   1.083   .     S
C1511  C1512   1.393   .     A
C1511  C1306   1.391   1_655 S
C1511  H1822   1.078   .     S
C1512  C1309   1.395   1_655 S
C1512  H1823   1.082   .     S
C1513  H1518   1.082   .     S
O1519  H1520   0.986   .     S
O1521  H1522   0.991   .     S
O1523  C534    1.371   1_556 S
O1523  H606    0.990   1_556 S
O1525  H1526   0.991   .     S
O1527  H1528   0.987   .     S
O1529  H1530   0.990   .     S
C1531  O1570   1.299   .     A
C1531  C1547   1.468   .     S
C1531  O1569   1.323   .     A
C1532  C1533   1.413   .     A
C1532  C616    1.410   1_556 S
C1532  C640    1.396   1_556 S
C1533  C1537   1.408   .     A
C1533  C1540   1.427   .     A
C1534  C1538   1.416   .     A
C1535  C1536   1.413   .     A
C1535  C616    1.407   1_556 S
C1535  C636    1.395   1_556 S
C1536  O1623   1.377   .     S
C1536  C1537   1.406   .     A
C1537  O1631   1.382   .     S
C1538  C1555   1.417   .     A
C1538  O1627   1.376   .     S
C1539  C1555   1.409   .     A
C1539  C1577   1.471   .     S
C1539  C1554   1.397   .     A
C1540  C1556   1.415   .     A
C1540  C1542   1.496   .     S
C1541  H1566   1.083   .     S
C1541  C1547   1.414   .     A
C1541  C931    1.390   1_565 S
C1542  O1572   1.313   .     A
C1542  O1571   1.321   .     A
C1543  C1544   1.399   .     A
C1543  H1561   1.083   .     S
C1544  C1552   1.459   .     S
C1544  C1545   1.407   .     A
C1545  C1588   1.483   .     S
C1546  C1547   1.408   .     A
C1546  C1599   1.505   .     S
C1546  C933    1.404   1_565 S
C1548  H1562   1.078   .     S
C1548  N1568   1.344   .     A
C1548  C1651   1.424   .     S
C1549  N1567   1.397   .     A
C1549  C1610   1.480   .     S
C1549  C1752   1.424   1_455 S
C1550  H1563   1.081   .     S
C1550  N1567   1.364   .     A
C1550  C1755   1.426   1_455 S
C1551  N1568   1.387   .     A
C1551  O1621   1.372   .     S
C1551  C1652   1.426   .     S
C1552  O1574   1.313   .     A
C1552  O1573   1.306   .     A
C1553  O1575   1.314   .     A
C1553  O1576   1.315   .     A
C1553  C1555   1.486   .     S
C1556  C1557   1.392   .     A
C1556  O1629   1.366   .     S
C1557  C640    1.382   1_556 S
C1557  H647    1.076   1_556 S
C1558  H1564   1.075   .     S
Cu1559 O1573   1.959   .     S
Cu1559 O1575   1.992   .     S
Cu1559 Cu1560  2.731   .     S
Cu1559 O1569   1.980   .     S
Cu1559 O1571   1.987   .     S
Cu1559 N1567   2.053   .     S
Cu1560 N1568   2.052   .     S
Cu1560 O1574   1.980   .     S
Cu1560 O1576   1.987   .     S
Cu1560 O1570   1.959   .     S
Cu1560 O1572   1.992   .     S
C1577  C1578   1.406   .     A
C1577  C1582   1.398   .     A
C1578  H1583   1.083   .     S
C1578  C1579   1.395   .     A
C1579  H1584   1.081   .     S
C1579  C1682   1.395   .     S
C1580  C1581   1.397   .     A
C1580  H1585   1.081   .     S
C1580  C1783   1.395   1_455 S
C1581  H1586   1.074   .     S
C1581  C1786   1.392   1_455 S
C1582  H1587   1.083   .     S
C1582  C1683   1.392   .     S
C1588  C1589   1.408   .     A
C1588  C1593   1.402   .     A
C1589  C1590   1.398   .     A
C1590  C1591   1.396   .     A
C1590  H1595   1.082   .     S
C1591  H1596   1.082   .     S
C1591  C1592   1.399   .     A
C1592  C1593   1.398   .     A
C1592  H1801   1.083   1_455 S
C1593  H1598   1.073   .     S
H1594  C977    1.083   1_565 S
H1597  C1694   1.083   .     S
C1599  C1600   1.416   .     A
C1599  C992    1.412   1_565 S
C1600  C1601   1.397   .     A
C1600  H1605   1.080   .     S
C1601  C1602   1.394   .     A
C1601  H1606   1.082   .     S
C1602  H1607   1.082   .     S
C1602  C1603   1.394   .     A
C1603  C992    1.397   1_565 S
C1603  H996    1.083   1_565 S
C1604  H1609   1.078   .     S
C1610  C1615   1.411   .     A
C1610  C1611   1.398   .     A
C1611  C1612   1.395   .     A
C1611  H1616   1.059   .     S
C1612  H1617   1.083   .     S
C1612  C1817   1.391   1_455 S
C1613  C1614   1.393   .     A
C1613  C1714   1.391   .     S
C1613  H1006   1.078   1_565 S
C1614  C1717   1.395   .     S
C1614  H1007   1.082   1_565 S
C1615  H1620   1.082   .     S
C1615  C1818   1.395   1_455 S
O1621  H1622   0.986   .     S
O1623  H1624   0.991   .     S
O1625  C636    1.371   1_556 S
O1625  H708    0.990   1_556 S
O1627  H1628   0.991   .     S
O1629  H1630   0.987   .     S
O1631  H1632   0.990   .     S
C1633  O1672   1.299   .     A
C1633  C1649   1.468   .     S
C1633  O1671   1.323   .     A
C1634  C1635   1.413   .     A
C1634  C718    1.410   1_556 S
C1634  C742    1.396   1_556 S
C1635  C1639   1.408   .     A
C1635  C1642   1.427   .     A
C1636  C1640   1.416   .     A
C1637  C1638   1.413   .     A
C1637  C718    1.407   1_556 S
C1637  C738    1.395   1_556 S
C1638  O1725   1.377   .     S
C1638  C1639   1.406   .     A
C1639  O1733   1.382   .     S
C1640  C1657   1.417   .     A
C1640  O1729   1.376   .     S
C1641  C1657   1.409   .     A
C1641  C1679   1.471   .     S
C1641  C1656   1.397   .     A
C1642  C1658   1.415   .     A
C1642  C1644   1.496   .     S
C1643  H1668   1.083   .     S
C1643  C1649   1.414   .     A
C1643  C1033   1.390   1_565 S
C1644  O1674   1.313   .     A
C1644  O1673   1.321   .     A
C1645  C1646   1.399   .     A
C1645  H1663   1.083   .     S
C1646  C1654   1.459   .     S
C1646  C1647   1.407   .     A
C1647  C1690   1.483   .     S
C1648  C1649   1.408   .     A
C1648  C1701   1.505   .     S
C1648  C1035   1.404   1_565 S
C1650  H1664   1.078   .     S
C1650  N1670   1.344   .     A
C1650  C1753   1.424   .     S
C1651  N1669   1.397   .     A
C1651  C1712   1.480   .     S
C1652  H1665   1.081   .     S
C1652  N1669   1.364   .     A
C1653  N1670   1.387   .     A
C1653  O1723   1.372   .     S
C1653  C1754   1.426   .     S
C1654  O1676   1.313   .     A
C1654  O1675   1.306   .     A
C1655  O1677   1.314   .     A
C1655  O1678   1.315   .     A
C1655  C1657   1.486   .     S
C1658  C1659   1.392   .     A
C1658  O1731   1.366   .     S
C1659  C742    1.382   1_556 S
C1659  H749    1.076   1_556 S
C1660  H1666   1.075   .     S
Cu1661 O1675   1.959   .     S
Cu1661 O1677   1.992   .     S
Cu1661 Cu1662  2.731   .     S
Cu1661 O1671   1.980   .     S
Cu1661 O1673   1.987   .     S
Cu1661 N1669   2.053   .     S
Cu1662 N1670   2.052   .     S
Cu1662 O1676   1.980   .     S
Cu1662 O1678   1.987   .     S
Cu1662 O1672   1.959   .     S
Cu1662 O1674   1.992   .     S
C1679  C1680   1.406   .     A
C1679  C1684   1.398   .     A
C1680  H1685   1.083   .     S
C1680  C1681   1.395   .     A
C1681  H1686   1.081   .     S
C1681  C1784   1.395   .     S
C1682  C1683   1.397   .     A
C1682  H1687   1.081   .     S
C1683  H1688   1.074   .     S
C1684  H1689   1.083   .     S
C1684  C1785   1.392   .     S
C1690  C1691   1.408   .     A
C1690  C1695   1.402   .     A
C1691  C1692   1.398   .     A
C1692  C1693   1.396   .     A
C1692  H1697   1.082   .     S
C1693  H1698   1.082   .     S
C1693  C1694   1.399   .     A
C1694  C1695   1.398   .     A
C1695  H1700   1.073   .     S
H1696  C1079   1.083   1_565 S
H1699  C1796   1.083   .     S
C1701  C1702   1.416   .     A
C1701  C1094   1.412   1_565 S
C1702  C1703   1.397   .     A
C1702  H1707   1.080   .     S
C1703  C1704   1.394   .     A
C1703  H1708   1.082   .     S
C1704  H1709   1.082   .     S
C1704  C1705   1.394   .     A
C1705  C1094   1.397   1_565 S
C1705  H1098   1.083   1_565 S
C1706  H1711   1.078   .     S
C1712  C1717   1.411   .     A
C1712  C1713   1.398   .     A
C1713  C1714   1.395   .     A
C1713  H1718   1.059   .     S
C1714  H1719   1.083   .     S
C1715  C1716   1.393   .     A
C1715  C1816   1.391   .     S
C1715  H1108   1.078   1_565 S
C1716  C1819   1.395   .     S
C1716  H1109   1.082   1_565 S
C1717  H1722   1.082   .     S
O1723  H1724   0.986   .     S
O1725  H1726   0.991   .     S
O1727  C738    1.371   1_556 S
O1727  H810    0.990   1_556 S
O1729  H1730   0.991   .     S
O1731  H1732   0.987   .     S
O1733  H1734   0.990   .     S
C1735  O1774   1.299   .     A
C1735  C1751   1.468   .     S
C1735  O1773   1.323   .     A
C1736  C1737   1.413   .     A
C1736  C820    1.410   1_556 S
C1736  C844    1.396   1_556 S
C1737  C1741   1.408   .     A
C1737  C1744   1.427   .     A
C1738  C1742   1.416   .     A
C1739  C1740   1.413   .     A
C1739  C820    1.407   1_556 S
C1739  C840    1.395   1_556 S
C1740  O1827   1.377   .     S
C1740  C1741   1.406   .     A
C1741  O1835   1.382   .     S
C1742  C1759   1.417   .     A
C1742  O1831   1.376   .     S
C1743  C1759   1.409   .     A
C1743  C1781   1.471   .     S
C1743  C1758   1.397   .     A
C1744  C1760   1.415   .     A
C1744  C1746   1.496   .     S
C1745  H1770   1.083   .     S
C1745  C1751   1.414   .     A
C1745  C1135   1.390   1_565 S
C1746  O1776   1.313   .     A
C1746  O1775   1.321   .     A
C1747  C1748   1.399   .     A
C1747  H1765   1.083   .     S
C1748  C1756   1.459   .     S
C1748  C1749   1.407   .     A
C1749  C1792   1.483   .     S
C1750  C1751   1.408   .     A
C1750  C1803   1.505   .     S
C1750  C1137   1.404   1_565 S
C1752  H1766   1.078   .     S
C1752  N1772   1.344   .     A
C1752  C1549   1.424   1_655 S
C1753  N1771   1.397   .     A
C1753  C1814   1.480   .     S
C1754  H1767   1.081   .     S
C1754  N1771   1.364   .     A
C1755  N1772   1.387   .     A
C1755  O1825   1.372   .     S
C1755  C1550   1.426   1_655 S
C1756  O1778   1.313   .     A
C1756  O1777   1.306   .     A
C1757  O1779   1.314   .     A
C1757  O1780   1.315   .     A
C1757  C1759   1.486   .     S
C1760  C1761   1.392   .     A
C1760  O1833   1.366   .     S
C1761  C844    1.382   1_556 S
C1761  H851    1.076   1_556 S
C1762  H1768   1.075   .     S
Cu1763 O1777   1.959   .     S
Cu1763 O1779   1.992   .     S
Cu1763 Cu1764  2.731   .     S
Cu1763 O1773   1.980   .     S
Cu1763 O1775   1.987   .     S
Cu1763 N1771   2.053   .     S
Cu1764 N1772   2.052   .     S
Cu1764 O1778   1.980   .     S
Cu1764 O1780   1.987   .     S
Cu1764 O1774   1.959   .     S
Cu1764 O1776   1.992   .     S
C1781  C1782   1.406   .     A
C1781  C1786   1.398   .     A
C1782  H1787   1.083   .     S
C1782  C1783   1.395   .     A
C1783  H1788   1.081   .     S
C1783  C1580   1.395   1_655 S
C1784  C1785   1.397   .     A
C1784  H1789   1.081   .     S
C1785  H1790   1.074   .     S
C1786  H1791   1.083   .     S
C1786  C1581   1.392   1_655 S
C1792  C1793   1.408   .     A
C1792  C1797   1.402   .     A
C1793  C1794   1.398   .     A
C1794  C1795   1.396   .     A
C1794  H1799   1.082   .     S
C1795  H1800   1.082   .     S
C1795  C1796   1.399   .     A
C1796  C1797   1.398   .     A
C1797  H1802   1.073   .     S
H1798  C1181   1.083   1_565 S
H1801  C1592   1.083   1_655 S
C1803  C1804   1.416   .     A
C1803  C1196   1.412   1_565 S
C1804  C1805   1.397   .     A
C1804  H1809   1.080   .     S
C1805  C1806   1.394   .     A
C1805  H1810   1.082   .     S
C1806  H1811   1.082   .     S
C1806  C1807   1.394   .     A
C1807  C1196   1.397   1_565 S
C1807  H1200   1.083   1_565 S
C1808  H1813   1.078   .     S
C1814  C1819   1.411   .     A
C1814  C1815   1.398   .     A
C1815  C1816   1.395   .     A
C1815  H1820   1.059   .     S
C1816  H1821   1.083   .     S
C1817  C1818   1.393   .     A
C1817  C1612   1.391   1_655 S
C1817  H1210   1.078   1_565 S
C1818  C1615   1.395   1_655 S
C1818  H1211   1.082   1_565 S
C1819  H1824   1.082   .     S
O1825  H1826   0.986   .     S
O1827  H1828   0.991   .     S
O1829  C840    1.371   1_556 S
O1829  H912    0.990   1_556 S
O1831  H1832   0.991   .     S
O1833  H1834   0.987   .     S
O1835  H1836   0.990   .     S
