data_str_m2_o1_o16_pcu_sym.51
_audit_creation_date              2020-01-03
_audit_creation_method            'Materials Studio'
_symmetry_space_group_name_H-M    'P1'
_symmetry_Int_Tables_number       1
_symmetry_cell_setting            triclinic
loop_
_symmetry_equiv_pos_as_xyz
  x,y,z
_cell_length_a                    28.7069
_cell_length_b                    32.4763
_cell_length_c                    26.6385
_cell_angle_alpha                 90.3022
_cell_angle_beta                  73.4364
_cell_angle_gamma                 90.1299
loop_
_atom_site_label
_atom_site_type_symbol
_atom_site_fract_x
_atom_site_fract_y
_atom_site_fract_z
_atom_site_U_iso_or_equiv
_atom_site_adp_type
_atom_site_occupancy
C1     C     0.16668   0.24596   0.25009   0.00000  Uiso   1.00
C2     C     0.12709   0.14834   0.40554   0.00000  Uiso   1.00
C3     C     0.19649   0.31271   0.27496   0.00000  Uiso   1.00
C4     C     0.14113   0.16133   0.34960   0.00000  Uiso   1.00
C5     C     0.19658   0.02214   0.27416   0.00000  Uiso   1.00
C6     C     0.16649   0.04314   0.25013   0.00000  Uiso   1.00
C7     C     0.13631   0.02174   0.22625   0.00000  Uiso   1.00
C8     C     0.13650   0.31228   0.22548   0.00000  Uiso   1.00
C9     C     0.16662   0.29081   0.25012   0.00000  Uiso   1.00
C10    C     0.30218   0.19721   0.27465   0.00000  Uiso   1.00
C11    C     0.01843   0.19743   0.27420   0.00000  Uiso   1.00
C12    C     0.14713   0.13711   0.48786   0.00000  Uiso   1.00
C13    C     0.03144   0.13661   0.22432   0.00000  Uiso   1.00
C14    C     0.31533   0.13670   0.22419   0.00000  Uiso   1.00
C15    C     0.16661   0.08754   0.24998   0.00000  Uiso   1.00
C16    C     0.19260   0.16662   0.14968   0.00000  Uiso   1.00
C17    C     0.26850   0.15073   0.00931   0.00000  Uiso   1.00
C18    C     0.20747   0.16194   0.09217   0.00000  Uiso   1.00
C19    C     0.07789   0.14315   0.43265   0.00000  Uiso   1.00
C20    C     0.06440   0.12891   0.48407   0.00000  Uiso   1.00
C21    C     0.09775   0.12729   0.01299   0.00000  Uiso   1.00
C22    C     0.31453   0.12543   0.36299   0.00000  Uiso   1.00
C23    C     0.16200   0.13917   0.43245   0.00000  Uiso   1.00
C24    C     0.18304   0.14328   0.01426   0.00000  Uiso   1.00
C25    C     0.23257   0.14000   0.48568   0.00000  Uiso   1.00
C26    C     0.24566   0.12706   0.43331   0.00000  Uiso   1.00
C27    C     0.21020   0.12798   0.40639   0.00000  Uiso   1.00
C28    C     0.17134   0.15572   0.06690   0.00000  Uiso   1.00
C29    C     0.25666   0.16110   0.06240   0.00000  Uiso   1.00
Cu30   Cu    0.11978   0.16666   0.25000   0.00000  Uiso   1.00
Cu31   Cu    0.21355   0.16667   0.25000   0.00000  Uiso   1.00
H32    H     0.21944   0.03891   0.29337   0.00000  Uiso   1.00
H33    H     0.02806   0.11792   0.00176   0.00000  Uiso   1.00
H34    H     0.21922   0.11664   0.36669   0.00000  Uiso   1.00
H35    H     0.31589   0.19479   0.06317   0.00000  Uiso   1.00
H36    H     0.31634   0.14554   0.08367   0.00000  Uiso   1.00
H37    H     0.07083   0.29944   0.21534   0.00000  Uiso   1.00
H38    H     0.11724   0.30054   0.15948   0.00000  Uiso   1.00
H39    H     0.01941   0.11463   0.35112   0.00000  Uiso   1.00
H40    H     0.29825   0.11401   0.33250   0.00000  Uiso   1.00
H41    H     0.31497   0.15960   0.36489   0.00000  Uiso   1.00
H42    H     0.11073   0.09329   0.07274   0.00000  Uiso   1.00
H43    H     0.11334   0.03819   0.20713   0.00000  Uiso   1.00
H44    H     0.06602   0.13000   0.09173   0.00000  Uiso   1.00
H45    H     0.21509   0.30167   0.34133   0.00000  Uiso   1.00
H46    H     0.26190   0.30059   0.28584   0.00000  Uiso   1.00
H47    H     0.27836   0.22127   0.29537   0.00000  Uiso   1.00
H48    H     0.03160   0.22180   0.29442   0.00000  Uiso   1.00
H49    H     0.05529   0.11243   0.20373   0.00000  Uiso   1.00
H50    H     0.30227   0.11260   0.20347   0.00000  Uiso   1.00
H51    H     0.30552   0.15324   0.48548   0.00000  Uiso   1.00
H52    H     0.13414   0.16174   0.08844   0.00000  Uiso   1.00
H53    H     0.05011   0.14750   0.41319   0.00000  Uiso   1.00
N54    N     0.04931   0.16666   0.24998   0.00000  Uiso   1.00
N55    N     0.28402   0.16669   0.25000   0.00000  Uiso   1.00
N56    N     0.29457   0.17152   0.08545   0.00000  Uiso   1.00
N57    N     0.10704   0.29085   0.19847   0.00000  Uiso   1.00
N58    N     0.08193   0.10793   0.06340   0.00000  Uiso   1.00
N59    N     0.22572   0.29177   0.30230   0.00000  Uiso   1.00
O60    O     0.12708   0.22678   0.25000   0.00000  Uiso   1.00
O61    O     0.20627   0.22679   0.25001   0.00000  Uiso   1.00
O62    O     0.10775   0.16665   0.32549   0.00000  Uiso   1.00
O63    O     0.18694   0.16666   0.32549   0.00000  Uiso   1.00
O64    O     0.12706   0.10654   0.24999   0.00000  Uiso   1.00
O65    O     0.20625   0.10655   0.25000   0.00000  Uiso   1.00
O66    O     0.14640   0.16667   0.17451   0.00000  Uiso   1.00
O67    O     0.22559   0.16668   0.17451   0.00000  Uiso   1.00
O68    O     0.29088   0.10887   0.41233   0.00000  Uiso   1.00
C69    C     0.50001   0.24596   0.25009   0.00000  Uiso   1.00
C70    C     0.46043   0.14834   0.40554   0.00000  Uiso   1.00
C71    C     0.52982   0.31271   0.27496   0.00000  Uiso   1.00
C72    C     0.47447   0.16133   0.34960   0.00000  Uiso   1.00
C73    C     0.52991   0.02214   0.27416   0.00000  Uiso   1.00
C74    C     0.49982   0.04314   0.25013   0.00000  Uiso   1.00
C75    C     0.46964   0.02174   0.22625   0.00000  Uiso   1.00
C76    C     0.46983   0.31228   0.22548   0.00000  Uiso   1.00
C77    C     0.49995   0.29081   0.25012   0.00000  Uiso   1.00
C78    C     0.63551   0.19721   0.27465   0.00000  Uiso   1.00
C79    C     0.35177   0.19743   0.27420   0.00000  Uiso   1.00
C80    C     0.48047   0.13711   0.48786   0.00000  Uiso   1.00
C81    C     0.36478   0.13661   0.22432   0.00000  Uiso   1.00
C82    C     0.64866   0.13670   0.22419   0.00000  Uiso   1.00
C83    C     0.49995   0.08754   0.24998   0.00000  Uiso   1.00
C84    C     0.52593   0.16662   0.14968   0.00000  Uiso   1.00
C85    C     0.60183   0.15073   0.00931   0.00000  Uiso   1.00
C86    C     0.54081   0.16194   0.09217   0.00000  Uiso   1.00
C87    C     0.41122   0.14315   0.43265   0.00000  Uiso   1.00
C88    C     0.39773   0.12891   0.48407   0.00000  Uiso   1.00
C89    C     0.43108   0.12729   0.01299   0.00000  Uiso   1.00
C90    C     0.64786   0.12543   0.36299   0.00000  Uiso   1.00
C91    C     0.49533   0.13917   0.43245   0.00000  Uiso   1.00
C92    C     0.51637   0.14328   0.01426   0.00000  Uiso   1.00
C93    C     0.56590   0.14000   0.48568   0.00000  Uiso   1.00
C94    C     0.57899   0.12706   0.43331   0.00000  Uiso   1.00
C95    C     0.54353   0.12798   0.40639   0.00000  Uiso   1.00
C96    C     0.50467   0.15572   0.06690   0.00000  Uiso   1.00
C97    C     0.59000   0.16110   0.06240   0.00000  Uiso   1.00
Cu98   Cu    0.45311   0.16666   0.25000   0.00000  Uiso   1.00
Cu99   Cu    0.54689   0.16667   0.25000   0.00000  Uiso   1.00
H100   H     0.55277   0.03891   0.29337   0.00000  Uiso   1.00
H101   H     0.36139   0.11792   0.00176   0.00000  Uiso   1.00
H102   H     0.55255   0.11664   0.36669   0.00000  Uiso   1.00
H103   H     0.64923   0.19479   0.06317   0.00000  Uiso   1.00
H104   H     0.64968   0.14554   0.08367   0.00000  Uiso   1.00
H105   H     0.40417   0.29944   0.21534   0.00000  Uiso   1.00
H106   H     0.45057   0.30054   0.15948   0.00000  Uiso   1.00
H107   H     0.35274   0.11463   0.35112   0.00000  Uiso   1.00
H108   H     0.63159   0.11401   0.33250   0.00000  Uiso   1.00
H109   H     0.64831   0.15960   0.36489   0.00000  Uiso   1.00
H110   H     0.44406   0.09329   0.07274   0.00000  Uiso   1.00
H111   H     0.44667   0.03819   0.20713   0.00000  Uiso   1.00
H112   H     0.39935   0.13000   0.09173   0.00000  Uiso   1.00
H113   H     0.54842   0.30167   0.34133   0.00000  Uiso   1.00
H114   H     0.59524   0.30059   0.28584   0.00000  Uiso   1.00
H115   H     0.61170   0.22127   0.29537   0.00000  Uiso   1.00
H116   H     0.36494   0.22180   0.29442   0.00000  Uiso   1.00
H117   H     0.38863   0.11243   0.20373   0.00000  Uiso   1.00
H118   H     0.63560   0.11260   0.20347   0.00000  Uiso   1.00
H119   H     0.63885   0.15324   0.48548   0.00000  Uiso   1.00
H120   H     0.46747   0.16174   0.08844   0.00000  Uiso   1.00
H121   H     0.38344   0.14750   0.41319   0.00000  Uiso   1.00
N122   N     0.38265   0.16666   0.24998   0.00000  Uiso   1.00
N123   N     0.61735   0.16669   0.25000   0.00000  Uiso   1.00
N124   N     0.62790   0.17152   0.08545   0.00000  Uiso   1.00
N125   N     0.44037   0.29085   0.19847   0.00000  Uiso   1.00
N126   N     0.41527   0.10793   0.06340   0.00000  Uiso   1.00
N127   N     0.55905   0.29177   0.30230   0.00000  Uiso   1.00
O128   O     0.46042   0.22678   0.25000   0.00000  Uiso   1.00
O129   O     0.53961   0.22679   0.25001   0.00000  Uiso   1.00
O130   O     0.44108   0.16665   0.32549   0.00000  Uiso   1.00
O131   O     0.52027   0.16666   0.32549   0.00000  Uiso   1.00
O132   O     0.46039   0.10654   0.24999   0.00000  Uiso   1.00
O133   O     0.53958   0.10655   0.25000   0.00000  Uiso   1.00
O134   O     0.47973   0.16667   0.17451   0.00000  Uiso   1.00
O135   O     0.55892   0.16668   0.17451   0.00000  Uiso   1.00
O136   O     0.62422   0.10887   0.41233   0.00000  Uiso   1.00
C137   C     0.83334   0.24596   0.25009   0.00000  Uiso   1.00
C138   C     0.79376   0.14834   0.40554   0.00000  Uiso   1.00
C139   C     0.86315   0.31271   0.27496   0.00000  Uiso   1.00
C140   C     0.80780   0.16133   0.34960   0.00000  Uiso   1.00
C141   C     0.86325   0.02214   0.27416   0.00000  Uiso   1.00
C142   C     0.83315   0.04314   0.25013   0.00000  Uiso   1.00
C143   C     0.80297   0.02174   0.22625   0.00000  Uiso   1.00
C144   C     0.80317   0.31228   0.22548   0.00000  Uiso   1.00
C145   C     0.83329   0.29081   0.25012   0.00000  Uiso   1.00
C146   C     0.96885   0.19721   0.27465   0.00000  Uiso   1.00
C147   C     0.68510   0.19743   0.27420   0.00000  Uiso   1.00
C148   C     0.81380   0.13711   0.48786   0.00000  Uiso   1.00
C149   C     0.69811   0.13661   0.22432   0.00000  Uiso   1.00
C150   C     0.98200   0.13670   0.22419   0.00000  Uiso   1.00
C151   C     0.83328   0.08754   0.24998   0.00000  Uiso   1.00
C152   C     0.85926   0.16662   0.14968   0.00000  Uiso   1.00
C153   C     0.93516   0.15073   0.00931   0.00000  Uiso   1.00
C154   C     0.87414   0.16194   0.09217   0.00000  Uiso   1.00
C155   C     0.74456   0.14315   0.43265   0.00000  Uiso   1.00
C156   C     0.73107   0.12891   0.48407   0.00000  Uiso   1.00
C157   C     0.76441   0.12729   0.01299   0.00000  Uiso   1.00
C158   C     0.98120   0.12543   0.36299   0.00000  Uiso   1.00
C159   C     0.82866   0.13917   0.43245   0.00000  Uiso   1.00
C160   C     0.84970   0.14328   0.01426   0.00000  Uiso   1.00
C161   C     0.89923   0.14000   0.48568   0.00000  Uiso   1.00
C162   C     0.91233   0.12706   0.43331   0.00000  Uiso   1.00
C163   C     0.87687   0.12798   0.40639   0.00000  Uiso   1.00
C164   C     0.83801   0.15572   0.06690   0.00000  Uiso   1.00
C165   C     0.92333   0.16110   0.06240   0.00000  Uiso   1.00
Cu166  Cu    0.78645   0.16666   0.25000   0.00000  Uiso   1.00
Cu167  Cu    0.88022   0.16667   0.25000   0.00000  Uiso   1.00
H168   H     0.88611   0.03891   0.29337   0.00000  Uiso   1.00
H169   H     0.69473   0.11792   0.00176   0.00000  Uiso   1.00
H170   H     0.88589   0.11664   0.36669   0.00000  Uiso   1.00
H171   H     0.98256   0.19479   0.06317   0.00000  Uiso   1.00
H172   H     0.98301   0.14554   0.08367   0.00000  Uiso   1.00
H173   H     0.73750   0.29944   0.21534   0.00000  Uiso   1.00
H174   H     0.78391   0.30054   0.15948   0.00000  Uiso   1.00
H175   H     0.68608   0.11463   0.35112   0.00000  Uiso   1.00
H176   H     0.96492   0.11401   0.33250   0.00000  Uiso   1.00
H177   H     0.98164   0.15960   0.36489   0.00000  Uiso   1.00
H178   H     0.77740   0.09329   0.07274   0.00000  Uiso   1.00
H179   H     0.78001   0.03819   0.20713   0.00000  Uiso   1.00
H180   H     0.73268   0.13000   0.09173   0.00000  Uiso   1.00
H181   H     0.88176   0.30167   0.34133   0.00000  Uiso   1.00
H182   H     0.92857   0.30059   0.28584   0.00000  Uiso   1.00
H183   H     0.94503   0.22127   0.29537   0.00000  Uiso   1.00
H184   H     0.69827   0.22180   0.29442   0.00000  Uiso   1.00
H185   H     0.72196   0.11243   0.20373   0.00000  Uiso   1.00
H186   H     0.96893   0.11260   0.20347   0.00000  Uiso   1.00
H187   H     0.97219   0.15324   0.48548   0.00000  Uiso   1.00
H188   H     0.80080   0.16174   0.08844   0.00000  Uiso   1.00
H189   H     0.71677   0.14750   0.41319   0.00000  Uiso   1.00
N190   N     0.71598   0.16666   0.24998   0.00000  Uiso   1.00
N191   N     0.95069   0.16669   0.25000   0.00000  Uiso   1.00
N192   N     0.96123   0.17152   0.08545   0.00000  Uiso   1.00
N193   N     0.77371   0.29085   0.19847   0.00000  Uiso   1.00
N194   N     0.74860   0.10793   0.06340   0.00000  Uiso   1.00
N195   N     0.89238   0.29177   0.30230   0.00000  Uiso   1.00
O196   O     0.79375   0.22678   0.25000   0.00000  Uiso   1.00
O197   O     0.87294   0.22679   0.25001   0.00000  Uiso   1.00
O198   O     0.77441   0.16665   0.32549   0.00000  Uiso   1.00
O199   O     0.85360   0.16666   0.32549   0.00000  Uiso   1.00
O200   O     0.79373   0.10654   0.24999   0.00000  Uiso   1.00
O201   O     0.87292   0.10655   0.25000   0.00000  Uiso   1.00
O202   O     0.81306   0.16667   0.17451   0.00000  Uiso   1.00
O203   O     0.89225   0.16668   0.17451   0.00000  Uiso   1.00
O204   O     0.95755   0.10887   0.41233   0.00000  Uiso   1.00
C205   C     0.16668   0.57929   0.25009   0.00000  Uiso   1.00
C206   C     0.12709   0.48167   0.40554   0.00000  Uiso   1.00
C207   C     0.19649   0.64605   0.27496   0.00000  Uiso   1.00
C208   C     0.14113   0.49466   0.34960   0.00000  Uiso   1.00
C209   C     0.19658   0.35547   0.27416   0.00000  Uiso   1.00
C210   C     0.16649   0.37647   0.25013   0.00000  Uiso   1.00
C211   C     0.13631   0.35507   0.22625   0.00000  Uiso   1.00
C212   C     0.13650   0.64562   0.22548   0.00000  Uiso   1.00
C213   C     0.16662   0.62414   0.25012   0.00000  Uiso   1.00
C214   C     0.30218   0.53054   0.27465   0.00000  Uiso   1.00
C215   C     0.01843   0.53076   0.27420   0.00000  Uiso   1.00
C216   C     0.14713   0.47044   0.48786   0.00000  Uiso   1.00
C217   C     0.03144   0.46994   0.22432   0.00000  Uiso   1.00
C218   C     0.31533   0.47003   0.22419   0.00000  Uiso   1.00
C219   C     0.16661   0.42087   0.24998   0.00000  Uiso   1.00
C220   C     0.19260   0.49995   0.14968   0.00000  Uiso   1.00
C221   C     0.26850   0.48407   0.00931   0.00000  Uiso   1.00
C222   C     0.20747   0.49527   0.09217   0.00000  Uiso   1.00
C223   C     0.07789   0.47648   0.43265   0.00000  Uiso   1.00
C224   C     0.06440   0.46224   0.48407   0.00000  Uiso   1.00
C225   C     0.09775   0.46062   0.01299   0.00000  Uiso   1.00
C226   C     0.31453   0.45876   0.36299   0.00000  Uiso   1.00
C227   C     0.16200   0.47251   0.43245   0.00000  Uiso   1.00
C228   C     0.18304   0.47662   0.01426   0.00000  Uiso   1.00
C229   C     0.23257   0.47333   0.48568   0.00000  Uiso   1.00
C230   C     0.24566   0.46040   0.43331   0.00000  Uiso   1.00
C231   C     0.21020   0.46131   0.40639   0.00000  Uiso   1.00
C232   C     0.17134   0.48906   0.06690   0.00000  Uiso   1.00
C233   C     0.25666   0.49443   0.06240   0.00000  Uiso   1.00
Cu234  Cu    0.11978   0.49999   0.25000   0.00000  Uiso   1.00
Cu235  Cu    0.21355   0.50001   0.25000   0.00000  Uiso   1.00
H236   H     0.21944   0.37225   0.29337   0.00000  Uiso   1.00
H237   H     0.02806   0.45125   0.00176   0.00000  Uiso   1.00
H238   H     0.21922   0.44997   0.36669   0.00000  Uiso   1.00
H239   H     0.31589   0.52812   0.06317   0.00000  Uiso   1.00
H240   H     0.31634   0.47887   0.08367   0.00000  Uiso   1.00
H241   H     0.07083   0.63277   0.21534   0.00000  Uiso   1.00
H242   H     0.11724   0.63388   0.15948   0.00000  Uiso   1.00
H243   H     0.01941   0.44796   0.35112   0.00000  Uiso   1.00
H244   H     0.29825   0.44735   0.33250   0.00000  Uiso   1.00
H245   H     0.31497   0.49294   0.36489   0.00000  Uiso   1.00
H246   H     0.11073   0.42663   0.07274   0.00000  Uiso   1.00
H247   H     0.11334   0.37153   0.20713   0.00000  Uiso   1.00
H248   H     0.06602   0.46333   0.09173   0.00000  Uiso   1.00
H249   H     0.21509   0.63501   0.34133   0.00000  Uiso   1.00
H250   H     0.26190   0.63392   0.28584   0.00000  Uiso   1.00
H251   H     0.27836   0.55460   0.29537   0.00000  Uiso   1.00
H252   H     0.03160   0.55513   0.29442   0.00000  Uiso   1.00
H253   H     0.05529   0.44577   0.20373   0.00000  Uiso   1.00
H254   H     0.30227   0.44594   0.20347   0.00000  Uiso   1.00
H255   H     0.30552   0.48658   0.48548   0.00000  Uiso   1.00
H256   H     0.13414   0.49508   0.08844   0.00000  Uiso   1.00
H257   H     0.05011   0.48083   0.41319   0.00000  Uiso   1.00
N258   N     0.04931   0.49999   0.24998   0.00000  Uiso   1.00
N259   N     0.28402   0.50002   0.25000   0.00000  Uiso   1.00
N260   N     0.29457   0.50485   0.08545   0.00000  Uiso   1.00
N261   N     0.10704   0.62419   0.19847   0.00000  Uiso   1.00
N262   N     0.08193   0.44127   0.06340   0.00000  Uiso   1.00
N263   N     0.22572   0.62510   0.30230   0.00000  Uiso   1.00
O264   O     0.12708   0.56011   0.25000   0.00000  Uiso   1.00
O265   O     0.20627   0.56012   0.25001   0.00000  Uiso   1.00
O266   O     0.10775   0.49998   0.32549   0.00000  Uiso   1.00
O267   O     0.18694   0.49999   0.32549   0.00000  Uiso   1.00
O268   O     0.12706   0.43988   0.24999   0.00000  Uiso   1.00
O269   O     0.20625   0.43989   0.25000   0.00000  Uiso   1.00
O270   O     0.14640   0.50001   0.17451   0.00000  Uiso   1.00
O271   O     0.22559   0.50002   0.17451   0.00000  Uiso   1.00
O272   O     0.29088   0.44220   0.41233   0.00000  Uiso   1.00
C273   C     0.50001   0.57929   0.25009   0.00000  Uiso   1.00
C274   C     0.46043   0.48167   0.40554   0.00000  Uiso   1.00
C275   C     0.52982   0.64605   0.27496   0.00000  Uiso   1.00
C276   C     0.47447   0.49466   0.34960   0.00000  Uiso   1.00
C277   C     0.52991   0.35547   0.27416   0.00000  Uiso   1.00
C278   C     0.49982   0.37647   0.25013   0.00000  Uiso   1.00
C279   C     0.46964   0.35507   0.22625   0.00000  Uiso   1.00
C280   C     0.46983   0.64562   0.22548   0.00000  Uiso   1.00
C281   C     0.49995   0.62414   0.25012   0.00000  Uiso   1.00
C282   C     0.63551   0.53054   0.27465   0.00000  Uiso   1.00
C283   C     0.35177   0.53076   0.27420   0.00000  Uiso   1.00
C284   C     0.48047   0.47044   0.48786   0.00000  Uiso   1.00
C285   C     0.36478   0.46994   0.22432   0.00000  Uiso   1.00
C286   C     0.64866   0.47003   0.22419   0.00000  Uiso   1.00
C287   C     0.49995   0.42087   0.24998   0.00000  Uiso   1.00
C288   C     0.52593   0.49995   0.14968   0.00000  Uiso   1.00
C289   C     0.60183   0.48407   0.00931   0.00000  Uiso   1.00
C290   C     0.54081   0.49527   0.09217   0.00000  Uiso   1.00
C291   C     0.41122   0.47648   0.43265   0.00000  Uiso   1.00
C292   C     0.39773   0.46224   0.48407   0.00000  Uiso   1.00
C293   C     0.43108   0.46062   0.01299   0.00000  Uiso   1.00
C294   C     0.64786   0.45876   0.36299   0.00000  Uiso   1.00
C295   C     0.49533   0.47251   0.43245   0.00000  Uiso   1.00
C296   C     0.51637   0.47662   0.01426   0.00000  Uiso   1.00
C297   C     0.56590   0.47333   0.48568   0.00000  Uiso   1.00
C298   C     0.57899   0.46040   0.43331   0.00000  Uiso   1.00
C299   C     0.54353   0.46131   0.40639   0.00000  Uiso   1.00
C300   C     0.50467   0.48906   0.06690   0.00000  Uiso   1.00
C301   C     0.59000   0.49443   0.06240   0.00000  Uiso   1.00
Cu302  Cu    0.45311   0.49999   0.25000   0.00000  Uiso   1.00
Cu303  Cu    0.54689   0.50001   0.25000   0.00000  Uiso   1.00
H304   H     0.55277   0.37225   0.29337   0.00000  Uiso   1.00
H305   H     0.36139   0.45125   0.00176   0.00000  Uiso   1.00
H306   H     0.55255   0.44997   0.36669   0.00000  Uiso   1.00
H307   H     0.64923   0.52812   0.06317   0.00000  Uiso   1.00
H308   H     0.64968   0.47887   0.08367   0.00000  Uiso   1.00
H309   H     0.40417   0.63277   0.21534   0.00000  Uiso   1.00
H310   H     0.45057   0.63388   0.15948   0.00000  Uiso   1.00
H311   H     0.35274   0.44796   0.35112   0.00000  Uiso   1.00
H312   H     0.63159   0.44735   0.33250   0.00000  Uiso   1.00
H313   H     0.64831   0.49294   0.36489   0.00000  Uiso   1.00
H314   H     0.44406   0.42663   0.07274   0.00000  Uiso   1.00
H315   H     0.44667   0.37153   0.20713   0.00000  Uiso   1.00
H316   H     0.39935   0.46333   0.09173   0.00000  Uiso   1.00
H317   H     0.54842   0.63501   0.34133   0.00000  Uiso   1.00
H318   H     0.59524   0.63392   0.28584   0.00000  Uiso   1.00
H319   H     0.61170   0.55460   0.29537   0.00000  Uiso   1.00
H320   H     0.36494   0.55513   0.29442   0.00000  Uiso   1.00
H321   H     0.38863   0.44577   0.20373   0.00000  Uiso   1.00
H322   H     0.63560   0.44594   0.20347   0.00000  Uiso   1.00
H323   H     0.63885   0.48658   0.48548   0.00000  Uiso   1.00
H324   H     0.46747   0.49508   0.08844   0.00000  Uiso   1.00
H325   H     0.38344   0.48083   0.41319   0.00000  Uiso   1.00
N326   N     0.38265   0.49999   0.24998   0.00000  Uiso   1.00
N327   N     0.61735   0.50002   0.25000   0.00000  Uiso   1.00
N328   N     0.62790   0.50485   0.08545   0.00000  Uiso   1.00
N329   N     0.44037   0.62419   0.19847   0.00000  Uiso   1.00
N330   N     0.41527   0.44127   0.06340   0.00000  Uiso   1.00
N331   N     0.55905   0.62510   0.30230   0.00000  Uiso   1.00
O332   O     0.46042   0.56011   0.25000   0.00000  Uiso   1.00
O333   O     0.53961   0.56012   0.25001   0.00000  Uiso   1.00
O334   O     0.44108   0.49998   0.32549   0.00000  Uiso   1.00
O335   O     0.52027   0.49999   0.32549   0.00000  Uiso   1.00
O336   O     0.46039   0.43988   0.24999   0.00000  Uiso   1.00
O337   O     0.53958   0.43989   0.25000   0.00000  Uiso   1.00
O338   O     0.47973   0.50001   0.17451   0.00000  Uiso   1.00
O339   O     0.55892   0.50002   0.17451   0.00000  Uiso   1.00
O340   O     0.62422   0.44220   0.41233   0.00000  Uiso   1.00
C341   C     0.83334   0.57929   0.25009   0.00000  Uiso   1.00
C342   C     0.79376   0.48167   0.40554   0.00000  Uiso   1.00
C343   C     0.86315   0.64605   0.27496   0.00000  Uiso   1.00
C344   C     0.80780   0.49466   0.34960   0.00000  Uiso   1.00
C345   C     0.86325   0.35547   0.27416   0.00000  Uiso   1.00
C346   C     0.83315   0.37647   0.25013   0.00000  Uiso   1.00
C347   C     0.80297   0.35507   0.22625   0.00000  Uiso   1.00
C348   C     0.80317   0.64562   0.22548   0.00000  Uiso   1.00
C349   C     0.83329   0.62414   0.25012   0.00000  Uiso   1.00
C350   C     0.96885   0.53054   0.27465   0.00000  Uiso   1.00
C351   C     0.68510   0.53076   0.27420   0.00000  Uiso   1.00
C352   C     0.81380   0.47044   0.48786   0.00000  Uiso   1.00
C353   C     0.69811   0.46994   0.22432   0.00000  Uiso   1.00
C354   C     0.98200   0.47003   0.22419   0.00000  Uiso   1.00
C355   C     0.83328   0.42087   0.24998   0.00000  Uiso   1.00
C356   C     0.85926   0.49995   0.14968   0.00000  Uiso   1.00
C357   C     0.93516   0.48407   0.00931   0.00000  Uiso   1.00
C358   C     0.87414   0.49527   0.09217   0.00000  Uiso   1.00
C359   C     0.74456   0.47648   0.43265   0.00000  Uiso   1.00
C360   C     0.73107   0.46224   0.48407   0.00000  Uiso   1.00
C361   C     0.76441   0.46062   0.01299   0.00000  Uiso   1.00
C362   C     0.98120   0.45876   0.36299   0.00000  Uiso   1.00
C363   C     0.82866   0.47251   0.43245   0.00000  Uiso   1.00
C364   C     0.84970   0.47662   0.01426   0.00000  Uiso   1.00
C365   C     0.89923   0.47333   0.48568   0.00000  Uiso   1.00
C366   C     0.91233   0.46040   0.43331   0.00000  Uiso   1.00
C367   C     0.87687   0.46131   0.40639   0.00000  Uiso   1.00
C368   C     0.83801   0.48906   0.06690   0.00000  Uiso   1.00
C369   C     0.92333   0.49443   0.06240   0.00000  Uiso   1.00
Cu370  Cu    0.78645   0.49999   0.25000   0.00000  Uiso   1.00
Cu371  Cu    0.88022   0.50001   0.25000   0.00000  Uiso   1.00
H372   H     0.88611   0.37225   0.29337   0.00000  Uiso   1.00
H373   H     0.69473   0.45125   0.00176   0.00000  Uiso   1.00
H374   H     0.88589   0.44997   0.36669   0.00000  Uiso   1.00
H375   H     0.98256   0.52812   0.06317   0.00000  Uiso   1.00
H376   H     0.98301   0.47887   0.08367   0.00000  Uiso   1.00
H377   H     0.73750   0.63277   0.21534   0.00000  Uiso   1.00
H378   H     0.78391   0.63388   0.15948   0.00000  Uiso   1.00
H379   H     0.68608   0.44796   0.35112   0.00000  Uiso   1.00
H380   H     0.96492   0.44735   0.33250   0.00000  Uiso   1.00
H381   H     0.98164   0.49294   0.36489   0.00000  Uiso   1.00
H382   H     0.77740   0.42663   0.07274   0.00000  Uiso   1.00
H383   H     0.78001   0.37153   0.20713   0.00000  Uiso   1.00
H384   H     0.73268   0.46333   0.09173   0.00000  Uiso   1.00
H385   H     0.88176   0.63501   0.34133   0.00000  Uiso   1.00
H386   H     0.92857   0.63392   0.28584   0.00000  Uiso   1.00
H387   H     0.94503   0.55460   0.29537   0.00000  Uiso   1.00
H388   H     0.69827   0.55513   0.29442   0.00000  Uiso   1.00
H389   H     0.72196   0.44577   0.20373   0.00000  Uiso   1.00
H390   H     0.96893   0.44594   0.20347   0.00000  Uiso   1.00
H391   H     0.97219   0.48658   0.48548   0.00000  Uiso   1.00
H392   H     0.80080   0.49508   0.08844   0.00000  Uiso   1.00
H393   H     0.71677   0.48083   0.41319   0.00000  Uiso   1.00
N394   N     0.71598   0.49999   0.24998   0.00000  Uiso   1.00
N395   N     0.95069   0.50002   0.25000   0.00000  Uiso   1.00
N396   N     0.96123   0.50485   0.08545   0.00000  Uiso   1.00
N397   N     0.77371   0.62419   0.19847   0.00000  Uiso   1.00
N398   N     0.74860   0.44127   0.06340   0.00000  Uiso   1.00
N399   N     0.89238   0.62510   0.30230   0.00000  Uiso   1.00
O400   O     0.79375   0.56011   0.25000   0.00000  Uiso   1.00
O401   O     0.87294   0.56012   0.25001   0.00000  Uiso   1.00
O402   O     0.77441   0.49998   0.32549   0.00000  Uiso   1.00
O403   O     0.85360   0.49999   0.32549   0.00000  Uiso   1.00
O404   O     0.79373   0.43988   0.24999   0.00000  Uiso   1.00
O405   O     0.87292   0.43989   0.25000   0.00000  Uiso   1.00
O406   O     0.81306   0.50001   0.17451   0.00000  Uiso   1.00
O407   O     0.89225   0.50002   0.17451   0.00000  Uiso   1.00
O408   O     0.95755   0.44220   0.41233   0.00000  Uiso   1.00
C409   C     0.16668   0.91262   0.25009   0.00000  Uiso   1.00
C410   C     0.12709   0.81501   0.40554   0.00000  Uiso   1.00
C411   C     0.19649   0.97938   0.27496   0.00000  Uiso   1.00
C412   C     0.14113   0.82799   0.34960   0.00000  Uiso   1.00
C413   C     0.19658   0.68881   0.27416   0.00000  Uiso   1.00
C414   C     0.16649   0.70981   0.25013   0.00000  Uiso   1.00
C415   C     0.13631   0.68840   0.22625   0.00000  Uiso   1.00
C416   C     0.13650   0.97895   0.22548   0.00000  Uiso   1.00
C417   C     0.16662   0.95748   0.25012   0.00000  Uiso   1.00
C418   C     0.30218   0.86387   0.27465   0.00000  Uiso   1.00
C419   C     0.01843   0.86410   0.27420   0.00000  Uiso   1.00
C420   C     0.14713   0.80377   0.48786   0.00000  Uiso   1.00
C421   C     0.03144   0.80327   0.22432   0.00000  Uiso   1.00
C422   C     0.31533   0.80336   0.22419   0.00000  Uiso   1.00
C423   C     0.16661   0.75421   0.24998   0.00000  Uiso   1.00
C424   C     0.19260   0.83328   0.14968   0.00000  Uiso   1.00
C425   C     0.26850   0.81740   0.00931   0.00000  Uiso   1.00
C426   C     0.20747   0.82861   0.09217   0.00000  Uiso   1.00
C427   C     0.07789   0.80981   0.43265   0.00000  Uiso   1.00
C428   C     0.06440   0.79557   0.48407   0.00000  Uiso   1.00
C429   C     0.09775   0.79396   0.01299   0.00000  Uiso   1.00
C430   C     0.31453   0.79209   0.36299   0.00000  Uiso   1.00
C431   C     0.16200   0.80584   0.43245   0.00000  Uiso   1.00
C432   C     0.18304   0.80995   0.01426   0.00000  Uiso   1.00
C433   C     0.23257   0.80667   0.48568   0.00000  Uiso   1.00
C434   C     0.24566   0.79373   0.43331   0.00000  Uiso   1.00
C435   C     0.21020   0.79465   0.40639   0.00000  Uiso   1.00
C436   C     0.17134   0.82239   0.06690   0.00000  Uiso   1.00
C437   C     0.25666   0.82776   0.06240   0.00000  Uiso   1.00
Cu438  Cu    0.11978   0.83333   0.25000   0.00000  Uiso   1.00
Cu439  Cu    0.21355   0.83334   0.25000   0.00000  Uiso   1.00
H440   H     0.21944   0.70558   0.29337   0.00000  Uiso   1.00
H441   H     0.02806   0.78459   0.00176   0.00000  Uiso   1.00
H442   H     0.21922   0.78330   0.36669   0.00000  Uiso   1.00
H443   H     0.31589   0.86145   0.06317   0.00000  Uiso   1.00
H444   H     0.31634   0.81221   0.08367   0.00000  Uiso   1.00
H445   H     0.07083   0.96611   0.21534   0.00000  Uiso   1.00
H446   H     0.11724   0.96721   0.15948   0.00000  Uiso   1.00
H447   H     0.01941   0.78129   0.35112   0.00000  Uiso   1.00
H448   H     0.29825   0.78068   0.33250   0.00000  Uiso   1.00
H449   H     0.31497   0.82627   0.36489   0.00000  Uiso   1.00
H450   H     0.11073   0.75996   0.07274   0.00000  Uiso   1.00
H451   H     0.11334   0.70486   0.20713   0.00000  Uiso   1.00
H452   H     0.06602   0.79667   0.09173   0.00000  Uiso   1.00
H453   H     0.21509   0.96834   0.34133   0.00000  Uiso   1.00
H454   H     0.26190   0.96726   0.28584   0.00000  Uiso   1.00
H455   H     0.27836   0.88793   0.29537   0.00000  Uiso   1.00
H456   H     0.03160   0.88846   0.29442   0.00000  Uiso   1.00
H457   H     0.05529   0.77910   0.20373   0.00000  Uiso   1.00
H458   H     0.30227   0.77927   0.20347   0.00000  Uiso   1.00
H459   H     0.30552   0.81991   0.48548   0.00000  Uiso   1.00
H460   H     0.13414   0.82841   0.08844   0.00000  Uiso   1.00
H461   H     0.05011   0.81417   0.41319   0.00000  Uiso   1.00
N462   N     0.04931   0.83332   0.24998   0.00000  Uiso   1.00
N463   N     0.28402   0.83335   0.25000   0.00000  Uiso   1.00
N464   N     0.29457   0.83819   0.08545   0.00000  Uiso   1.00
N465   N     0.10704   0.95752   0.19847   0.00000  Uiso   1.00
N466   N     0.08193   0.77460   0.06340   0.00000  Uiso   1.00
N467   N     0.22572   0.95844   0.30230   0.00000  Uiso   1.00
O468   O     0.12708   0.89345   0.25000   0.00000  Uiso   1.00
O469   O     0.20627   0.89346   0.25001   0.00000  Uiso   1.00
O470   O     0.10775   0.83332   0.32549   0.00000  Uiso   1.00
O471   O     0.18694   0.83333   0.32549   0.00000  Uiso   1.00
O472   O     0.12706   0.77321   0.24999   0.00000  Uiso   1.00
O473   O     0.20625   0.77322   0.25000   0.00000  Uiso   1.00
O474   O     0.14640   0.83334   0.17451   0.00000  Uiso   1.00
O475   O     0.22559   0.83335   0.17451   0.00000  Uiso   1.00
O476   O     0.29088   0.77554   0.41233   0.00000  Uiso   1.00
C477   C     0.50001   0.91262   0.25009   0.00000  Uiso   1.00
C478   C     0.46043   0.81501   0.40554   0.00000  Uiso   1.00
C479   C     0.52982   0.97938   0.27496   0.00000  Uiso   1.00
C480   C     0.47447   0.82799   0.34960   0.00000  Uiso   1.00
C481   C     0.52991   0.68881   0.27416   0.00000  Uiso   1.00
C482   C     0.49982   0.70981   0.25013   0.00000  Uiso   1.00
C483   C     0.46964   0.68840   0.22625   0.00000  Uiso   1.00
C484   C     0.46983   0.97895   0.22548   0.00000  Uiso   1.00
C485   C     0.49995   0.95748   0.25012   0.00000  Uiso   1.00
C486   C     0.63551   0.86387   0.27465   0.00000  Uiso   1.00
C487   C     0.35177   0.86410   0.27420   0.00000  Uiso   1.00
C488   C     0.48047   0.80377   0.48786   0.00000  Uiso   1.00
C489   C     0.36478   0.80327   0.22432   0.00000  Uiso   1.00
C490   C     0.64866   0.80336   0.22419   0.00000  Uiso   1.00
C491   C     0.49995   0.75421   0.24998   0.00000  Uiso   1.00
C492   C     0.52593   0.83328   0.14968   0.00000  Uiso   1.00
C493   C     0.60183   0.81740   0.00931   0.00000  Uiso   1.00
C494   C     0.54081   0.82861   0.09217   0.00000  Uiso   1.00
C495   C     0.41122   0.80981   0.43265   0.00000  Uiso   1.00
C496   C     0.39773   0.79557   0.48407   0.00000  Uiso   1.00
C497   C     0.43108   0.79396   0.01299   0.00000  Uiso   1.00
C498   C     0.64786   0.79209   0.36299   0.00000  Uiso   1.00
C499   C     0.49533   0.80584   0.43245   0.00000  Uiso   1.00
C500   C     0.51637   0.80995   0.01426   0.00000  Uiso   1.00
C501   C     0.56590   0.80667   0.48568   0.00000  Uiso   1.00
C502   C     0.57899   0.79373   0.43331   0.00000  Uiso   1.00
C503   C     0.54353   0.79465   0.40639   0.00000  Uiso   1.00
C504   C     0.50467   0.82239   0.06690   0.00000  Uiso   1.00
C505   C     0.59000   0.82776   0.06240   0.00000  Uiso   1.00
Cu506  Cu    0.45311   0.83333   0.25000   0.00000  Uiso   1.00
Cu507  Cu    0.54689   0.83334   0.25000   0.00000  Uiso   1.00
H508   H     0.55277   0.70558   0.29337   0.00000  Uiso   1.00
H509   H     0.36139   0.78459   0.00176   0.00000  Uiso   1.00
H510   H     0.55255   0.78330   0.36669   0.00000  Uiso   1.00
H511   H     0.64923   0.86145   0.06317   0.00000  Uiso   1.00
H512   H     0.64968   0.81221   0.08367   0.00000  Uiso   1.00
H513   H     0.40417   0.96611   0.21534   0.00000  Uiso   1.00
H514   H     0.45057   0.96721   0.15948   0.00000  Uiso   1.00
H515   H     0.35274   0.78129   0.35112   0.00000  Uiso   1.00
H516   H     0.63159   0.78068   0.33250   0.00000  Uiso   1.00
H517   H     0.64831   0.82627   0.36489   0.00000  Uiso   1.00
H518   H     0.44406   0.75996   0.07274   0.00000  Uiso   1.00
H519   H     0.44667   0.70486   0.20713   0.00000  Uiso   1.00
H520   H     0.39935   0.79667   0.09173   0.00000  Uiso   1.00
H521   H     0.54842   0.96834   0.34133   0.00000  Uiso   1.00
H522   H     0.59524   0.96726   0.28584   0.00000  Uiso   1.00
H523   H     0.61170   0.88793   0.29537   0.00000  Uiso   1.00
H524   H     0.36494   0.88846   0.29442   0.00000  Uiso   1.00
H525   H     0.38863   0.77910   0.20373   0.00000  Uiso   1.00
H526   H     0.63560   0.77927   0.20347   0.00000  Uiso   1.00
H527   H     0.63885   0.81991   0.48548   0.00000  Uiso   1.00
H528   H     0.46747   0.82841   0.08844   0.00000  Uiso   1.00
H529   H     0.38344   0.81417   0.41319   0.00000  Uiso   1.00
N530   N     0.38265   0.83332   0.24998   0.00000  Uiso   1.00
N531   N     0.61735   0.83335   0.25000   0.00000  Uiso   1.00
N532   N     0.62790   0.83819   0.08545   0.00000  Uiso   1.00
N533   N     0.44037   0.95752   0.19847   0.00000  Uiso   1.00
N534   N     0.41527   0.77460   0.06340   0.00000  Uiso   1.00
N535   N     0.55905   0.95844   0.30230   0.00000  Uiso   1.00
O536   O     0.46042   0.89345   0.25000   0.00000  Uiso   1.00
O537   O     0.53961   0.89346   0.25001   0.00000  Uiso   1.00
O538   O     0.44108   0.83332   0.32549   0.00000  Uiso   1.00
O539   O     0.52027   0.83333   0.32549   0.00000  Uiso   1.00
O540   O     0.46039   0.77321   0.24999   0.00000  Uiso   1.00
O541   O     0.53958   0.77322   0.25000   0.00000  Uiso   1.00
O542   O     0.47973   0.83334   0.17451   0.00000  Uiso   1.00
O543   O     0.55892   0.83335   0.17451   0.00000  Uiso   1.00
O544   O     0.62422   0.77554   0.41233   0.00000  Uiso   1.00
C545   C     0.83334   0.91262   0.25009   0.00000  Uiso   1.00
C546   C     0.79376   0.81501   0.40554   0.00000  Uiso   1.00
C547   C     0.86315   0.97938   0.27496   0.00000  Uiso   1.00
C548   C     0.80780   0.82799   0.34960   0.00000  Uiso   1.00
C549   C     0.86325   0.68881   0.27416   0.00000  Uiso   1.00
C550   C     0.83315   0.70981   0.25013   0.00000  Uiso   1.00
C551   C     0.80297   0.68840   0.22625   0.00000  Uiso   1.00
C552   C     0.80317   0.97895   0.22548   0.00000  Uiso   1.00
C553   C     0.83329   0.95748   0.25012   0.00000  Uiso   1.00
C554   C     0.96885   0.86387   0.27465   0.00000  Uiso   1.00
C555   C     0.68510   0.86410   0.27420   0.00000  Uiso   1.00
C556   C     0.81380   0.80377   0.48786   0.00000  Uiso   1.00
C557   C     0.69811   0.80327   0.22432   0.00000  Uiso   1.00
C558   C     0.98200   0.80336   0.22419   0.00000  Uiso   1.00
C559   C     0.83328   0.75421   0.24998   0.00000  Uiso   1.00
C560   C     0.85926   0.83328   0.14968   0.00000  Uiso   1.00
C561   C     0.93516   0.81740   0.00931   0.00000  Uiso   1.00
C562   C     0.87414   0.82861   0.09217   0.00000  Uiso   1.00
C563   C     0.74456   0.80981   0.43265   0.00000  Uiso   1.00
C564   C     0.73107   0.79557   0.48407   0.00000  Uiso   1.00
C565   C     0.76441   0.79396   0.01299   0.00000  Uiso   1.00
C566   C     0.98120   0.79209   0.36299   0.00000  Uiso   1.00
C567   C     0.82866   0.80584   0.43245   0.00000  Uiso   1.00
C568   C     0.84970   0.80995   0.01426   0.00000  Uiso   1.00
C569   C     0.89923   0.80667   0.48568   0.00000  Uiso   1.00
C570   C     0.91233   0.79373   0.43331   0.00000  Uiso   1.00
C571   C     0.87687   0.79465   0.40639   0.00000  Uiso   1.00
C572   C     0.83801   0.82239   0.06690   0.00000  Uiso   1.00
C573   C     0.92333   0.82776   0.06240   0.00000  Uiso   1.00
Cu574  Cu    0.78645   0.83333   0.25000   0.00000  Uiso   1.00
Cu575  Cu    0.88022   0.83334   0.25000   0.00000  Uiso   1.00
H576   H     0.88611   0.70558   0.29337   0.00000  Uiso   1.00
H577   H     0.69473   0.78459   0.00176   0.00000  Uiso   1.00
H578   H     0.88589   0.78330   0.36669   0.00000  Uiso   1.00
H579   H     0.98256   0.86145   0.06317   0.00000  Uiso   1.00
H580   H     0.98301   0.81221   0.08367   0.00000  Uiso   1.00
H581   H     0.73750   0.96611   0.21534   0.00000  Uiso   1.00
H582   H     0.78391   0.96721   0.15948   0.00000  Uiso   1.00
H583   H     0.68608   0.78129   0.35112   0.00000  Uiso   1.00
H584   H     0.96492   0.78068   0.33250   0.00000  Uiso   1.00
H585   H     0.98164   0.82627   0.36489   0.00000  Uiso   1.00
H586   H     0.77740   0.75996   0.07274   0.00000  Uiso   1.00
H587   H     0.78001   0.70486   0.20713   0.00000  Uiso   1.00
H588   H     0.73268   0.79667   0.09173   0.00000  Uiso   1.00
H589   H     0.88176   0.96834   0.34133   0.00000  Uiso   1.00
H590   H     0.92857   0.96726   0.28584   0.00000  Uiso   1.00
H591   H     0.94503   0.88793   0.29537   0.00000  Uiso   1.00
H592   H     0.69827   0.88846   0.29442   0.00000  Uiso   1.00
H593   H     0.72196   0.77910   0.20373   0.00000  Uiso   1.00
H594   H     0.96893   0.77927   0.20347   0.00000  Uiso   1.00
H595   H     0.97219   0.81991   0.48548   0.00000  Uiso   1.00
H596   H     0.80080   0.82841   0.08844   0.00000  Uiso   1.00
H597   H     0.71677   0.81417   0.41319   0.00000  Uiso   1.00
N598   N     0.71598   0.83332   0.24998   0.00000  Uiso   1.00
N599   N     0.95069   0.83335   0.25000   0.00000  Uiso   1.00
N600   N     0.96123   0.83819   0.08545   0.00000  Uiso   1.00
N601   N     0.77371   0.95752   0.19847   0.00000  Uiso   1.00
N602   N     0.74860   0.77460   0.06340   0.00000  Uiso   1.00
N603   N     0.89238   0.95844   0.30230   0.00000  Uiso   1.00
O604   O     0.79375   0.89345   0.25000   0.00000  Uiso   1.00
O605   O     0.87294   0.89346   0.25001   0.00000  Uiso   1.00
O606   O     0.77441   0.83332   0.32549   0.00000  Uiso   1.00
O607   O     0.85360   0.83333   0.32549   0.00000  Uiso   1.00
O608   O     0.79373   0.77321   0.24999   0.00000  Uiso   1.00
O609   O     0.87292   0.77322   0.25000   0.00000  Uiso   1.00
O610   O     0.81306   0.83334   0.17451   0.00000  Uiso   1.00
O611   O     0.89225   0.83335   0.17451   0.00000  Uiso   1.00
O612   O     0.95755   0.77554   0.41233   0.00000  Uiso   1.00
C613   C     0.16668   0.24596   0.75009   0.00000  Uiso   1.00
C614   C     0.12709   0.14834   0.90554   0.00000  Uiso   1.00
C615   C     0.19649   0.31271   0.77496   0.00000  Uiso   1.00
C616   C     0.14113   0.16133   0.84960   0.00000  Uiso   1.00
C617   C     0.19658   0.02214   0.77416   0.00000  Uiso   1.00
C618   C     0.16649   0.04314   0.75013   0.00000  Uiso   1.00
C619   C     0.13631   0.02174   0.72625   0.00000  Uiso   1.00
C620   C     0.13650   0.31228   0.72548   0.00000  Uiso   1.00
C621   C     0.16662   0.29081   0.75012   0.00000  Uiso   1.00
C622   C     0.30218   0.19721   0.77465   0.00000  Uiso   1.00
C623   C     0.01843   0.19743   0.77420   0.00000  Uiso   1.00
C624   C     0.14713   0.13711   0.98786   0.00000  Uiso   1.00
C625   C     0.03144   0.13661   0.72432   0.00000  Uiso   1.00
C626   C     0.31533   0.13670   0.72419   0.00000  Uiso   1.00
C627   C     0.16661   0.08754   0.74998   0.00000  Uiso   1.00
C628   C     0.19260   0.16662   0.64968   0.00000  Uiso   1.00
C629   C     0.26850   0.15073   0.50931   0.00000  Uiso   1.00
C630   C     0.20747   0.16194   0.59217   0.00000  Uiso   1.00
C631   C     0.07789   0.14315   0.93265   0.00000  Uiso   1.00
C632   C     0.06440   0.12891   0.98407   0.00000  Uiso   1.00
C633   C     0.09775   0.12729   0.51299   0.00000  Uiso   1.00
C634   C     0.31453   0.12543   0.86299   0.00000  Uiso   1.00
C635   C     0.16200   0.13917   0.93245   0.00000  Uiso   1.00
C636   C     0.18304   0.14328   0.51426   0.00000  Uiso   1.00
C637   C     0.23257   0.14000   0.98568   0.00000  Uiso   1.00
C638   C     0.24566   0.12706   0.93331   0.00000  Uiso   1.00
C639   C     0.21020   0.12798   0.90639   0.00000  Uiso   1.00
C640   C     0.17134   0.15572   0.56690   0.00000  Uiso   1.00
C641   C     0.25666   0.16110   0.56240   0.00000  Uiso   1.00
Cu642  Cu    0.11978   0.16666   0.75000   0.00000  Uiso   1.00
Cu643  Cu    0.21355   0.16667   0.75000   0.00000  Uiso   1.00
H644   H     0.21944   0.03891   0.79337   0.00000  Uiso   1.00
H645   H     0.02806   0.11792   0.50176   0.00000  Uiso   1.00
H646   H     0.21922   0.11664   0.86669   0.00000  Uiso   1.00
H647   H     0.31589   0.19479   0.56317   0.00000  Uiso   1.00
H648   H     0.31634   0.14554   0.58367   0.00000  Uiso   1.00
H649   H     0.07083   0.29944   0.71534   0.00000  Uiso   1.00
H650   H     0.11724   0.30054   0.65948   0.00000  Uiso   1.00
H651   H     0.01941   0.11463   0.85112   0.00000  Uiso   1.00
H652   H     0.29825   0.11401   0.83250   0.00000  Uiso   1.00
H653   H     0.31497   0.15960   0.86489   0.00000  Uiso   1.00
H654   H     0.11073   0.09329   0.57274   0.00000  Uiso   1.00
H655   H     0.11334   0.03819   0.70713   0.00000  Uiso   1.00
H656   H     0.06602   0.13000   0.59173   0.00000  Uiso   1.00
H657   H     0.21509   0.30167   0.84133   0.00000  Uiso   1.00
H658   H     0.26190   0.30059   0.78584   0.00000  Uiso   1.00
H659   H     0.27836   0.22127   0.79537   0.00000  Uiso   1.00
H660   H     0.03160   0.22180   0.79442   0.00000  Uiso   1.00
H661   H     0.05529   0.11243   0.70373   0.00000  Uiso   1.00
H662   H     0.30227   0.11260   0.70347   0.00000  Uiso   1.00
H663   H     0.30552   0.15324   0.98548   0.00000  Uiso   1.00
H664   H     0.13414   0.16174   0.58844   0.00000  Uiso   1.00
H665   H     0.05011   0.14750   0.91319   0.00000  Uiso   1.00
N666   N     0.04931   0.16666   0.74998   0.00000  Uiso   1.00
N667   N     0.28402   0.16669   0.75000   0.00000  Uiso   1.00
N668   N     0.29457   0.17152   0.58545   0.00000  Uiso   1.00
N669   N     0.10704   0.29085   0.69847   0.00000  Uiso   1.00
N670   N     0.08193   0.10793   0.56340   0.00000  Uiso   1.00
N671   N     0.22572   0.29177   0.80230   0.00000  Uiso   1.00
O672   O     0.12708   0.22678   0.75000   0.00000  Uiso   1.00
O673   O     0.20627   0.22679   0.75001   0.00000  Uiso   1.00
O674   O     0.10775   0.16665   0.82549   0.00000  Uiso   1.00
O675   O     0.18694   0.16666   0.82549   0.00000  Uiso   1.00
O676   O     0.12706   0.10654   0.74999   0.00000  Uiso   1.00
O677   O     0.20625   0.10655   0.75000   0.00000  Uiso   1.00
O678   O     0.14640   0.16667   0.67451   0.00000  Uiso   1.00
O679   O     0.22559   0.16668   0.67451   0.00000  Uiso   1.00
O680   O     0.29088   0.10887   0.91233   0.00000  Uiso   1.00
C681   C     0.50001   0.24596   0.75009   0.00000  Uiso   1.00
C682   C     0.46043   0.14834   0.90554   0.00000  Uiso   1.00
C683   C     0.52982   0.31271   0.77496   0.00000  Uiso   1.00
C684   C     0.47447   0.16133   0.84960   0.00000  Uiso   1.00
C685   C     0.52991   0.02214   0.77416   0.00000  Uiso   1.00
C686   C     0.49982   0.04314   0.75013   0.00000  Uiso   1.00
C687   C     0.46964   0.02174   0.72625   0.00000  Uiso   1.00
C688   C     0.46983   0.31228   0.72548   0.00000  Uiso   1.00
C689   C     0.49995   0.29081   0.75012   0.00000  Uiso   1.00
C690   C     0.63551   0.19721   0.77465   0.00000  Uiso   1.00
C691   C     0.35177   0.19743   0.77420   0.00000  Uiso   1.00
C692   C     0.48047   0.13711   0.98786   0.00000  Uiso   1.00
C693   C     0.36478   0.13661   0.72432   0.00000  Uiso   1.00
C694   C     0.64866   0.13670   0.72419   0.00000  Uiso   1.00
C695   C     0.49995   0.08754   0.74998   0.00000  Uiso   1.00
C696   C     0.52593   0.16662   0.64968   0.00000  Uiso   1.00
C697   C     0.60183   0.15073   0.50931   0.00000  Uiso   1.00
C698   C     0.54081   0.16194   0.59217   0.00000  Uiso   1.00
C699   C     0.41122   0.14315   0.93265   0.00000  Uiso   1.00
C700   C     0.39773   0.12891   0.98407   0.00000  Uiso   1.00
C701   C     0.43108   0.12729   0.51299   0.00000  Uiso   1.00
C702   C     0.64786   0.12543   0.86299   0.00000  Uiso   1.00
C703   C     0.49533   0.13917   0.93245   0.00000  Uiso   1.00
C704   C     0.51637   0.14328   0.51426   0.00000  Uiso   1.00
C705   C     0.56590   0.14000   0.98568   0.00000  Uiso   1.00
C706   C     0.57899   0.12706   0.93331   0.00000  Uiso   1.00
C707   C     0.54353   0.12798   0.90639   0.00000  Uiso   1.00
C708   C     0.50467   0.15572   0.56690   0.00000  Uiso   1.00
C709   C     0.59000   0.16110   0.56240   0.00000  Uiso   1.00
Cu710  Cu    0.45311   0.16666   0.75000   0.00000  Uiso   1.00
Cu711  Cu    0.54689   0.16667   0.75000   0.00000  Uiso   1.00
H712   H     0.55277   0.03891   0.79337   0.00000  Uiso   1.00
H713   H     0.36139   0.11792   0.50176   0.00000  Uiso   1.00
H714   H     0.55255   0.11664   0.86669   0.00000  Uiso   1.00
H715   H     0.64923   0.19479   0.56317   0.00000  Uiso   1.00
H716   H     0.64968   0.14554   0.58367   0.00000  Uiso   1.00
H717   H     0.40417   0.29944   0.71534   0.00000  Uiso   1.00
H718   H     0.45057   0.30054   0.65948   0.00000  Uiso   1.00
H719   H     0.35274   0.11463   0.85112   0.00000  Uiso   1.00
H720   H     0.63159   0.11401   0.83250   0.00000  Uiso   1.00
H721   H     0.64831   0.15960   0.86489   0.00000  Uiso   1.00
H722   H     0.44406   0.09329   0.57274   0.00000  Uiso   1.00
H723   H     0.44667   0.03819   0.70713   0.00000  Uiso   1.00
H724   H     0.39935   0.13000   0.59173   0.00000  Uiso   1.00
H725   H     0.54842   0.30167   0.84133   0.00000  Uiso   1.00
H726   H     0.59524   0.30059   0.78584   0.00000  Uiso   1.00
H727   H     0.61170   0.22127   0.79537   0.00000  Uiso   1.00
H728   H     0.36494   0.22180   0.79442   0.00000  Uiso   1.00
H729   H     0.38863   0.11243   0.70373   0.00000  Uiso   1.00
H730   H     0.63560   0.11260   0.70347   0.00000  Uiso   1.00
H731   H     0.63885   0.15324   0.98548   0.00000  Uiso   1.00
H732   H     0.46747   0.16174   0.58844   0.00000  Uiso   1.00
H733   H     0.38344   0.14750   0.91319   0.00000  Uiso   1.00
N734   N     0.38265   0.16666   0.74998   0.00000  Uiso   1.00
N735   N     0.61735   0.16669   0.75000   0.00000  Uiso   1.00
N736   N     0.62790   0.17152   0.58545   0.00000  Uiso   1.00
N737   N     0.44037   0.29085   0.69847   0.00000  Uiso   1.00
N738   N     0.41527   0.10793   0.56340   0.00000  Uiso   1.00
N739   N     0.55905   0.29177   0.80230   0.00000  Uiso   1.00
O740   O     0.46042   0.22678   0.75000   0.00000  Uiso   1.00
O741   O     0.53961   0.22679   0.75001   0.00000  Uiso   1.00
O742   O     0.44108   0.16665   0.82549   0.00000  Uiso   1.00
O743   O     0.52027   0.16666   0.82549   0.00000  Uiso   1.00
O744   O     0.46039   0.10654   0.74999   0.00000  Uiso   1.00
O745   O     0.53958   0.10655   0.75000   0.00000  Uiso   1.00
O746   O     0.47973   0.16667   0.67451   0.00000  Uiso   1.00
O747   O     0.55892   0.16668   0.67451   0.00000  Uiso   1.00
O748   O     0.62422   0.10887   0.91233   0.00000  Uiso   1.00
C749   C     0.83334   0.24596   0.75009   0.00000  Uiso   1.00
C750   C     0.79376   0.14834   0.90554   0.00000  Uiso   1.00
C751   C     0.86315   0.31271   0.77496   0.00000  Uiso   1.00
C752   C     0.80780   0.16133   0.84960   0.00000  Uiso   1.00
C753   C     0.86325   0.02214   0.77416   0.00000  Uiso   1.00
C754   C     0.83315   0.04314   0.75013   0.00000  Uiso   1.00
C755   C     0.80297   0.02174   0.72625   0.00000  Uiso   1.00
C756   C     0.80317   0.31228   0.72548   0.00000  Uiso   1.00
C757   C     0.83329   0.29081   0.75012   0.00000  Uiso   1.00
C758   C     0.96885   0.19721   0.77465   0.00000  Uiso   1.00
C759   C     0.68510   0.19743   0.77420   0.00000  Uiso   1.00
C760   C     0.81380   0.13711   0.98786   0.00000  Uiso   1.00
C761   C     0.69811   0.13661   0.72432   0.00000  Uiso   1.00
C762   C     0.98200   0.13670   0.72419   0.00000  Uiso   1.00
C763   C     0.83328   0.08754   0.74998   0.00000  Uiso   1.00
C764   C     0.85926   0.16662   0.64968   0.00000  Uiso   1.00
C765   C     0.93516   0.15073   0.50931   0.00000  Uiso   1.00
C766   C     0.87414   0.16194   0.59217   0.00000  Uiso   1.00
C767   C     0.74456   0.14315   0.93265   0.00000  Uiso   1.00
C768   C     0.73107   0.12891   0.98407   0.00000  Uiso   1.00
C769   C     0.76441   0.12729   0.51299   0.00000  Uiso   1.00
C770   C     0.98120   0.12543   0.86299   0.00000  Uiso   1.00
C771   C     0.82866   0.13917   0.93245   0.00000  Uiso   1.00
C772   C     0.84970   0.14328   0.51426   0.00000  Uiso   1.00
C773   C     0.89923   0.14000   0.98568   0.00000  Uiso   1.00
C774   C     0.91233   0.12706   0.93331   0.00000  Uiso   1.00
C775   C     0.87687   0.12798   0.90639   0.00000  Uiso   1.00
C776   C     0.83801   0.15572   0.56690   0.00000  Uiso   1.00
C777   C     0.92333   0.16110   0.56240   0.00000  Uiso   1.00
Cu778  Cu    0.78645   0.16666   0.75000   0.00000  Uiso   1.00
Cu779  Cu    0.88022   0.16667   0.75000   0.00000  Uiso   1.00
H780   H     0.88611   0.03891   0.79337   0.00000  Uiso   1.00
H781   H     0.69473   0.11792   0.50176   0.00000  Uiso   1.00
H782   H     0.88589   0.11664   0.86669   0.00000  Uiso   1.00
H783   H     0.98256   0.19479   0.56317   0.00000  Uiso   1.00
H784   H     0.98301   0.14554   0.58367   0.00000  Uiso   1.00
H785   H     0.73750   0.29944   0.71534   0.00000  Uiso   1.00
H786   H     0.78391   0.30054   0.65948   0.00000  Uiso   1.00
H787   H     0.68608   0.11463   0.85112   0.00000  Uiso   1.00
H788   H     0.96492   0.11401   0.83250   0.00000  Uiso   1.00
H789   H     0.98164   0.15960   0.86489   0.00000  Uiso   1.00
H790   H     0.77740   0.09329   0.57274   0.00000  Uiso   1.00
H791   H     0.78001   0.03819   0.70713   0.00000  Uiso   1.00
H792   H     0.73268   0.13000   0.59173   0.00000  Uiso   1.00
H793   H     0.88176   0.30167   0.84133   0.00000  Uiso   1.00
H794   H     0.92857   0.30059   0.78584   0.00000  Uiso   1.00
H795   H     0.94503   0.22127   0.79537   0.00000  Uiso   1.00
H796   H     0.69827   0.22180   0.79442   0.00000  Uiso   1.00
H797   H     0.72196   0.11243   0.70373   0.00000  Uiso   1.00
H798   H     0.96893   0.11260   0.70347   0.00000  Uiso   1.00
H799   H     0.97219   0.15324   0.98548   0.00000  Uiso   1.00
H800   H     0.80080   0.16174   0.58844   0.00000  Uiso   1.00
H801   H     0.71677   0.14750   0.91319   0.00000  Uiso   1.00
N802   N     0.71598   0.16666   0.74998   0.00000  Uiso   1.00
N803   N     0.95069   0.16669   0.75000   0.00000  Uiso   1.00
N804   N     0.96123   0.17152   0.58545   0.00000  Uiso   1.00
N805   N     0.77371   0.29085   0.69847   0.00000  Uiso   1.00
N806   N     0.74860   0.10793   0.56340   0.00000  Uiso   1.00
N807   N     0.89238   0.29177   0.80230   0.00000  Uiso   1.00
O808   O     0.79375   0.22678   0.75000   0.00000  Uiso   1.00
O809   O     0.87294   0.22679   0.75001   0.00000  Uiso   1.00
O810   O     0.77441   0.16665   0.82549   0.00000  Uiso   1.00
O811   O     0.85360   0.16666   0.82549   0.00000  Uiso   1.00
O812   O     0.79373   0.10654   0.74999   0.00000  Uiso   1.00
O813   O     0.87292   0.10655   0.75000   0.00000  Uiso   1.00
O814   O     0.81306   0.16667   0.67451   0.00000  Uiso   1.00
O815   O     0.89225   0.16668   0.67451   0.00000  Uiso   1.00
O816   O     0.95755   0.10887   0.91233   0.00000  Uiso   1.00
C817   C     0.16668   0.57929   0.75009   0.00000  Uiso   1.00
C818   C     0.12709   0.48167   0.90554   0.00000  Uiso   1.00
C819   C     0.19649   0.64605   0.77496   0.00000  Uiso   1.00
C820   C     0.14113   0.49466   0.84960   0.00000  Uiso   1.00
C821   C     0.19658   0.35547   0.77416   0.00000  Uiso   1.00
C822   C     0.16649   0.37647   0.75013   0.00000  Uiso   1.00
C823   C     0.13631   0.35507   0.72625   0.00000  Uiso   1.00
C824   C     0.13650   0.64562   0.72548   0.00000  Uiso   1.00
C825   C     0.16662   0.62414   0.75012   0.00000  Uiso   1.00
C826   C     0.30218   0.53054   0.77465   0.00000  Uiso   1.00
C827   C     0.01843   0.53076   0.77420   0.00000  Uiso   1.00
C828   C     0.14713   0.47044   0.98786   0.00000  Uiso   1.00
C829   C     0.03144   0.46994   0.72432   0.00000  Uiso   1.00
C830   C     0.31533   0.47003   0.72419   0.00000  Uiso   1.00
C831   C     0.16661   0.42087   0.74998   0.00000  Uiso   1.00
C832   C     0.19260   0.49995   0.64968   0.00000  Uiso   1.00
C833   C     0.26850   0.48407   0.50931   0.00000  Uiso   1.00
C834   C     0.20747   0.49527   0.59217   0.00000  Uiso   1.00
C835   C     0.07789   0.47648   0.93265   0.00000  Uiso   1.00
C836   C     0.06440   0.46224   0.98407   0.00000  Uiso   1.00
C837   C     0.09775   0.46062   0.51299   0.00000  Uiso   1.00
C838   C     0.31453   0.45876   0.86299   0.00000  Uiso   1.00
C839   C     0.16200   0.47251   0.93245   0.00000  Uiso   1.00
C840   C     0.18304   0.47662   0.51426   0.00000  Uiso   1.00
C841   C     0.23257   0.47333   0.98568   0.00000  Uiso   1.00
C842   C     0.24566   0.46040   0.93331   0.00000  Uiso   1.00
C843   C     0.21020   0.46131   0.90639   0.00000  Uiso   1.00
C844   C     0.17134   0.48906   0.56690   0.00000  Uiso   1.00
C845   C     0.25666   0.49443   0.56240   0.00000  Uiso   1.00
Cu846  Cu    0.11978   0.49999   0.75000   0.00000  Uiso   1.00
Cu847  Cu    0.21355   0.50001   0.75000   0.00000  Uiso   1.00
H848   H     0.21944   0.37225   0.79337   0.00000  Uiso   1.00
H849   H     0.02806   0.45125   0.50176   0.00000  Uiso   1.00
H850   H     0.21922   0.44997   0.86669   0.00000  Uiso   1.00
H851   H     0.31589   0.52812   0.56317   0.00000  Uiso   1.00
H852   H     0.31634   0.47887   0.58367   0.00000  Uiso   1.00
H853   H     0.07083   0.63277   0.71534   0.00000  Uiso   1.00
H854   H     0.11724   0.63388   0.65948   0.00000  Uiso   1.00
H855   H     0.01941   0.44796   0.85112   0.00000  Uiso   1.00
H856   H     0.29825   0.44735   0.83250   0.00000  Uiso   1.00
H857   H     0.31497   0.49294   0.86489   0.00000  Uiso   1.00
H858   H     0.11073   0.42663   0.57274   0.00000  Uiso   1.00
H859   H     0.11334   0.37153   0.70713   0.00000  Uiso   1.00
H860   H     0.06602   0.46333   0.59173   0.00000  Uiso   1.00
H861   H     0.21509   0.63501   0.84133   0.00000  Uiso   1.00
H862   H     0.26190   0.63392   0.78584   0.00000  Uiso   1.00
H863   H     0.27836   0.55460   0.79537   0.00000  Uiso   1.00
H864   H     0.03160   0.55513   0.79442   0.00000  Uiso   1.00
H865   H     0.05529   0.44577   0.70373   0.00000  Uiso   1.00
H866   H     0.30227   0.44594   0.70347   0.00000  Uiso   1.00
H867   H     0.30552   0.48658   0.98548   0.00000  Uiso   1.00
H868   H     0.13414   0.49508   0.58844   0.00000  Uiso   1.00
H869   H     0.05011   0.48083   0.91319   0.00000  Uiso   1.00
N870   N     0.04931   0.49999   0.74998   0.00000  Uiso   1.00
N871   N     0.28402   0.50002   0.75000   0.00000  Uiso   1.00
N872   N     0.29457   0.50485   0.58545   0.00000  Uiso   1.00
N873   N     0.10704   0.62419   0.69847   0.00000  Uiso   1.00
N874   N     0.08193   0.44127   0.56340   0.00000  Uiso   1.00
N875   N     0.22572   0.62510   0.80230   0.00000  Uiso   1.00
O876   O     0.12708   0.56011   0.75000   0.00000  Uiso   1.00
O877   O     0.20627   0.56012   0.75001   0.00000  Uiso   1.00
O878   O     0.10775   0.49998   0.82549   0.00000  Uiso   1.00
O879   O     0.18694   0.49999   0.82549   0.00000  Uiso   1.00
O880   O     0.12706   0.43988   0.74999   0.00000  Uiso   1.00
O881   O     0.20625   0.43989   0.75000   0.00000  Uiso   1.00
O882   O     0.14640   0.50001   0.67451   0.00000  Uiso   1.00
O883   O     0.22559   0.50002   0.67451   0.00000  Uiso   1.00
O884   O     0.29088   0.44220   0.91233   0.00000  Uiso   1.00
C885   C     0.50001   0.57929   0.75009   0.00000  Uiso   1.00
C886   C     0.46043   0.48167   0.90554   0.00000  Uiso   1.00
C887   C     0.52982   0.64605   0.77496   0.00000  Uiso   1.00
C888   C     0.47447   0.49466   0.84960   0.00000  Uiso   1.00
C889   C     0.52991   0.35547   0.77416   0.00000  Uiso   1.00
C890   C     0.49982   0.37647   0.75013   0.00000  Uiso   1.00
C891   C     0.46964   0.35507   0.72625   0.00000  Uiso   1.00
C892   C     0.46983   0.64562   0.72548   0.00000  Uiso   1.00
C893   C     0.49995   0.62414   0.75012   0.00000  Uiso   1.00
C894   C     0.63551   0.53054   0.77465   0.00000  Uiso   1.00
C895   C     0.35177   0.53076   0.77420   0.00000  Uiso   1.00
C896   C     0.48047   0.47044   0.98786   0.00000  Uiso   1.00
C897   C     0.36478   0.46994   0.72432   0.00000  Uiso   1.00
C898   C     0.64866   0.47003   0.72419   0.00000  Uiso   1.00
C899   C     0.49995   0.42087   0.74998   0.00000  Uiso   1.00
C900   C     0.52593   0.49995   0.64968   0.00000  Uiso   1.00
C901   C     0.60183   0.48407   0.50931   0.00000  Uiso   1.00
C902   C     0.54081   0.49527   0.59217   0.00000  Uiso   1.00
C903   C     0.41122   0.47648   0.93265   0.00000  Uiso   1.00
C904   C     0.39773   0.46224   0.98407   0.00000  Uiso   1.00
C905   C     0.43108   0.46062   0.51299   0.00000  Uiso   1.00
C906   C     0.64786   0.45876   0.86299   0.00000  Uiso   1.00
C907   C     0.49533   0.47251   0.93245   0.00000  Uiso   1.00
C908   C     0.51637   0.47662   0.51426   0.00000  Uiso   1.00
C909   C     0.56590   0.47333   0.98568   0.00000  Uiso   1.00
C910   C     0.57899   0.46040   0.93331   0.00000  Uiso   1.00
C911   C     0.54353   0.46131   0.90639   0.00000  Uiso   1.00
C912   C     0.50467   0.48906   0.56690   0.00000  Uiso   1.00
C913   C     0.59000   0.49443   0.56240   0.00000  Uiso   1.00
Cu914  Cu    0.45311   0.49999   0.75000   0.00000  Uiso   1.00
Cu915  Cu    0.54689   0.50001   0.75000   0.00000  Uiso   1.00
H916   H     0.55277   0.37225   0.79337   0.00000  Uiso   1.00
H917   H     0.36139   0.45125   0.50176   0.00000  Uiso   1.00
H918   H     0.55255   0.44997   0.86669   0.00000  Uiso   1.00
H919   H     0.64923   0.52812   0.56317   0.00000  Uiso   1.00
H920   H     0.64968   0.47887   0.58367   0.00000  Uiso   1.00
H921   H     0.40417   0.63277   0.71534   0.00000  Uiso   1.00
H922   H     0.45057   0.63388   0.65948   0.00000  Uiso   1.00
H923   H     0.35274   0.44796   0.85112   0.00000  Uiso   1.00
H924   H     0.63159   0.44735   0.83250   0.00000  Uiso   1.00
H925   H     0.64831   0.49294   0.86489   0.00000  Uiso   1.00
H926   H     0.44406   0.42663   0.57274   0.00000  Uiso   1.00
H927   H     0.44667   0.37153   0.70713   0.00000  Uiso   1.00
H928   H     0.39935   0.46333   0.59173   0.00000  Uiso   1.00
H929   H     0.54842   0.63501   0.84133   0.00000  Uiso   1.00
H930   H     0.59524   0.63392   0.78584   0.00000  Uiso   1.00
H931   H     0.61170   0.55460   0.79537   0.00000  Uiso   1.00
H932   H     0.36494   0.55513   0.79442   0.00000  Uiso   1.00
H933   H     0.38863   0.44577   0.70373   0.00000  Uiso   1.00
H934   H     0.63560   0.44594   0.70347   0.00000  Uiso   1.00
H935   H     0.63885   0.48658   0.98548   0.00000  Uiso   1.00
H936   H     0.46747   0.49508   0.58844   0.00000  Uiso   1.00
H937   H     0.38344   0.48083   0.91319   0.00000  Uiso   1.00
N938   N     0.38265   0.49999   0.74998   0.00000  Uiso   1.00
N939   N     0.61735   0.50002   0.75000   0.00000  Uiso   1.00
N940   N     0.62790   0.50485   0.58545   0.00000  Uiso   1.00
N941   N     0.44037   0.62419   0.69847   0.00000  Uiso   1.00
N942   N     0.41527   0.44127   0.56340   0.00000  Uiso   1.00
N943   N     0.55905   0.62510   0.80230   0.00000  Uiso   1.00
O944   O     0.46042   0.56011   0.75000   0.00000  Uiso   1.00
O945   O     0.53961   0.56012   0.75001   0.00000  Uiso   1.00
O946   O     0.44108   0.49998   0.82549   0.00000  Uiso   1.00
O947   O     0.52027   0.49999   0.82549   0.00000  Uiso   1.00
O948   O     0.46039   0.43988   0.74999   0.00000  Uiso   1.00
O949   O     0.53958   0.43989   0.75000   0.00000  Uiso   1.00
O950   O     0.47973   0.50001   0.67451   0.00000  Uiso   1.00
O951   O     0.55892   0.50002   0.67451   0.00000  Uiso   1.00
O952   O     0.62422   0.44220   0.91233   0.00000  Uiso   1.00
C953   C     0.83334   0.57929   0.75009   0.00000  Uiso   1.00
C954   C     0.79376   0.48167   0.90554   0.00000  Uiso   1.00
C955   C     0.86315   0.64605   0.77496   0.00000  Uiso   1.00
C956   C     0.80780   0.49466   0.84960   0.00000  Uiso   1.00
C957   C     0.86325   0.35547   0.77416   0.00000  Uiso   1.00
C958   C     0.83315   0.37647   0.75013   0.00000  Uiso   1.00
C959   C     0.80297   0.35507   0.72625   0.00000  Uiso   1.00
C960   C     0.80317   0.64562   0.72548   0.00000  Uiso   1.00
C961   C     0.83329   0.62414   0.75012   0.00000  Uiso   1.00
C962   C     0.96885   0.53054   0.77465   0.00000  Uiso   1.00
C963   C     0.68510   0.53076   0.77420   0.00000  Uiso   1.00
C964   C     0.81380   0.47044   0.98786   0.00000  Uiso   1.00
C965   C     0.69811   0.46994   0.72432   0.00000  Uiso   1.00
C966   C     0.98200   0.47003   0.72419   0.00000  Uiso   1.00
C967   C     0.83328   0.42087   0.74998   0.00000  Uiso   1.00
C968   C     0.85926   0.49995   0.64968   0.00000  Uiso   1.00
C969   C     0.93516   0.48407   0.50931   0.00000  Uiso   1.00
C970   C     0.87414   0.49527   0.59217   0.00000  Uiso   1.00
C971   C     0.74456   0.47648   0.93265   0.00000  Uiso   1.00
C972   C     0.73107   0.46224   0.98407   0.00000  Uiso   1.00
C973   C     0.76441   0.46062   0.51299   0.00000  Uiso   1.00
C974   C     0.98120   0.45876   0.86299   0.00000  Uiso   1.00
C975   C     0.82866   0.47251   0.93245   0.00000  Uiso   1.00
C976   C     0.84970   0.47662   0.51426   0.00000  Uiso   1.00
C977   C     0.89923   0.47333   0.98568   0.00000  Uiso   1.00
C978   C     0.91233   0.46040   0.93331   0.00000  Uiso   1.00
C979   C     0.87687   0.46131   0.90639   0.00000  Uiso   1.00
C980   C     0.83801   0.48906   0.56690   0.00000  Uiso   1.00
C981   C     0.92333   0.49443   0.56240   0.00000  Uiso   1.00
Cu982  Cu    0.78645   0.49999   0.75000   0.00000  Uiso   1.00
Cu983  Cu    0.88022   0.50001   0.75000   0.00000  Uiso   1.00
H984   H     0.88611   0.37225   0.79337   0.00000  Uiso   1.00
H985   H     0.69473   0.45125   0.50176   0.00000  Uiso   1.00
H986   H     0.88589   0.44997   0.86669   0.00000  Uiso   1.00
H987   H     0.98256   0.52812   0.56317   0.00000  Uiso   1.00
H988   H     0.98301   0.47887   0.58367   0.00000  Uiso   1.00
H989   H     0.73750   0.63277   0.71534   0.00000  Uiso   1.00
H990   H     0.78391   0.63388   0.65948   0.00000  Uiso   1.00
H991   H     0.68608   0.44796   0.85112   0.00000  Uiso   1.00
H992   H     0.96492   0.44735   0.83250   0.00000  Uiso   1.00
H993   H     0.98164   0.49294   0.86489   0.00000  Uiso   1.00
H994   H     0.77740   0.42663   0.57274   0.00000  Uiso   1.00
H995   H     0.78001   0.37153   0.70713   0.00000  Uiso   1.00
H996   H     0.73268   0.46333   0.59173   0.00000  Uiso   1.00
H997   H     0.88176   0.63501   0.84133   0.00000  Uiso   1.00
H998   H     0.92857   0.63392   0.78584   0.00000  Uiso   1.00
H999   H     0.94503   0.55460   0.79537   0.00000  Uiso   1.00
H1000  H     0.69827   0.55513   0.79442   0.00000  Uiso   1.00
H1001  H     0.72196   0.44577   0.70373   0.00000  Uiso   1.00
H1002  H     0.96893   0.44594   0.70347   0.00000  Uiso   1.00
H1003  H     0.97219   0.48658   0.98548   0.00000  Uiso   1.00
H1004  H     0.80080   0.49508   0.58844   0.00000  Uiso   1.00
H1005  H     0.71677   0.48083   0.91319   0.00000  Uiso   1.00
N1006  N     0.71598   0.49999   0.74998   0.00000  Uiso   1.00
N1007  N     0.95069   0.50002   0.75000   0.00000  Uiso   1.00
N1008  N     0.96123   0.50485   0.58545   0.00000  Uiso   1.00
N1009  N     0.77371   0.62419   0.69847   0.00000  Uiso   1.00
N1010  N     0.74860   0.44127   0.56340   0.00000  Uiso   1.00
N1011  N     0.89238   0.62510   0.80230   0.00000  Uiso   1.00
O1012  O     0.79375   0.56011   0.75000   0.00000  Uiso   1.00
O1013  O     0.87294   0.56012   0.75001   0.00000  Uiso   1.00
O1014  O     0.77441   0.49998   0.82549   0.00000  Uiso   1.00
O1015  O     0.85360   0.49999   0.82549   0.00000  Uiso   1.00
O1016  O     0.79373   0.43988   0.74999   0.00000  Uiso   1.00
O1017  O     0.87292   0.43989   0.75000   0.00000  Uiso   1.00
O1018  O     0.81306   0.50001   0.67451   0.00000  Uiso   1.00
O1019  O     0.89225   0.50002   0.67451   0.00000  Uiso   1.00
O1020  O     0.95755   0.44220   0.91233   0.00000  Uiso   1.00
C1021  C     0.16668   0.91262   0.75009   0.00000  Uiso   1.00
C1022  C     0.12709   0.81501   0.90554   0.00000  Uiso   1.00
C1023  C     0.19649   0.97938   0.77496   0.00000  Uiso   1.00
C1024  C     0.14113   0.82799   0.84960   0.00000  Uiso   1.00
C1025  C     0.19658   0.68881   0.77416   0.00000  Uiso   1.00
C1026  C     0.16649   0.70981   0.75013   0.00000  Uiso   1.00
C1027  C     0.13631   0.68840   0.72625   0.00000  Uiso   1.00
C1028  C     0.13650   0.97895   0.72548   0.00000  Uiso   1.00
C1029  C     0.16662   0.95748   0.75012   0.00000  Uiso   1.00
C1030  C     0.30218   0.86387   0.77465   0.00000  Uiso   1.00
C1031  C     0.01843   0.86410   0.77420   0.00000  Uiso   1.00
C1032  C     0.14713   0.80377   0.98786   0.00000  Uiso   1.00
C1033  C     0.03144   0.80327   0.72432   0.00000  Uiso   1.00
C1034  C     0.31533   0.80336   0.72419   0.00000  Uiso   1.00
C1035  C     0.16661   0.75421   0.74998   0.00000  Uiso   1.00
C1036  C     0.19260   0.83328   0.64968   0.00000  Uiso   1.00
C1037  C     0.26850   0.81740   0.50931   0.00000  Uiso   1.00
C1038  C     0.20747   0.82861   0.59217   0.00000  Uiso   1.00
C1039  C     0.07789   0.80981   0.93265   0.00000  Uiso   1.00
C1040  C     0.06440   0.79557   0.98407   0.00000  Uiso   1.00
C1041  C     0.09775   0.79396   0.51299   0.00000  Uiso   1.00
C1042  C     0.31453   0.79209   0.86299   0.00000  Uiso   1.00
C1043  C     0.16200   0.80584   0.93245   0.00000  Uiso   1.00
C1044  C     0.18304   0.80995   0.51426   0.00000  Uiso   1.00
C1045  C     0.23257   0.80667   0.98568   0.00000  Uiso   1.00
C1046  C     0.24566   0.79373   0.93331   0.00000  Uiso   1.00
C1047  C     0.21020   0.79465   0.90639   0.00000  Uiso   1.00
C1048  C     0.17134   0.82239   0.56690   0.00000  Uiso   1.00
C1049  C     0.25666   0.82776   0.56240   0.00000  Uiso   1.00
Cu1050 Cu    0.11978   0.83333   0.75000   0.00000  Uiso   1.00
Cu1051 Cu    0.21355   0.83334   0.75000   0.00000  Uiso   1.00
H1052  H     0.21944   0.70558   0.79337   0.00000  Uiso   1.00
H1053  H     0.02806   0.78459   0.50176   0.00000  Uiso   1.00
H1054  H     0.21922   0.78330   0.86669   0.00000  Uiso   1.00
H1055  H     0.31589   0.86145   0.56317   0.00000  Uiso   1.00
H1056  H     0.31634   0.81221   0.58367   0.00000  Uiso   1.00
H1057  H     0.07083   0.96611   0.71534   0.00000  Uiso   1.00
H1058  H     0.11724   0.96721   0.65948   0.00000  Uiso   1.00
H1059  H     0.01941   0.78129   0.85112   0.00000  Uiso   1.00
H1060  H     0.29825   0.78068   0.83250   0.00000  Uiso   1.00
H1061  H     0.31497   0.82627   0.86489   0.00000  Uiso   1.00
H1062  H     0.11073   0.75996   0.57274   0.00000  Uiso   1.00
H1063  H     0.11334   0.70486   0.70713   0.00000  Uiso   1.00
H1064  H     0.06602   0.79667   0.59173   0.00000  Uiso   1.00
H1065  H     0.21509   0.96834   0.84133   0.00000  Uiso   1.00
H1066  H     0.26190   0.96726   0.78584   0.00000  Uiso   1.00
H1067  H     0.27836   0.88793   0.79537   0.00000  Uiso   1.00
H1068  H     0.03160   0.88846   0.79442   0.00000  Uiso   1.00
H1069  H     0.05529   0.77910   0.70373   0.00000  Uiso   1.00
H1070  H     0.30227   0.77927   0.70347   0.00000  Uiso   1.00
H1071  H     0.30552   0.81991   0.98548   0.00000  Uiso   1.00
H1072  H     0.13414   0.82841   0.58844   0.00000  Uiso   1.00
H1073  H     0.05011   0.81417   0.91319   0.00000  Uiso   1.00
N1074  N     0.04931   0.83332   0.74998   0.00000  Uiso   1.00
N1075  N     0.28402   0.83335   0.75000   0.00000  Uiso   1.00
N1076  N     0.29457   0.83819   0.58545   0.00000  Uiso   1.00
N1077  N     0.10704   0.95752   0.69847   0.00000  Uiso   1.00
N1078  N     0.08193   0.77460   0.56340   0.00000  Uiso   1.00
N1079  N     0.22572   0.95844   0.80230   0.00000  Uiso   1.00
O1080  O     0.12708   0.89345   0.75000   0.00000  Uiso   1.00
O1081  O     0.20627   0.89346   0.75001   0.00000  Uiso   1.00
O1082  O     0.10775   0.83332   0.82549   0.00000  Uiso   1.00
O1083  O     0.18694   0.83333   0.82549   0.00000  Uiso   1.00
O1084  O     0.12706   0.77321   0.74999   0.00000  Uiso   1.00
O1085  O     0.20625   0.77322   0.75000   0.00000  Uiso   1.00
O1086  O     0.14640   0.83334   0.67451   0.00000  Uiso   1.00
O1087  O     0.22559   0.83335   0.67451   0.00000  Uiso   1.00
O1088  O     0.29088   0.77554   0.91233   0.00000  Uiso   1.00
C1089  C     0.50001   0.91262   0.75009   0.00000  Uiso   1.00
C1090  C     0.46043   0.81501   0.90554   0.00000  Uiso   1.00
C1091  C     0.52982   0.97938   0.77496   0.00000  Uiso   1.00
C1092  C     0.47447   0.82799   0.84960   0.00000  Uiso   1.00
C1093  C     0.52991   0.68881   0.77416   0.00000  Uiso   1.00
C1094  C     0.49982   0.70981   0.75013   0.00000  Uiso   1.00
C1095  C     0.46964   0.68840   0.72625   0.00000  Uiso   1.00
C1096  C     0.46983   0.97895   0.72548   0.00000  Uiso   1.00
C1097  C     0.49995   0.95748   0.75012   0.00000  Uiso   1.00
C1098  C     0.63551   0.86387   0.77465   0.00000  Uiso   1.00
C1099  C     0.35177   0.86410   0.77420   0.00000  Uiso   1.00
C1100  C     0.48047   0.80377   0.98786   0.00000  Uiso   1.00
C1101  C     0.36478   0.80327   0.72432   0.00000  Uiso   1.00
C1102  C     0.64866   0.80336   0.72419   0.00000  Uiso   1.00
C1103  C     0.49995   0.75421   0.74998   0.00000  Uiso   1.00
C1104  C     0.52593   0.83328   0.64968   0.00000  Uiso   1.00
C1105  C     0.60183   0.81740   0.50931   0.00000  Uiso   1.00
C1106  C     0.54081   0.82861   0.59217   0.00000  Uiso   1.00
C1107  C     0.41122   0.80981   0.93265   0.00000  Uiso   1.00
C1108  C     0.39773   0.79557   0.98407   0.00000  Uiso   1.00
C1109  C     0.43108   0.79396   0.51299   0.00000  Uiso   1.00
C1110  C     0.64786   0.79209   0.86299   0.00000  Uiso   1.00
C1111  C     0.49533   0.80584   0.93245   0.00000  Uiso   1.00
C1112  C     0.51637   0.80995   0.51426   0.00000  Uiso   1.00
C1113  C     0.56590   0.80667   0.98568   0.00000  Uiso   1.00
C1114  C     0.57899   0.79373   0.93331   0.00000  Uiso   1.00
C1115  C     0.54353   0.79465   0.90639   0.00000  Uiso   1.00
C1116  C     0.50467   0.82239   0.56690   0.00000  Uiso   1.00
C1117  C     0.59000   0.82776   0.56240   0.00000  Uiso   1.00
Cu1118 Cu    0.45311   0.83333   0.75000   0.00000  Uiso   1.00
Cu1119 Cu    0.54689   0.83334   0.75000   0.00000  Uiso   1.00
H1120  H     0.55277   0.70558   0.79337   0.00000  Uiso   1.00
H1121  H     0.36139   0.78459   0.50176   0.00000  Uiso   1.00
H1122  H     0.55255   0.78330   0.86669   0.00000  Uiso   1.00
H1123  H     0.64923   0.86145   0.56317   0.00000  Uiso   1.00
H1124  H     0.64968   0.81221   0.58367   0.00000  Uiso   1.00
H1125  H     0.40417   0.96611   0.71534   0.00000  Uiso   1.00
H1126  H     0.45057   0.96721   0.65948   0.00000  Uiso   1.00
H1127  H     0.35274   0.78129   0.85112   0.00000  Uiso   1.00
H1128  H     0.63159   0.78068   0.83250   0.00000  Uiso   1.00
H1129  H     0.64831   0.82627   0.86489   0.00000  Uiso   1.00
H1130  H     0.44406   0.75996   0.57274   0.00000  Uiso   1.00
H1131  H     0.44667   0.70486   0.70713   0.00000  Uiso   1.00
H1132  H     0.39935   0.79667   0.59173   0.00000  Uiso   1.00
H1133  H     0.54842   0.96834   0.84133   0.00000  Uiso   1.00
H1134  H     0.59524   0.96726   0.78584   0.00000  Uiso   1.00
H1135  H     0.61170   0.88793   0.79537   0.00000  Uiso   1.00
H1136  H     0.36494   0.88846   0.79442   0.00000  Uiso   1.00
H1137  H     0.38863   0.77910   0.70373   0.00000  Uiso   1.00
H1138  H     0.63560   0.77927   0.70347   0.00000  Uiso   1.00
H1139  H     0.63885   0.81991   0.98548   0.00000  Uiso   1.00
H1140  H     0.46747   0.82841   0.58844   0.00000  Uiso   1.00
H1141  H     0.38344   0.81417   0.91319   0.00000  Uiso   1.00
N1142  N     0.38265   0.83332   0.74998   0.00000  Uiso   1.00
N1143  N     0.61735   0.83335   0.75000   0.00000  Uiso   1.00
N1144  N     0.62790   0.83819   0.58545   0.00000  Uiso   1.00
N1145  N     0.44037   0.95752   0.69847   0.00000  Uiso   1.00
N1146  N     0.41527   0.77460   0.56340   0.00000  Uiso   1.00
N1147  N     0.55905   0.95844   0.80230   0.00000  Uiso   1.00
O1148  O     0.46042   0.89345   0.75000   0.00000  Uiso   1.00
O1149  O     0.53961   0.89346   0.75001   0.00000  Uiso   1.00
O1150  O     0.44108   0.83332   0.82549   0.00000  Uiso   1.00
O1151  O     0.52027   0.83333   0.82549   0.00000  Uiso   1.00
O1152  O     0.46039   0.77321   0.74999   0.00000  Uiso   1.00
O1153  O     0.53958   0.77322   0.75000   0.00000  Uiso   1.00
O1154  O     0.47973   0.83334   0.67451   0.00000  Uiso   1.00
O1155  O     0.55892   0.83335   0.67451   0.00000  Uiso   1.00
O1156  O     0.62422   0.77554   0.91233   0.00000  Uiso   1.00
C1157  C     0.83334   0.91262   0.75009   0.00000  Uiso   1.00
C1158  C     0.79376   0.81501   0.90554   0.00000  Uiso   1.00
C1159  C     0.86315   0.97938   0.77496   0.00000  Uiso   1.00
C1160  C     0.80780   0.82799   0.84960   0.00000  Uiso   1.00
C1161  C     0.86325   0.68881   0.77416   0.00000  Uiso   1.00
C1162  C     0.83315   0.70981   0.75013   0.00000  Uiso   1.00
C1163  C     0.80297   0.68840   0.72625   0.00000  Uiso   1.00
C1164  C     0.80317   0.97895   0.72548   0.00000  Uiso   1.00
C1165  C     0.83329   0.95748   0.75012   0.00000  Uiso   1.00
C1166  C     0.96885   0.86387   0.77465   0.00000  Uiso   1.00
C1167  C     0.68510   0.86410   0.77420   0.00000  Uiso   1.00
C1168  C     0.81380   0.80377   0.98786   0.00000  Uiso   1.00
C1169  C     0.69811   0.80327   0.72432   0.00000  Uiso   1.00
C1170  C     0.98200   0.80336   0.72419   0.00000  Uiso   1.00
C1171  C     0.83328   0.75421   0.74998   0.00000  Uiso   1.00
C1172  C     0.85926   0.83328   0.64968   0.00000  Uiso   1.00
C1173  C     0.93516   0.81740   0.50931   0.00000  Uiso   1.00
C1174  C     0.87414   0.82861   0.59217   0.00000  Uiso   1.00
C1175  C     0.74456   0.80981   0.93265   0.00000  Uiso   1.00
C1176  C     0.73107   0.79557   0.98407   0.00000  Uiso   1.00
C1177  C     0.76441   0.79396   0.51299   0.00000  Uiso   1.00
C1178  C     0.98120   0.79209   0.86299   0.00000  Uiso   1.00
C1179  C     0.82866   0.80584   0.93245   0.00000  Uiso   1.00
C1180  C     0.84970   0.80995   0.51426   0.00000  Uiso   1.00
C1181  C     0.89923   0.80667   0.98568   0.00000  Uiso   1.00
C1182  C     0.91233   0.79373   0.93331   0.00000  Uiso   1.00
C1183  C     0.87687   0.79465   0.90639   0.00000  Uiso   1.00
C1184  C     0.83801   0.82239   0.56690   0.00000  Uiso   1.00
C1185  C     0.92333   0.82776   0.56240   0.00000  Uiso   1.00
Cu1186 Cu    0.78645   0.83333   0.75000   0.00000  Uiso   1.00
Cu1187 Cu    0.88022   0.83334   0.75000   0.00000  Uiso   1.00
H1188  H     0.88611   0.70558   0.79337   0.00000  Uiso   1.00
H1189  H     0.69473   0.78459   0.50176   0.00000  Uiso   1.00
H1190  H     0.88589   0.78330   0.86669   0.00000  Uiso   1.00
H1191  H     0.98256   0.86145   0.56317   0.00000  Uiso   1.00
H1192  H     0.98301   0.81221   0.58367   0.00000  Uiso   1.00
H1193  H     0.73750   0.96611   0.71534   0.00000  Uiso   1.00
H1194  H     0.78391   0.96721   0.65948   0.00000  Uiso   1.00
H1195  H     0.68608   0.78129   0.85112   0.00000  Uiso   1.00
H1196  H     0.96492   0.78068   0.83250   0.00000  Uiso   1.00
H1197  H     0.98164   0.82627   0.86489   0.00000  Uiso   1.00
H1198  H     0.77740   0.75996   0.57274   0.00000  Uiso   1.00
H1199  H     0.78001   0.70486   0.70713   0.00000  Uiso   1.00
H1200  H     0.73268   0.79667   0.59173   0.00000  Uiso   1.00
H1201  H     0.88176   0.96834   0.84133   0.00000  Uiso   1.00
H1202  H     0.92857   0.96726   0.78584   0.00000  Uiso   1.00
H1203  H     0.94503   0.88793   0.79537   0.00000  Uiso   1.00
H1204  H     0.69827   0.88846   0.79442   0.00000  Uiso   1.00
H1205  H     0.72196   0.77910   0.70373   0.00000  Uiso   1.00
H1206  H     0.96893   0.77927   0.70347   0.00000  Uiso   1.00
H1207  H     0.97219   0.81991   0.98548   0.00000  Uiso   1.00
H1208  H     0.80080   0.82841   0.58844   0.00000  Uiso   1.00
H1209  H     0.71677   0.81417   0.91319   0.00000  Uiso   1.00
N1210  N     0.71598   0.83332   0.74998   0.00000  Uiso   1.00
N1211  N     0.95069   0.83335   0.75000   0.00000  Uiso   1.00
N1212  N     0.96123   0.83819   0.58545   0.00000  Uiso   1.00
N1213  N     0.77371   0.95752   0.69847   0.00000  Uiso   1.00
N1214  N     0.74860   0.77460   0.56340   0.00000  Uiso   1.00
N1215  N     0.89238   0.95844   0.80230   0.00000  Uiso   1.00
O1216  O     0.79375   0.89345   0.75000   0.00000  Uiso   1.00
O1217  O     0.87294   0.89346   0.75001   0.00000  Uiso   1.00
O1218  O     0.77441   0.83332   0.82549   0.00000  Uiso   1.00
O1219  O     0.85360   0.83333   0.82549   0.00000  Uiso   1.00
O1220  O     0.79373   0.77321   0.74999   0.00000  Uiso   1.00
O1221  O     0.87292   0.77322   0.75000   0.00000  Uiso   1.00
O1222  O     0.81306   0.83334   0.67451   0.00000  Uiso   1.00
O1223  O     0.89225   0.83335   0.67451   0.00000  Uiso   1.00
O1224  O     0.95755   0.77554   0.91233   0.00000  Uiso   1.00
loop_
_geom_bond_atom_site_label_1
_geom_bond_atom_site_label_2
_geom_bond_distance
_geom_bond_site_symmetry_2
_ccdc_geom_bond_type
C1     C9      1.457   .     S
C1     O60     1.295   .     A
C1     O61     1.297   .     A
C2     C4      1.491   .     S
C2     C23     1.421   .     A
C2     C19     1.401   .     A
C3     N59     1.433   .     S
C3     C9      1.412   .     A
C3     C209    1.389   .     S
C4     O63     1.300   .     A
C4     O62     1.309   .     A
C5     H32     1.085   .     S
C5     C6      1.394   .     A
C5     C411    1.389   1_545 S
C6     C7      1.395   .     A
C6     C15     1.442   .     S
C7     H43     1.084   .     S
C7     C416    1.390   1_545 S
C8     C9      1.413   .     A
C8     N57     1.434   .     S
C8     C211    1.390   .     S
C10    N55     1.368   .     A
C10    H47     1.080   .     S
C10    C79     1.420   .     S
C11    N54     1.368   .     A
C11    H48     1.081   .     S
C11    C146    1.420   1_455 S
C12    C23     1.417   .     A
C12    C633    1.421   .     S
C12    C636    1.417   .     S
C13    H49     1.082   .     S
C13    N54     1.369   .     A
C13    C150    1.420   1_455 S
C14    N55     1.369   .     A
C14    H50     1.081   .     S
C14    C81     1.420   .     S
C15    O64     1.293   .     A
C15    O65     1.293   .     A
C16    O67     1.300   .     A
C16    O66     1.302   .     A
C16    C18     1.476   .     S
C17    C29     1.397   .     A
C17    C637    1.395   1_554 S
C17    H663    1.075   1_554 S
C18    C29     1.409   .     A
C18    C28     1.402   .     A
C19    C20     1.394   .     A
C19    H53     1.078   .     S
C20    C633    1.391   .     S
C20    H645    1.076   .     S
C21    N58     1.437   .     S
C21    C632    1.391   1_554 S
C21    C624    1.421   1_554 S
C22    O68     1.405   .     S
C22    H41     1.111   .     S
C22    H40     1.108   .     S
C22    H107    1.109   .     S
C23    C27     1.407   .     A
C24    C28     1.403   .     A
C24    C624    1.417   1_554 S
C24    C637    1.413   1_554 S
C25    C26     1.400   .     A
C25    C629    1.395   .     S
C25    C636    1.413   .     S
C26    O68     1.390   .     S
C26    C27     1.403   .     A
C27    H34     1.078   .     S
C28    H52     1.076   .     S
C29    N56     1.433   .     S
Cu30   O64     1.964   .     S
Cu30   N54     2.023   .     S
Cu30   O66     1.937   .     S
Cu30   O60     1.963   .     S
Cu30   O62     1.941   .     S
Cu30   Cu31    2.692   .     S
Cu31   O67     1.941   .     S
Cu31   O63     1.937   .     S
Cu31   O65     1.963   .     S
Cu31   O61     1.964   .     S
Cu31   N55     2.023   .     S
H33    C632    1.076   1_554 S
H35    N56     1.046   .     S
H36    N56     1.044   .     S
H37    N57     1.046   .     S
H38    N57     1.046   .     S
H39    C158    1.109   1_455 S
H42    N58     1.045   .     S
H44    N58     1.045   .     S
H45    N59     1.046   .     S
H46    N59     1.046   .     S
H51    C629    1.075   .     S
C69    C77     1.457   .     S
C69    O128    1.295   .     A
C69    O129    1.297   .     A
C70    C72     1.491   .     S
C70    C91     1.421   .     A
C70    C87     1.401   .     A
C71    N127    1.433   .     S
C71    C77     1.412   .     A
C71    C277    1.389   .     S
C72    O131    1.300   .     A
C72    O130    1.309   .     A
C73    H100    1.085   .     S
C73    C74     1.394   .     A
C73    C479    1.389   1_545 S
C74    C75     1.395   .     A
C74    C83     1.442   .     S
C75    H111    1.084   .     S
C75    C484    1.390   1_545 S
C76    C77     1.413   .     A
C76    N125    1.434   .     S
C76    C279    1.390   .     S
C78    N123    1.368   .     A
C78    H115    1.080   .     S
C78    C147    1.420   .     S
C79    N122    1.368   .     A
C79    H116    1.081   .     S
C80    C91     1.417   .     A
C80    C701    1.421   .     S
C80    C704    1.417   .     S
C81    H117    1.082   .     S
C81    N122    1.369   .     A
C82    N123    1.369   .     A
C82    H118    1.081   .     S
C82    C149    1.420   .     S
C83    O132    1.293   .     A
C83    O133    1.293   .     A
C84    O135    1.300   .     A
C84    O134    1.302   .     A
C84    C86     1.476   .     S
C85    C97     1.397   .     A
C85    C705    1.395   1_554 S
C85    H731    1.075   1_554 S
C86    C97     1.409   .     A
C86    C96     1.402   .     A
C87    C88     1.394   .     A
C87    H121    1.078   .     S
C88    C701    1.391   .     S
C88    H713    1.076   .     S
C89    N126    1.437   .     S
C89    C700    1.391   1_554 S
C89    C692    1.421   1_554 S
C90    O136    1.405   .     S
C90    H109    1.111   .     S
C90    H108    1.108   .     S
C90    H175    1.109   .     S
C91    C95     1.407   .     A
C92    C96     1.403   .     A
C92    C692    1.417   1_554 S
C92    C705    1.413   1_554 S
C93    C94     1.400   .     A
C93    C697    1.395   .     S
C93    C704    1.413   .     S
C94    O136    1.390   .     S
C94    C95     1.403   .     A
C95    H102    1.078   .     S
C96    H120    1.076   .     S
C97    N124    1.433   .     S
Cu98   O132    1.964   .     S
Cu98   N122    2.023   .     S
Cu98   O134    1.937   .     S
Cu98   O128    1.963   .     S
Cu98   O130    1.941   .     S
Cu98   Cu99    2.692   .     S
Cu99   O135    1.941   .     S
Cu99   O131    1.937   .     S
Cu99   O133    1.963   .     S
Cu99   O129    1.964   .     S
Cu99   N123    2.023   .     S
H101   C700    1.076   1_554 S
H103   N124    1.046   .     S
H104   N124    1.044   .     S
H105   N125    1.046   .     S
H106   N125    1.046   .     S
H110   N126    1.045   .     S
H112   N126    1.045   .     S
H113   N127    1.046   .     S
H114   N127    1.046   .     S
H119   C697    1.075   .     S
C137   C145    1.457   .     S
C137   O196    1.295   .     A
C137   O197    1.297   .     A
C138   C140    1.491   .     S
C138   C159    1.421   .     A
C138   C155    1.401   .     A
C139   N195    1.433   .     S
C139   C145    1.412   .     A
C139   C345    1.389   .     S
C140   O199    1.300   .     A
C140   O198    1.309   .     A
C141   H168    1.085   .     S
C141   C142    1.394   .     A
C141   C547    1.389   1_545 S
C142   C143    1.395   .     A
C142   C151    1.442   .     S
C143   H179    1.084   .     S
C143   C552    1.390   1_545 S
C144   C145    1.413   .     A
C144   N193    1.434   .     S
C144   C347    1.390   .     S
C146   N191    1.368   .     A
C146   H183    1.080   .     S
C146   C11     1.420   1_655 S
C147   N190    1.368   .     A
C147   H184    1.081   .     S
C148   C159    1.417   .     A
C148   C769    1.421   .     S
C148   C772    1.417   .     S
C149   H185    1.082   .     S
C149   N190    1.369   .     A
C150   N191    1.369   .     A
C150   H186    1.081   .     S
C150   C13     1.420   1_655 S
C151   O200    1.293   .     A
C151   O201    1.293   .     A
C152   O203    1.300   .     A
C152   O202    1.302   .     A
C152   C154    1.476   .     S
C153   C165    1.397   .     A
C153   C773    1.395   1_554 S
C153   H799    1.075   1_554 S
C154   C165    1.409   .     A
C154   C164    1.402   .     A
C155   C156    1.394   .     A
C155   H189    1.078   .     S
C156   C769    1.391   .     S
C156   H781    1.076   .     S
C157   N194    1.437   .     S
C157   C768    1.391   1_554 S
C157   C760    1.421   1_554 S
C158   O204    1.405   .     S
C158   H177    1.111   .     S
C158   H176    1.108   .     S
C158   H39     1.109   1_655 S
C159   C163    1.407   .     A
C160   C164    1.403   .     A
C160   C760    1.417   1_554 S
C160   C773    1.413   1_554 S
C161   C162    1.400   .     A
C161   C765    1.395   .     S
C161   C772    1.413   .     S
C162   O204    1.390   .     S
C162   C163    1.403   .     A
C163   H170    1.078   .     S
C164   H188    1.076   .     S
C165   N192    1.433   .     S
Cu166  O200    1.964   .     S
Cu166  N190    2.023   .     S
Cu166  O202    1.937   .     S
Cu166  O196    1.963   .     S
Cu166  O198    1.941   .     S
Cu166  Cu167   2.692   .     S
Cu167  O203    1.941   .     S
Cu167  O199    1.937   .     S
Cu167  O201    1.963   .     S
Cu167  O197    1.964   .     S
Cu167  N191    2.023   .     S
H169   C768    1.076   1_554 S
H171   N192    1.046   .     S
H172   N192    1.044   .     S
H173   N193    1.046   .     S
H174   N193    1.046   .     S
H178   N194    1.045   .     S
H180   N194    1.045   .     S
H181   N195    1.046   .     S
H182   N195    1.046   .     S
H187   C765    1.075   .     S
C205   C213    1.457   .     S
C205   O264    1.295   .     A
C205   O265    1.297   .     A
C206   C208    1.491   .     S
C206   C227    1.421   .     A
C206   C223    1.401   .     A
C207   N263    1.433   .     S
C207   C213    1.412   .     A
C207   C413    1.389   .     S
C208   O267    1.300   .     A
C208   O266    1.309   .     A
C209   H236    1.085   .     S
C209   C210    1.394   .     A
C210   C211    1.395   .     A
C210   C219    1.442   .     S
C211   H247    1.084   .     S
C212   C213    1.413   .     A
C212   N261    1.434   .     S
C212   C415    1.390   .     S
C214   N259    1.368   .     A
C214   H251    1.080   .     S
C214   C283    1.420   .     S
C215   N258    1.368   .     A
C215   H252    1.081   .     S
C215   C350    1.420   1_455 S
C216   C227    1.417   .     A
C216   C837    1.421   .     S
C216   C840    1.417   .     S
C217   H253    1.082   .     S
C217   N258    1.369   .     A
C217   C354    1.420   1_455 S
C218   N259    1.369   .     A
C218   H254    1.081   .     S
C218   C285    1.420   .     S
C219   O268    1.293   .     A
C219   O269    1.293   .     A
C220   O271    1.300   .     A
C220   O270    1.302   .     A
C220   C222    1.476   .     S
C221   C233    1.397   .     A
C221   C841    1.395   1_554 S
C221   H867    1.075   1_554 S
C222   C233    1.409   .     A
C222   C232    1.402   .     A
C223   C224    1.394   .     A
C223   H257    1.078   .     S
C224   C837    1.391   .     S
C224   H849    1.076   .     S
C225   N262    1.437   .     S
C225   C836    1.391   1_554 S
C225   C828    1.421   1_554 S
C226   O272    1.405   .     S
C226   H245    1.111   .     S
C226   H244    1.108   .     S
C226   H311    1.109   .     S
C227   C231    1.407   .     A
C228   C232    1.403   .     A
C228   C828    1.417   1_554 S
C228   C841    1.413   1_554 S
C229   C230    1.400   .     A
C229   C833    1.395   .     S
C229   C840    1.413   .     S
C230   O272    1.390   .     S
C230   C231    1.403   .     A
C231   H238    1.078   .     S
C232   H256    1.076   .     S
C233   N260    1.433   .     S
Cu234  O268    1.964   .     S
Cu234  N258    2.023   .     S
Cu234  O270    1.937   .     S
Cu234  O264    1.963   .     S
Cu234  O266    1.941   .     S
Cu234  Cu235   2.692   .     S
Cu235  O271    1.941   .     S
Cu235  O267    1.937   .     S
Cu235  O269    1.963   .     S
Cu235  O265    1.964   .     S
Cu235  N259    2.023   .     S
H237   C836    1.076   1_554 S
H239   N260    1.046   .     S
H240   N260    1.044   .     S
H241   N261    1.046   .     S
H242   N261    1.046   .     S
H243   C362    1.109   1_455 S
H246   N262    1.045   .     S
H248   N262    1.045   .     S
H249   N263    1.046   .     S
H250   N263    1.046   .     S
H255   C833    1.075   .     S
C273   C281    1.457   .     S
C273   O332    1.295   .     A
C273   O333    1.297   .     A
C274   C276    1.491   .     S
C274   C295    1.421   .     A
C274   C291    1.401   .     A
C275   N331    1.433   .     S
C275   C281    1.412   .     A
C275   C481    1.389   .     S
C276   O335    1.300   .     A
C276   O334    1.309   .     A
C277   H304    1.085   .     S
C277   C278    1.394   .     A
C278   C279    1.395   .     A
C278   C287    1.442   .     S
C279   H315    1.084   .     S
C280   C281    1.413   .     A
C280   N329    1.434   .     S
C280   C483    1.390   .     S
C282   N327    1.368   .     A
C282   H319    1.080   .     S
C282   C351    1.420   .     S
C283   N326    1.368   .     A
C283   H320    1.081   .     S
C284   C295    1.417   .     A
C284   C905    1.421   .     S
C284   C908    1.417   .     S
C285   H321    1.082   .     S
C285   N326    1.369   .     A
C286   N327    1.369   .     A
C286   H322    1.081   .     S
C286   C353    1.420   .     S
C287   O336    1.293   .     A
C287   O337    1.293   .     A
C288   O339    1.300   .     A
C288   O338    1.302   .     A
C288   C290    1.476   .     S
C289   C301    1.397   .     A
C289   C909    1.395   1_554 S
C289   H935    1.075   1_554 S
C290   C301    1.409   .     A
C290   C300    1.402   .     A
C291   C292    1.394   .     A
C291   H325    1.078   .     S
C292   C905    1.391   .     S
C292   H917    1.076   .     S
C293   N330    1.437   .     S
C293   C904    1.391   1_554 S
C293   C896    1.421   1_554 S
C294   O340    1.405   .     S
C294   H313    1.111   .     S
C294   H312    1.108   .     S
C294   H379    1.109   .     S
C295   C299    1.407   .     A
C296   C300    1.403   .     A
C296   C896    1.417   1_554 S
C296   C909    1.413   1_554 S
C297   C298    1.400   .     A
C297   C901    1.395   .     S
C297   C908    1.413   .     S
C298   O340    1.390   .     S
C298   C299    1.403   .     A
C299   H306    1.078   .     S
C300   H324    1.076   .     S
C301   N328    1.433   .     S
Cu302  O336    1.964   .     S
Cu302  N326    2.023   .     S
Cu302  O338    1.937   .     S
Cu302  O332    1.963   .     S
Cu302  O334    1.941   .     S
Cu302  Cu303   2.692   .     S
Cu303  O339    1.941   .     S
Cu303  O335    1.937   .     S
Cu303  O337    1.963   .     S
Cu303  O333    1.964   .     S
Cu303  N327    2.023   .     S
H305   C904    1.076   1_554 S
H307   N328    1.046   .     S
H308   N328    1.044   .     S
H309   N329    1.046   .     S
H310   N329    1.046   .     S
H314   N330    1.045   .     S
H316   N330    1.045   .     S
H317   N331    1.046   .     S
H318   N331    1.046   .     S
H323   C901    1.075   .     S
C341   C349    1.457   .     S
C341   O400    1.295   .     A
C341   O401    1.297   .     A
C342   C344    1.491   .     S
C342   C363    1.421   .     A
C342   C359    1.401   .     A
C343   N399    1.433   .     S
C343   C349    1.412   .     A
C343   C549    1.389   .     S
C344   O403    1.300   .     A
C344   O402    1.309   .     A
C345   H372    1.085   .     S
C345   C346    1.394   .     A
C346   C347    1.395   .     A
C346   C355    1.442   .     S
C347   H383    1.084   .     S
C348   C349    1.413   .     A
C348   N397    1.434   .     S
C348   C551    1.390   .     S
C350   N395    1.368   .     A
C350   H387    1.080   .     S
C350   C215    1.420   1_655 S
C351   N394    1.368   .     A
C351   H388    1.081   .     S
C352   C363    1.417   .     A
C352   C973    1.421   .     S
C352   C976    1.417   .     S
C353   H389    1.082   .     S
C353   N394    1.369   .     A
C354   N395    1.369   .     A
C354   H390    1.081   .     S
C354   C217    1.420   1_655 S
C355   O404    1.293   .     A
C355   O405    1.293   .     A
C356   O407    1.300   .     A
C356   O406    1.302   .     A
C356   C358    1.476   .     S
C357   C369    1.397   .     A
C357   C977    1.395   1_554 S
C357   H1003   1.075   1_554 S
C358   C369    1.409   .     A
C358   C368    1.402   .     A
C359   C360    1.394   .     A
C359   H393    1.078   .     S
C360   C973    1.391   .     S
C360   H985    1.076   .     S
C361   N398    1.437   .     S
C361   C972    1.391   1_554 S
C361   C964    1.421   1_554 S
C362   O408    1.405   .     S
C362   H381    1.111   .     S
C362   H380    1.108   .     S
C362   H243    1.109   1_655 S
C363   C367    1.407   .     A
C364   C368    1.403   .     A
C364   C964    1.417   1_554 S
C364   C977    1.413   1_554 S
C365   C366    1.400   .     A
C365   C969    1.395   .     S
C365   C976    1.413   .     S
C366   O408    1.390   .     S
C366   C367    1.403   .     A
C367   H374    1.078   .     S
C368   H392    1.076   .     S
C369   N396    1.433   .     S
Cu370  O404    1.964   .     S
Cu370  N394    2.023   .     S
Cu370  O406    1.937   .     S
Cu370  O400    1.963   .     S
Cu370  O402    1.941   .     S
Cu370  Cu371   2.692   .     S
Cu371  O407    1.941   .     S
Cu371  O403    1.937   .     S
Cu371  O405    1.963   .     S
Cu371  O401    1.964   .     S
Cu371  N395    2.023   .     S
H373   C972    1.076   1_554 S
H375   N396    1.046   .     S
H376   N396    1.044   .     S
H377   N397    1.046   .     S
H378   N397    1.046   .     S
H382   N398    1.045   .     S
H384   N398    1.045   .     S
H385   N399    1.046   .     S
H386   N399    1.046   .     S
H391   C969    1.075   .     S
C409   C417    1.457   .     S
C409   O468    1.295   .     A
C409   O469    1.297   .     A
C410   C412    1.491   .     S
C410   C431    1.421   .     A
C410   C427    1.401   .     A
C411   N467    1.433   .     S
C411   C417    1.412   .     A
C411   C5      1.389   1_565 S
C412   O471    1.300   .     A
C412   O470    1.309   .     A
C413   H440    1.085   .     S
C413   C414    1.394   .     A
C414   C415    1.395   .     A
C414   C423    1.442   .     S
C415   H451    1.084   .     S
C416   C417    1.413   .     A
C416   N465    1.434   .     S
C416   C7      1.390   1_565 S
C418   N463    1.368   .     A
C418   H455    1.080   .     S
C418   C487    1.420   .     S
C419   N462    1.368   .     A
C419   H456    1.081   .     S
C419   C554    1.420   1_455 S
C420   C431    1.417   .     A
C420   C1041   1.421   .     S
C420   C1044   1.417   .     S
C421   H457    1.082   .     S
C421   N462    1.369   .     A
C421   C558    1.420   1_455 S
C422   N463    1.369   .     A
C422   H458    1.081   .     S
C422   C489    1.420   .     S
C423   O472    1.293   .     A
C423   O473    1.293   .     A
C424   O475    1.300   .     A
C424   O474    1.302   .     A
C424   C426    1.476   .     S
C425   C437    1.397   .     A
C425   C1045   1.395   1_554 S
C425   H1071   1.075   1_554 S
C426   C437    1.409   .     A
C426   C436    1.402   .     A
C427   C428    1.394   .     A
C427   H461    1.078   .     S
C428   C1041   1.391   .     S
C428   H1053   1.076   .     S
C429   N466    1.437   .     S
C429   C1040   1.391   1_554 S
C429   C1032   1.421   1_554 S
C430   O476    1.405   .     S
C430   H449    1.111   .     S
C430   H448    1.108   .     S
C430   H515    1.109   .     S
C431   C435    1.407   .     A
C432   C436    1.403   .     A
C432   C1032   1.417   1_554 S
C432   C1045   1.413   1_554 S
C433   C434    1.400   .     A
C433   C1037   1.395   .     S
C433   C1044   1.413   .     S
C434   O476    1.390   .     S
C434   C435    1.403   .     A
C435   H442    1.078   .     S
C436   H460    1.076   .     S
C437   N464    1.433   .     S
Cu438  O472    1.964   .     S
Cu438  N462    2.023   .     S
Cu438  O474    1.937   .     S
Cu438  O468    1.963   .     S
Cu438  O470    1.941   .     S
Cu438  Cu439   2.692   .     S
Cu439  O475    1.941   .     S
Cu439  O471    1.937   .     S
Cu439  O473    1.963   .     S
Cu439  O469    1.964   .     S
Cu439  N463    2.023   .     S
H441   C1040   1.076   1_554 S
H443   N464    1.046   .     S
H444   N464    1.044   .     S
H445   N465    1.046   .     S
H446   N465    1.046   .     S
H447   C566    1.109   1_455 S
H450   N466    1.045   .     S
H452   N466    1.045   .     S
H453   N467    1.046   .     S
H454   N467    1.046   .     S
H459   C1037   1.075   .     S
C477   C485    1.457   .     S
C477   O536    1.295   .     A
C477   O537    1.297   .     A
C478   C480    1.491   .     S
C478   C499    1.421   .     A
C478   C495    1.401   .     A
C479   N535    1.433   .     S
C479   C485    1.412   .     A
C479   C73     1.389   1_565 S
C480   O539    1.300   .     A
C480   O538    1.309   .     A
C481   H508    1.085   .     S
C481   C482    1.394   .     A
C482   C483    1.395   .     A
C482   C491    1.442   .     S
C483   H519    1.084   .     S
C484   C485    1.413   .     A
C484   N533    1.434   .     S
C484   C75     1.390   1_565 S
C486   N531    1.368   .     A
C486   H523    1.080   .     S
C486   C555    1.420   .     S
C487   N530    1.368   .     A
C487   H524    1.081   .     S
C488   C499    1.417   .     A
C488   C1109   1.421   .     S
C488   C1112   1.417   .     S
C489   H525    1.082   .     S
C489   N530    1.369   .     A
C490   N531    1.369   .     A
C490   H526    1.081   .     S
C490   C557    1.420   .     S
C491   O540    1.293   .     A
C491   O541    1.293   .     A
C492   O543    1.300   .     A
C492   O542    1.302   .     A
C492   C494    1.476   .     S
C493   C505    1.397   .     A
C493   C1113   1.395   1_554 S
C493   H1139   1.075   1_554 S
C494   C505    1.409   .     A
C494   C504    1.402   .     A
C495   C496    1.394   .     A
C495   H529    1.078   .     S
C496   C1109   1.391   .     S
C496   H1121   1.076   .     S
C497   N534    1.437   .     S
C497   C1108   1.391   1_554 S
C497   C1100   1.421   1_554 S
C498   O544    1.405   .     S
C498   H517    1.111   .     S
C498   H516    1.108   .     S
C498   H583    1.109   .     S
C499   C503    1.407   .     A
C500   C504    1.403   .     A
C500   C1100   1.417   1_554 S
C500   C1113   1.413   1_554 S
C501   C502    1.400   .     A
C501   C1105   1.395   .     S
C501   C1112   1.413   .     S
C502   O544    1.390   .     S
C502   C503    1.403   .     A
C503   H510    1.078   .     S
C504   H528    1.076   .     S
C505   N532    1.433   .     S
Cu506  O540    1.964   .     S
Cu506  N530    2.023   .     S
Cu506  O542    1.937   .     S
Cu506  O536    1.963   .     S
Cu506  O538    1.941   .     S
Cu506  Cu507   2.692   .     S
Cu507  O543    1.941   .     S
Cu507  O539    1.937   .     S
Cu507  O541    1.963   .     S
Cu507  O537    1.964   .     S
Cu507  N531    2.023   .     S
H509   C1108   1.076   1_554 S
H511   N532    1.046   .     S
H512   N532    1.044   .     S
H513   N533    1.046   .     S
H514   N533    1.046   .     S
H518   N534    1.045   .     S
H520   N534    1.045   .     S
H521   N535    1.046   .     S
H522   N535    1.046   .     S
H527   C1105   1.075   .     S
C545   C553    1.457   .     S
C545   O604    1.295   .     A
C545   O605    1.297   .     A
C546   C548    1.491   .     S
C546   C567    1.421   .     A
C546   C563    1.401   .     A
C547   N603    1.433   .     S
C547   C553    1.412   .     A
C547   C141    1.389   1_565 S
C548   O607    1.300   .     A
C548   O606    1.309   .     A
C549   H576    1.085   .     S
C549   C550    1.394   .     A
C550   C551    1.395   .     A
C550   C559    1.442   .     S
C551   H587    1.084   .     S
C552   C553    1.413   .     A
C552   N601    1.434   .     S
C552   C143    1.390   1_565 S
C554   N599    1.368   .     A
C554   H591    1.080   .     S
C554   C419    1.420   1_655 S
C555   N598    1.368   .     A
C555   H592    1.081   .     S
C556   C567    1.417   .     A
C556   C1177   1.421   .     S
C556   C1180   1.417   .     S
C557   H593    1.082   .     S
C557   N598    1.369   .     A
C558   N599    1.369   .     A
C558   H594    1.081   .     S
C558   C421    1.420   1_655 S
C559   O608    1.293   .     A
C559   O609    1.293   .     A
C560   O611    1.300   .     A
C560   O610    1.302   .     A
C560   C562    1.476   .     S
C561   C573    1.397   .     A
C561   C1181   1.395   1_554 S
C561   H1207   1.075   1_554 S
C562   C573    1.409   .     A
C562   C572    1.402   .     A
C563   C564    1.394   .     A
C563   H597    1.078   .     S
C564   C1177   1.391   .     S
C564   H1189   1.076   .     S
C565   N602    1.437   .     S
C565   C1176   1.391   1_554 S
C565   C1168   1.421   1_554 S
C566   O612    1.405   .     S
C566   H585    1.111   .     S
C566   H584    1.108   .     S
C566   H447    1.109   1_655 S
C567   C571    1.407   .     A
C568   C572    1.403   .     A
C568   C1168   1.417   1_554 S
C568   C1181   1.413   1_554 S
C569   C570    1.400   .     A
C569   C1173   1.395   .     S
C569   C1180   1.413   .     S
C570   O612    1.390   .     S
C570   C571    1.403   .     A
C571   H578    1.078   .     S
C572   H596    1.076   .     S
C573   N600    1.433   .     S
Cu574  O608    1.964   .     S
Cu574  N598    2.023   .     S
Cu574  O610    1.937   .     S
Cu574  O604    1.963   .     S
Cu574  O606    1.941   .     S
Cu574  Cu575   2.692   .     S
Cu575  O611    1.941   .     S
Cu575  O607    1.937   .     S
Cu575  O609    1.963   .     S
Cu575  O605    1.964   .     S
Cu575  N599    2.023   .     S
H577   C1176   1.076   1_554 S
H579   N600    1.046   .     S
H580   N600    1.044   .     S
H581   N601    1.046   .     S
H582   N601    1.046   .     S
H586   N602    1.045   .     S
H588   N602    1.045   .     S
H589   N603    1.046   .     S
H590   N603    1.046   .     S
H595   C1173   1.075   .     S
C613   C621    1.457   .     S
C613   O672    1.295   .     A
C613   O673    1.297   .     A
C614   C616    1.491   .     S
C614   C635    1.421   .     A
C614   C631    1.401   .     A
C615   N671    1.433   .     S
C615   C621    1.412   .     A
C615   C821    1.389   .     S
C616   O675    1.300   .     A
C616   O674    1.309   .     A
C617   H644    1.085   .     S
C617   C618    1.394   .     A
C617   C1023   1.389   1_545 S
C618   C619    1.395   .     A
C618   C627    1.442   .     S
C619   H655    1.084   .     S
C619   C1028   1.390   1_545 S
C620   C621    1.413   .     A
C620   N669    1.434   .     S
C620   C823    1.390   .     S
C622   N667    1.368   .     A
C622   H659    1.080   .     S
C622   C691    1.420   .     S
C623   N666    1.368   .     A
C623   H660    1.081   .     S
C623   C758    1.420   1_455 S
C624   C635    1.417   .     A
C624   C21     1.421   1_556 S
C624   C24     1.417   1_556 S
C625   H661    1.082   .     S
C625   N666    1.369   .     A
C625   C762    1.420   1_455 S
C626   N667    1.369   .     A
C626   H662    1.081   .     S
C626   C693    1.420   .     S
C627   O676    1.293   .     A
C627   O677    1.293   .     A
C628   O679    1.300   .     A
C628   O678    1.302   .     A
C628   C630    1.476   .     S
C629   C641    1.397   .     A
C630   C641    1.409   .     A
C630   C640    1.402   .     A
C631   C632    1.394   .     A
C631   H665    1.078   .     S
C632   C21     1.391   1_556 S
C632   H33     1.076   1_556 S
C633   N670    1.437   .     S
C634   O680    1.405   .     S
C634   H653    1.111   .     S
C634   H652    1.108   .     S
C634   H719    1.109   .     S
C635   C639    1.407   .     A
C636   C640    1.403   .     A
C637   C638    1.400   .     A
C637   C17     1.395   1_556 S
C637   C24     1.413   1_556 S
C638   O680    1.390   .     S
C638   C639    1.403   .     A
C639   H646    1.078   .     S
C640   H664    1.076   .     S
C641   N668    1.433   .     S
Cu642  O676    1.964   .     S
Cu642  N666    2.023   .     S
Cu642  O678    1.937   .     S
Cu642  O672    1.963   .     S
Cu642  O674    1.941   .     S
Cu642  Cu643   2.692   .     S
Cu643  O679    1.941   .     S
Cu643  O675    1.937   .     S
Cu643  O677    1.963   .     S
Cu643  O673    1.964   .     S
Cu643  N667    2.023   .     S
H647   N668    1.046   .     S
H648   N668    1.044   .     S
H649   N669    1.046   .     S
H650   N669    1.046   .     S
H651   C770    1.109   1_455 S
H654   N670    1.045   .     S
H656   N670    1.045   .     S
H657   N671    1.046   .     S
H658   N671    1.046   .     S
H663   C17     1.075   1_556 S
C681   C689    1.457   .     S
C681   O740    1.295   .     A
C681   O741    1.297   .     A
C682   C684    1.491   .     S
C682   C703    1.421   .     A
C682   C699    1.401   .     A
C683   N739    1.433   .     S
C683   C689    1.412   .     A
C683   C889    1.389   .     S
C684   O743    1.300   .     A
C684   O742    1.309   .     A
C685   H712    1.085   .     S
C685   C686    1.394   .     A
C685   C1091   1.389   1_545 S
C686   C687    1.395   .     A
C686   C695    1.442   .     S
C687   H723    1.084   .     S
C687   C1096   1.390   1_545 S
C688   C689    1.413   .     A
C688   N737    1.434   .     S
C688   C891    1.390   .     S
C690   N735    1.368   .     A
C690   H727    1.080   .     S
C690   C759    1.420   .     S
C691   N734    1.368   .     A
C691   H728    1.081   .     S
C692   C703    1.417   .     A
C692   C89     1.421   1_556 S
C692   C92     1.417   1_556 S
C693   H729    1.082   .     S
C693   N734    1.369   .     A
C694   N735    1.369   .     A
C694   H730    1.081   .     S
C694   C761    1.420   .     S
C695   O744    1.293   .     A
C695   O745    1.293   .     A
C696   O747    1.300   .     A
C696   O746    1.302   .     A
C696   C698    1.476   .     S
C697   C709    1.397   .     A
C698   C709    1.409   .     A
C698   C708    1.402   .     A
C699   C700    1.394   .     A
C699   H733    1.078   .     S
C700   C89     1.391   1_556 S
C700   H101    1.076   1_556 S
C701   N738    1.437   .     S
C702   O748    1.405   .     S
C702   H721    1.111   .     S
C702   H720    1.108   .     S
C702   H787    1.109   .     S
C703   C707    1.407   .     A
C704   C708    1.403   .     A
C705   C706    1.400   .     A
C705   C85     1.395   1_556 S
C705   C92     1.413   1_556 S
C706   O748    1.390   .     S
C706   C707    1.403   .     A
C707   H714    1.078   .     S
C708   H732    1.076   .     S
C709   N736    1.433   .     S
Cu710  O744    1.964   .     S
Cu710  N734    2.023   .     S
Cu710  O746    1.937   .     S
Cu710  O740    1.963   .     S
Cu710  O742    1.941   .     S
Cu710  Cu711   2.692   .     S
Cu711  O747    1.941   .     S
Cu711  O743    1.937   .     S
Cu711  O745    1.963   .     S
Cu711  O741    1.964   .     S
Cu711  N735    2.023   .     S
H715   N736    1.046   .     S
H716   N736    1.044   .     S
H717   N737    1.046   .     S
H718   N737    1.046   .     S
H722   N738    1.045   .     S
H724   N738    1.045   .     S
H725   N739    1.046   .     S
H726   N739    1.046   .     S
H731   C85     1.075   1_556 S
C749   C757    1.457   .     S
C749   O808    1.295   .     A
C749   O809    1.297   .     A
C750   C752    1.491   .     S
C750   C771    1.421   .     A
C750   C767    1.401   .     A
C751   N807    1.433   .     S
C751   C757    1.412   .     A
C751   C957    1.389   .     S
C752   O811    1.300   .     A
C752   O810    1.309   .     A
C753   H780    1.085   .     S
C753   C754    1.394   .     A
C753   C1159   1.389   1_545 S
C754   C755    1.395   .     A
C754   C763    1.442   .     S
C755   H791    1.084   .     S
C755   C1164   1.390   1_545 S
C756   C757    1.413   .     A
C756   N805    1.434   .     S
C756   C959    1.390   .     S
C758   N803    1.368   .     A
C758   H795    1.080   .     S
C758   C623    1.420   1_655 S
C759   N802    1.368   .     A
C759   H796    1.081   .     S
C760   C771    1.417   .     A
C760   C157    1.421   1_556 S
C760   C160    1.417   1_556 S
C761   H797    1.082   .     S
C761   N802    1.369   .     A
C762   N803    1.369   .     A
C762   H798    1.081   .     S
C762   C625    1.420   1_655 S
C763   O812    1.293   .     A
C763   O813    1.293   .     A
C764   O815    1.300   .     A
C764   O814    1.302   .     A
C764   C766    1.476   .     S
C765   C777    1.397   .     A
C766   C777    1.409   .     A
C766   C776    1.402   .     A
C767   C768    1.394   .     A
C767   H801    1.078   .     S
C768   C157    1.391   1_556 S
C768   H169    1.076   1_556 S
C769   N806    1.437   .     S
C770   O816    1.405   .     S
C770   H789    1.111   .     S
C770   H788    1.108   .     S
C770   H651    1.109   1_655 S
C771   C775    1.407   .     A
C772   C776    1.403   .     A
C773   C774    1.400   .     A
C773   C153    1.395   1_556 S
C773   C160    1.413   1_556 S
C774   O816    1.390   .     S
C774   C775    1.403   .     A
C775   H782    1.078   .     S
C776   H800    1.076   .     S
C777   N804    1.433   .     S
Cu778  O812    1.964   .     S
Cu778  N802    2.023   .     S
Cu778  O814    1.937   .     S
Cu778  O808    1.963   .     S
Cu778  O810    1.941   .     S
Cu778  Cu779   2.692   .     S
Cu779  O815    1.941   .     S
Cu779  O811    1.937   .     S
Cu779  O813    1.963   .     S
Cu779  O809    1.964   .     S
Cu779  N803    2.023   .     S
H783   N804    1.046   .     S
H784   N804    1.044   .     S
H785   N805    1.046   .     S
H786   N805    1.046   .     S
H790   N806    1.045   .     S
H792   N806    1.045   .     S
H793   N807    1.046   .     S
H794   N807    1.046   .     S
H799   C153    1.075   1_556 S
C817   C825    1.457   .     S
C817   O876    1.295   .     A
C817   O877    1.297   .     A
C818   C820    1.491   .     S
C818   C839    1.421   .     A
C818   C835    1.401   .     A
C819   N875    1.433   .     S
C819   C825    1.412   .     A
C819   C1025   1.389   .     S
C820   O879    1.300   .     A
C820   O878    1.309   .     A
C821   H848    1.085   .     S
C821   C822    1.394   .     A
C822   C823    1.395   .     A
C822   C831    1.442   .     S
C823   H859    1.084   .     S
C824   C825    1.413   .     A
C824   N873    1.434   .     S
C824   C1027   1.390   .     S
C826   N871    1.368   .     A
C826   H863    1.080   .     S
C826   C895    1.420   .     S
C827   N870    1.368   .     A
C827   H864    1.081   .     S
C827   C962    1.420   1_455 S
C828   C839    1.417   .     A
C828   C225    1.421   1_556 S
C828   C228    1.417   1_556 S
C829   H865    1.082   .     S
C829   N870    1.369   .     A
C829   C966    1.420   1_455 S
C830   N871    1.369   .     A
C830   H866    1.081   .     S
C830   C897    1.420   .     S
C831   O880    1.293   .     A
C831   O881    1.293   .     A
C832   O883    1.300   .     A
C832   O882    1.302   .     A
C832   C834    1.476   .     S
C833   C845    1.397   .     A
C834   C845    1.409   .     A
C834   C844    1.402   .     A
C835   C836    1.394   .     A
C835   H869    1.078   .     S
C836   C225    1.391   1_556 S
C836   H237    1.076   1_556 S
C837   N874    1.437   .     S
C838   O884    1.405   .     S
C838   H857    1.111   .     S
C838   H856    1.108   .     S
C838   H923    1.109   .     S
C839   C843    1.407   .     A
C840   C844    1.403   .     A
C841   C842    1.400   .     A
C841   C221    1.395   1_556 S
C841   C228    1.413   1_556 S
C842   O884    1.390   .     S
C842   C843    1.403   .     A
C843   H850    1.078   .     S
C844   H868    1.076   .     S
C845   N872    1.433   .     S
Cu846  O880    1.964   .     S
Cu846  N870    2.023   .     S
Cu846  O882    1.937   .     S
Cu846  O876    1.963   .     S
Cu846  O878    1.941   .     S
Cu846  Cu847   2.692   .     S
Cu847  O883    1.941   .     S
Cu847  O879    1.937   .     S
Cu847  O881    1.963   .     S
Cu847  O877    1.964   .     S
Cu847  N871    2.023   .     S
H851   N872    1.046   .     S
H852   N872    1.044   .     S
H853   N873    1.046   .     S
H854   N873    1.046   .     S
H855   C974    1.109   1_455 S
H858   N874    1.045   .     S
H860   N874    1.045   .     S
H861   N875    1.046   .     S
H862   N875    1.046   .     S
H867   C221    1.075   1_556 S
C885   C893    1.457   .     S
C885   O944    1.295   .     A
C885   O945    1.297   .     A
C886   C888    1.491   .     S
C886   C907    1.421   .     A
C886   C903    1.401   .     A
C887   N943    1.433   .     S
C887   C893    1.412   .     A
C887   C1093   1.389   .     S
C888   O947    1.300   .     A
C888   O946    1.309   .     A
C889   H916    1.085   .     S
C889   C890    1.394   .     A
C890   C891    1.395   .     A
C890   C899    1.442   .     S
C891   H927    1.084   .     S
C892   C893    1.413   .     A
C892   N941    1.434   .     S
C892   C1095   1.390   .     S
C894   N939    1.368   .     A
C894   H931    1.080   .     S
C894   C963    1.420   .     S
C895   N938    1.368   .     A
C895   H932    1.081   .     S
C896   C907    1.417   .     A
C896   C293    1.421   1_556 S
C896   C296    1.417   1_556 S
C897   H933    1.082   .     S
C897   N938    1.369   .     A
C898   N939    1.369   .     A
C898   H934    1.081   .     S
C898   C965    1.420   .     S
C899   O948    1.293   .     A
C899   O949    1.293   .     A
C900   O951    1.300   .     A
C900   O950    1.302   .     A
C900   C902    1.476   .     S
C901   C913    1.397   .     A
C902   C913    1.409   .     A
C902   C912    1.402   .     A
C903   C904    1.394   .     A
C903   H937    1.078   .     S
C904   C293    1.391   1_556 S
C904   H305    1.076   1_556 S
C905   N942    1.437   .     S
C906   O952    1.405   .     S
C906   H925    1.111   .     S
C906   H924    1.108   .     S
C906   H991    1.109   .     S
C907   C911    1.407   .     A
C908   C912    1.403   .     A
C909   C910    1.400   .     A
C909   C289    1.395   1_556 S
C909   C296    1.413   1_556 S
C910   O952    1.390   .     S
C910   C911    1.403   .     A
C911   H918    1.078   .     S
C912   H936    1.076   .     S
C913   N940    1.433   .     S
Cu914  O948    1.964   .     S
Cu914  N938    2.023   .     S
Cu914  O950    1.937   .     S
Cu914  O944    1.963   .     S
Cu914  O946    1.941   .     S
Cu914  Cu915   2.692   .     S
Cu915  O951    1.941   .     S
Cu915  O947    1.937   .     S
Cu915  O949    1.963   .     S
Cu915  O945    1.964   .     S
Cu915  N939    2.023   .     S
H919   N940    1.046   .     S
H920   N940    1.044   .     S
H921   N941    1.046   .     S
H922   N941    1.046   .     S
H926   N942    1.045   .     S
H928   N942    1.045   .     S
H929   N943    1.046   .     S
H930   N943    1.046   .     S
H935   C289    1.075   1_556 S
C953   C961    1.457   .     S
C953   O1012   1.295   .     A
C953   O1013   1.297   .     A
C954   C956    1.491   .     S
C954   C975    1.421   .     A
C954   C971    1.401   .     A
C955   N1011   1.433   .     S
C955   C961    1.412   .     A
C955   C1161   1.389   .     S
C956   O1015   1.300   .     A
C956   O1014   1.309   .     A
C957   H984    1.085   .     S
C957   C958    1.394   .     A
C958   C959    1.395   .     A
C958   C967    1.442   .     S
C959   H995    1.084   .     S
C960   C961    1.413   .     A
C960   N1009   1.434   .     S
C960   C1163   1.390   .     S
C962   N1007   1.368   .     A
C962   H999    1.080   .     S
C962   C827    1.420   1_655 S
C963   N1006   1.368   .     A
C963   H1000   1.081   .     S
C964   C975    1.417   .     A
C964   C361    1.421   1_556 S
C964   C364    1.417   1_556 S
C965   H1001   1.082   .     S
C965   N1006   1.369   .     A
C966   N1007   1.369   .     A
C966   H1002   1.081   .     S
C966   C829    1.420   1_655 S
C967   O1016   1.293   .     A
C967   O1017   1.293   .     A
C968   O1019   1.300   .     A
C968   O1018   1.302   .     A
C968   C970    1.476   .     S
C969   C981    1.397   .     A
C970   C981    1.409   .     A
C970   C980    1.402   .     A
C971   C972    1.394   .     A
C971   H1005   1.078   .     S
C972   C361    1.391   1_556 S
C972   H373    1.076   1_556 S
C973   N1010   1.437   .     S
C974   O1020   1.405   .     S
C974   H993    1.111   .     S
C974   H992    1.108   .     S
C974   H855    1.109   1_655 S
C975   C979    1.407   .     A
C976   C980    1.403   .     A
C977   C978    1.400   .     A
C977   C357    1.395   1_556 S
C977   C364    1.413   1_556 S
C978   O1020   1.390   .     S
C978   C979    1.403   .     A
C979   H986    1.078   .     S
C980   H1004   1.076   .     S
C981   N1008   1.433   .     S
Cu982  O1016   1.964   .     S
Cu982  N1006   2.023   .     S
Cu982  O1018   1.937   .     S
Cu982  O1012   1.963   .     S
Cu982  O1014   1.941   .     S
Cu982  Cu983   2.692   .     S
Cu983  O1019   1.941   .     S
Cu983  O1015   1.937   .     S
Cu983  O1017   1.963   .     S
Cu983  O1013   1.964   .     S
Cu983  N1007   2.023   .     S
H987   N1008   1.046   .     S
H988   N1008   1.044   .     S
H989   N1009   1.046   .     S
H990   N1009   1.046   .     S
H994   N1010   1.045   .     S
H996   N1010   1.045   .     S
H997   N1011   1.046   .     S
H998   N1011   1.046   .     S
H1003  C357    1.075   1_556 S
C1021  C1029   1.457   .     S
C1021  O1080   1.295   .     A
C1021  O1081   1.297   .     A
C1022  C1024   1.491   .     S
C1022  C1043   1.421   .     A
C1022  C1039   1.401   .     A
C1023  N1079   1.433   .     S
C1023  C1029   1.412   .     A
C1023  C617    1.389   1_565 S
C1024  O1083   1.300   .     A
C1024  O1082   1.309   .     A
C1025  H1052   1.085   .     S
C1025  C1026   1.394   .     A
C1026  C1027   1.395   .     A
C1026  C1035   1.442   .     S
C1027  H1063   1.084   .     S
C1028  C1029   1.413   .     A
C1028  N1077   1.434   .     S
C1028  C619    1.390   1_565 S
C1030  N1075   1.368   .     A
C1030  H1067   1.080   .     S
C1030  C1099   1.420   .     S
C1031  N1074   1.368   .     A
C1031  H1068   1.081   .     S
C1031  C1166   1.420   1_455 S
C1032  C1043   1.417   .     A
C1032  C429    1.421   1_556 S
C1032  C432    1.417   1_556 S
C1033  H1069   1.082   .     S
C1033  N1074   1.369   .     A
C1033  C1170   1.420   1_455 S
C1034  N1075   1.369   .     A
C1034  H1070   1.081   .     S
C1034  C1101   1.420   .     S
C1035  O1084   1.293   .     A
C1035  O1085   1.293   .     A
C1036  O1087   1.300   .     A
C1036  O1086   1.302   .     A
C1036  C1038   1.476   .     S
C1037  C1049   1.397   .     A
C1038  C1049   1.409   .     A
C1038  C1048   1.402   .     A
C1039  C1040   1.394   .     A
C1039  H1073   1.078   .     S
C1040  C429    1.391   1_556 S
C1040  H441    1.076   1_556 S
C1041  N1078   1.437   .     S
C1042  O1088   1.405   .     S
C1042  H1061   1.111   .     S
C1042  H1060   1.108   .     S
C1042  H1127   1.109   .     S
C1043  C1047   1.407   .     A
C1044  C1048   1.403   .     A
C1045  C1046   1.400   .     A
C1045  C425    1.395   1_556 S
C1045  C432    1.413   1_556 S
C1046  O1088   1.390   .     S
C1046  C1047   1.403   .     A
C1047  H1054   1.078   .     S
C1048  H1072   1.076   .     S
C1049  N1076   1.433   .     S
Cu1050 O1084   1.964   .     S
Cu1050 N1074   2.023   .     S
Cu1050 O1086   1.937   .     S
Cu1050 O1080   1.963   .     S
Cu1050 O1082   1.941   .     S
Cu1050 Cu1051  2.692   .     S
Cu1051 O1087   1.941   .     S
Cu1051 O1083   1.937   .     S
Cu1051 O1085   1.963   .     S
Cu1051 O1081   1.964   .     S
Cu1051 N1075   2.023   .     S
H1055  N1076   1.046   .     S
H1056  N1076   1.044   .     S
H1057  N1077   1.046   .     S
H1058  N1077   1.046   .     S
H1059  C1178   1.109   1_455 S
H1062  N1078   1.045   .     S
H1064  N1078   1.045   .     S
H1065  N1079   1.046   .     S
H1066  N1079   1.046   .     S
H1071  C425    1.075   1_556 S
C1089  C1097   1.457   .     S
C1089  O1148   1.295   .     A
C1089  O1149   1.297   .     A
C1090  C1092   1.491   .     S
C1090  C1111   1.421   .     A
C1090  C1107   1.401   .     A
C1091  N1147   1.433   .     S
C1091  C1097   1.412   .     A
C1091  C685    1.389   1_565 S
C1092  O1151   1.300   .     A
C1092  O1150   1.309   .     A
C1093  H1120   1.085   .     S
C1093  C1094   1.394   .     A
C1094  C1095   1.395   .     A
C1094  C1103   1.442   .     S
C1095  H1131   1.084   .     S
C1096  C1097   1.413   .     A
C1096  N1145   1.434   .     S
C1096  C687    1.390   1_565 S
C1098  N1143   1.368   .     A
C1098  H1135   1.080   .     S
C1098  C1167   1.420   .     S
C1099  N1142   1.368   .     A
C1099  H1136   1.081   .     S
C1100  C1111   1.417   .     A
C1100  C497    1.421   1_556 S
C1100  C500    1.417   1_556 S
C1101  H1137   1.082   .     S
C1101  N1142   1.369   .     A
C1102  N1143   1.369   .     A
C1102  H1138   1.081   .     S
C1102  C1169   1.420   .     S
C1103  O1152   1.293   .     A
C1103  O1153   1.293   .     A
C1104  O1155   1.300   .     A
C1104  O1154   1.302   .     A
C1104  C1106   1.476   .     S
C1105  C1117   1.397   .     A
C1106  C1117   1.409   .     A
C1106  C1116   1.402   .     A
C1107  C1108   1.394   .     A
C1107  H1141   1.078   .     S
C1108  C497    1.391   1_556 S
C1108  H509    1.076   1_556 S
C1109  N1146   1.437   .     S
C1110  O1156   1.405   .     S
C1110  H1129   1.111   .     S
C1110  H1128   1.108   .     S
C1110  H1195   1.109   .     S
C1111  C1115   1.407   .     A
C1112  C1116   1.403   .     A
C1113  C1114   1.400   .     A
C1113  C493    1.395   1_556 S
C1113  C500    1.413   1_556 S
C1114  O1156   1.390   .     S
C1114  C1115   1.403   .     A
C1115  H1122   1.078   .     S
C1116  H1140   1.076   .     S
C1117  N1144   1.433   .     S
Cu1118 O1152   1.964   .     S
Cu1118 N1142   2.023   .     S
Cu1118 O1154   1.937   .     S
Cu1118 O1148   1.963   .     S
Cu1118 O1150   1.941   .     S
Cu1118 Cu1119  2.692   .     S
Cu1119 O1155   1.941   .     S
Cu1119 O1151   1.937   .     S
Cu1119 O1153   1.963   .     S
Cu1119 O1149   1.964   .     S
Cu1119 N1143   2.023   .     S
H1123  N1144   1.046   .     S
H1124  N1144   1.044   .     S
H1125  N1145   1.046   .     S
H1126  N1145   1.046   .     S
H1130  N1146   1.045   .     S
H1132  N1146   1.045   .     S
H1133  N1147   1.046   .     S
H1134  N1147   1.046   .     S
H1139  C493    1.075   1_556 S
C1157  C1165   1.457   .     S
C1157  O1216   1.295   .     A
C1157  O1217   1.297   .     A
C1158  C1160   1.491   .     S
C1158  C1179   1.421   .     A
C1158  C1175   1.401   .     A
C1159  N1215   1.433   .     S
C1159  C1165   1.412   .     A
C1159  C753    1.389   1_565 S
C1160  O1219   1.300   .     A
C1160  O1218   1.309   .     A
C1161  H1188   1.085   .     S
C1161  C1162   1.394   .     A
C1162  C1163   1.395   .     A
C1162  C1171   1.442   .     S
C1163  H1199   1.084   .     S
C1164  C1165   1.413   .     A
C1164  N1213   1.434   .     S
C1164  C755    1.390   1_565 S
C1166  N1211   1.368   .     A
C1166  H1203   1.080   .     S
C1166  C1031   1.420   1_655 S
C1167  N1210   1.368   .     A
C1167  H1204   1.081   .     S
C1168  C1179   1.417   .     A
C1168  C565    1.421   1_556 S
C1168  C568    1.417   1_556 S
C1169  H1205   1.082   .     S
C1169  N1210   1.369   .     A
C1170  N1211   1.369   .     A
C1170  H1206   1.081   .     S
C1170  C1033   1.420   1_655 S
C1171  O1220   1.293   .     A
C1171  O1221   1.293   .     A
C1172  O1223   1.300   .     A
C1172  O1222   1.302   .     A
C1172  C1174   1.476   .     S
C1173  C1185   1.397   .     A
C1174  C1185   1.409   .     A
C1174  C1184   1.402   .     A
C1175  C1176   1.394   .     A
C1175  H1209   1.078   .     S
C1176  C565    1.391   1_556 S
C1176  H577    1.076   1_556 S
C1177  N1214   1.437   .     S
C1178  O1224   1.405   .     S
C1178  H1197   1.111   .     S
C1178  H1196   1.108   .     S
C1178  H1059   1.109   1_655 S
C1179  C1183   1.407   .     A
C1180  C1184   1.403   .     A
C1181  C1182   1.400   .     A
C1181  C561    1.395   1_556 S
C1181  C568    1.413   1_556 S
C1182  O1224   1.390   .     S
C1182  C1183   1.403   .     A
C1183  H1190   1.078   .     S
C1184  H1208   1.076   .     S
C1185  N1212   1.433   .     S
Cu1186 O1220   1.964   .     S
Cu1186 N1210   2.023   .     S
Cu1186 O1222   1.937   .     S
Cu1186 O1216   1.963   .     S
Cu1186 O1218   1.941   .     S
Cu1186 Cu1187  2.692   .     S
Cu1187 O1223   1.941   .     S
Cu1187 O1219   1.937   .     S
Cu1187 O1221   1.963   .     S
Cu1187 O1217   1.964   .     S
Cu1187 N1211   2.023   .     S
H1191  N1212   1.046   .     S
H1192  N1212   1.044   .     S
H1193  N1213   1.046   .     S
H1194  N1213   1.046   .     S
H1198  N1214   1.045   .     S
H1200  N1214   1.045   .     S
H1201  N1215   1.046   .     S
H1202  N1215   1.046   .     S
H1207  C561    1.075   1_556 S
