data_str_m2_o1_o10_pcu_sym.90
_audit_creation_date              2020-01-03
_audit_creation_method            'Materials Studio'
_symmetry_space_group_name_H-M    'P1'
_symmetry_Int_Tables_number       1
_symmetry_cell_setting            triclinic
loop_
_symmetry_equiv_pos_as_xyz
  x,y,z
_cell_length_a                    26.5475
_cell_length_b                    32.6581
_cell_length_c                    28.5102
_cell_angle_alpha                 88.7538
_cell_angle_beta                  97.7706
_cell_angle_gamma                 92.4334
loop_
_atom_site_label
_atom_site_type_symbol
_atom_site_fract_x
_atom_site_fract_y
_atom_site_fract_z
_atom_site_U_iso_or_equiv
_atom_site_adp_type
_atom_site_occupancy
C1     C     0.16514   0.08736   0.16705   0.00000  Uiso   1.00
C2     C     0.20613   0.02303   0.19560   0.00000  Uiso   1.00
C3     C     0.17029   0.29088   0.16441   0.00000  Uiso   1.00
C4     C     0.16495   0.04258   0.16864   0.00000  Uiso   1.00
C5     C     0.13470   0.14056   0.02141   0.00000  Uiso   1.00
C6     C     0.19869   0.19277   0.31190   0.00000  Uiso   1.00
C7     C     0.13492   0.14038   0.30516   0.00000  Uiso   1.00
C8     C     0.19845   0.19295   0.02817   0.00000  Uiso   1.00
C9     C     0.32498   0.19384   0.10295   0.00000  Uiso   1.00
C10    C     0.00867   0.14278   0.23226   0.00000  Uiso   1.00
C11    C     0.09522   0.28705   0.09868   0.00000  Uiso   1.00
C12    C     0.16847   0.24601   0.16624   0.00000  Uiso   1.00
C13    C     0.24485   0.04850   0.22839   0.00000  Uiso   1.00
C14    C     0.06833   0.16855   0.15488   0.00000  Uiso   1.00
C15    C     0.26505   0.16512   0.17854   0.00000  Uiso   1.00
C16    C     0.01394   0.17327   0.14915   0.00000  Uiso   1.00
C17    C     0.31960   0.16157   0.18490   0.00000  Uiso   1.00
C18    C     0.12545   0.01971   0.14142   0.00000  Uiso   1.00
C19    C     0.21002   0.31363   0.19190   0.00000  Uiso   1.00
C20    C     0.13072   0.31090   0.13577   0.00000  Uiso   1.00
Cu21   Cu    0.16667   0.16667   0.21355   0.00000  Uiso   1.00
Cu22   Cu    0.16667   0.16666   0.11978   0.00000  Uiso   1.00
H23    H     0.10895   0.11989   0.03737   0.00000  Uiso   1.00
H24    H     0.03164   0.16637   0.25415   0.00000  Uiso   1.00
H25    H     0.01932   0.08566   0.14728   0.00000  Uiso   1.00
H26    H     0.23410   0.28816   0.28205   0.00000  Uiso   1.00
H27    H     0.11754   0.27131   0.07483   0.00000  Uiso   1.00
H28    H     0.07129   0.26446   0.11629   0.00000  Uiso   1.00
H29    H     0.07048   0.30640   0.07392   0.00000  Uiso   1.00
H30    H     0.22539   0.06472   0.25412   0.00000  Uiso   1.00
H31    H     0.27334   0.03087   0.25118   0.00000  Uiso   1.00
H32    H     0.26525   0.07101   0.20724   0.00000  Uiso   1.00
H33    H     0.22452   0.21340   0.29588   0.00000  Uiso   1.00
H34    H     0.10982   0.11908   0.28382   0.00000  Uiso   1.00
H35    H     0.22360   0.21422   0.04953   0.00000  Uiso   1.00
H36    H     0.02133   0.20655   0.08219   0.00000  Uiso   1.00
H37    H     0.30173   0.17122   0.07988   0.00000  Uiso   1.00
H38    H     0.30226   0.22019   0.11022   0.00000  Uiso   1.00
H39    H     0.31251   0.13061   0.25356   0.00000  Uiso   1.00
H40    H     0.03173   0.11622   0.22694   0.00000  Uiso   1.00
N41    N     0.16668   0.16668   0.28403   0.00000  Uiso   1.00
N42    N     0.16665   0.16666   0.04931   0.00000  Uiso   1.00
O43    O     0.16666   0.10655   0.20625   0.00000  Uiso   1.00
O44    O     0.02289   0.01137   0.12217   0.00000  Uiso   1.00
O45    O     0.05629   0.08138   0.15449   0.00000  Uiso   1.00
O46    O     0.27213   0.24885   0.19627   0.00000  Uiso   1.00
O47    O     0.31259   0.31635   0.20616   0.00000  Uiso   1.00
O48    O     0.26957   0.28524   0.27581   0.00000  Uiso   1.00
O49    O     0.16667   0.22678   0.12709   0.00000  Uiso   1.00
O50    O     0.16666   0.10654   0.12706   0.00000  Uiso   1.00
O51    O     0.16667   0.22679   0.20628   0.00000  Uiso   1.00
O52    O     0.09161   0.16667   0.19712   0.00000  Uiso   1.00
O53    O     0.24172   0.16666   0.13621   0.00000  Uiso   1.00
O54    O     0.09161   0.16666   0.11793   0.00000  Uiso   1.00
O55    O     0.24172   0.16667   0.21540   0.00000  Uiso   1.00
O56    O     0.06674   0.05716   0.07039   0.00000  Uiso   1.00
S57    S     0.06632   0.04225   0.12051   0.00000  Uiso   1.00
S58    S     0.26751   0.29006   0.21672   0.00000  Uiso   1.00
C59    C     0.49847   0.08736   0.16705   0.00000  Uiso   1.00
C60    C     0.53946   0.02303   0.19560   0.00000  Uiso   1.00
C61    C     0.50363   0.29088   0.16441   0.00000  Uiso   1.00
C62    C     0.49828   0.04258   0.16864   0.00000  Uiso   1.00
C63    C     0.46803   0.14056   0.02141   0.00000  Uiso   1.00
C64    C     0.53202   0.19277   0.31190   0.00000  Uiso   1.00
C65    C     0.46825   0.14038   0.30516   0.00000  Uiso   1.00
C66    C     0.53178   0.19295   0.02817   0.00000  Uiso   1.00
C67    C     0.65831   0.19384   0.10295   0.00000  Uiso   1.00
C68    C     0.34200   0.14278   0.23226   0.00000  Uiso   1.00
C69    C     0.42855   0.28705   0.09868   0.00000  Uiso   1.00
C70    C     0.50180   0.24601   0.16624   0.00000  Uiso   1.00
C71    C     0.57818   0.04850   0.22839   0.00000  Uiso   1.00
C72    C     0.40166   0.16855   0.15488   0.00000  Uiso   1.00
C73    C     0.59839   0.16512   0.17854   0.00000  Uiso   1.00
C74    C     0.34728   0.17327   0.14915   0.00000  Uiso   1.00
C75    C     0.65293   0.16157   0.18490   0.00000  Uiso   1.00
C76    C     0.45878   0.01971   0.14142   0.00000  Uiso   1.00
C77    C     0.54335   0.31363   0.19190   0.00000  Uiso   1.00
C78    C     0.46405   0.31090   0.13577   0.00000  Uiso   1.00
Cu79   Cu    0.50000   0.16667   0.21355   0.00000  Uiso   1.00
Cu80   Cu    0.50000   0.16666   0.11978   0.00000  Uiso   1.00
H81    H     0.44228   0.11989   0.03737   0.00000  Uiso   1.00
H82    H     0.36498   0.16637   0.25415   0.00000  Uiso   1.00
H83    H     0.35265   0.08566   0.14728   0.00000  Uiso   1.00
H84    H     0.56744   0.28816   0.28205   0.00000  Uiso   1.00
H85    H     0.45087   0.27131   0.07483   0.00000  Uiso   1.00
H86    H     0.40462   0.26446   0.11629   0.00000  Uiso   1.00
H87    H     0.40381   0.30640   0.07392   0.00000  Uiso   1.00
H88    H     0.55873   0.06472   0.25412   0.00000  Uiso   1.00
H89    H     0.60668   0.03087   0.25118   0.00000  Uiso   1.00
H90    H     0.59858   0.07101   0.20724   0.00000  Uiso   1.00
H91    H     0.55786   0.21340   0.29588   0.00000  Uiso   1.00
H92    H     0.44316   0.11908   0.28382   0.00000  Uiso   1.00
H93    H     0.55693   0.21422   0.04953   0.00000  Uiso   1.00
H94    H     0.35466   0.20655   0.08219   0.00000  Uiso   1.00
H95    H     0.63507   0.17122   0.07988   0.00000  Uiso   1.00
H96    H     0.63559   0.22019   0.11022   0.00000  Uiso   1.00
H97    H     0.64584   0.13061   0.25356   0.00000  Uiso   1.00
H98    H     0.36506   0.11622   0.22694   0.00000  Uiso   1.00
N99    N     0.50001   0.16668   0.28403   0.00000  Uiso   1.00
N100   N     0.49999   0.16666   0.04931   0.00000  Uiso   1.00
O101   O     0.50000   0.10655   0.20625   0.00000  Uiso   1.00
O102   O     0.35622   0.01137   0.12217   0.00000  Uiso   1.00
O103   O     0.38963   0.08138   0.15449   0.00000  Uiso   1.00
O104   O     0.60546   0.24885   0.19627   0.00000  Uiso   1.00
O105   O     0.64593   0.31635   0.20616   0.00000  Uiso   1.00
O106   O     0.60291   0.28524   0.27581   0.00000  Uiso   1.00
O107   O     0.50000   0.22678   0.12709   0.00000  Uiso   1.00
O108   O     0.50000   0.10654   0.12706   0.00000  Uiso   1.00
O109   O     0.50000   0.22679   0.20628   0.00000  Uiso   1.00
O110   O     0.42495   0.16667   0.19712   0.00000  Uiso   1.00
O111   O     0.57505   0.16666   0.13621   0.00000  Uiso   1.00
O112   O     0.42494   0.16666   0.11793   0.00000  Uiso   1.00
O113   O     0.57506   0.16667   0.21540   0.00000  Uiso   1.00
O114   O     0.40008   0.05716   0.07039   0.00000  Uiso   1.00
S115   S     0.39966   0.04225   0.12051   0.00000  Uiso   1.00
S116   S     0.60084   0.29006   0.21672   0.00000  Uiso   1.00
C117   C     0.83180   0.08736   0.16705   0.00000  Uiso   1.00
C118   C     0.87280   0.02303   0.19560   0.00000  Uiso   1.00
C119   C     0.83696   0.29088   0.16441   0.00000  Uiso   1.00
C120   C     0.83162   0.04258   0.16864   0.00000  Uiso   1.00
C121   C     0.80136   0.14056   0.02141   0.00000  Uiso   1.00
C122   C     0.86536   0.19277   0.31190   0.00000  Uiso   1.00
C123   C     0.80158   0.14038   0.30516   0.00000  Uiso   1.00
C124   C     0.86512   0.19295   0.02817   0.00000  Uiso   1.00
C125   C     0.99165   0.19384   0.10295   0.00000  Uiso   1.00
C126   C     0.67534   0.14278   0.23226   0.00000  Uiso   1.00
C127   C     0.76188   0.28705   0.09868   0.00000  Uiso   1.00
C128   C     0.83514   0.24601   0.16624   0.00000  Uiso   1.00
C129   C     0.91152   0.04850   0.22839   0.00000  Uiso   1.00
C130   C     0.73499   0.16855   0.15488   0.00000  Uiso   1.00
C131   C     0.93172   0.16512   0.17854   0.00000  Uiso   1.00
C132   C     0.68061   0.17327   0.14915   0.00000  Uiso   1.00
C133   C     0.98626   0.16157   0.18490   0.00000  Uiso   1.00
C134   C     0.79212   0.01971   0.14142   0.00000  Uiso   1.00
C135   C     0.87668   0.31363   0.19190   0.00000  Uiso   1.00
C136   C     0.79738   0.31090   0.13577   0.00000  Uiso   1.00
Cu137  Cu    0.83333   0.16667   0.21355   0.00000  Uiso   1.00
Cu138  Cu    0.83333   0.16666   0.11978   0.00000  Uiso   1.00
H139   H     0.77562   0.11989   0.03737   0.00000  Uiso   1.00
H140   H     0.69831   0.16637   0.25415   0.00000  Uiso   1.00
H141   H     0.68599   0.08566   0.14728   0.00000  Uiso   1.00
H142   H     0.90077   0.28816   0.28205   0.00000  Uiso   1.00
H143   H     0.78420   0.27131   0.07483   0.00000  Uiso   1.00
H144   H     0.73796   0.26446   0.11629   0.00000  Uiso   1.00
H145   H     0.73715   0.30640   0.07392   0.00000  Uiso   1.00
H146   H     0.89206   0.06472   0.25412   0.00000  Uiso   1.00
H147   H     0.94001   0.03087   0.25118   0.00000  Uiso   1.00
H148   H     0.93191   0.07101   0.20724   0.00000  Uiso   1.00
H149   H     0.89119   0.21340   0.29588   0.00000  Uiso   1.00
H150   H     0.77649   0.11908   0.28382   0.00000  Uiso   1.00
H151   H     0.89027   0.21422   0.04953   0.00000  Uiso   1.00
H152   H     0.68799   0.20655   0.08219   0.00000  Uiso   1.00
H153   H     0.96840   0.17122   0.07988   0.00000  Uiso   1.00
H154   H     0.96892   0.22019   0.11022   0.00000  Uiso   1.00
H155   H     0.97917   0.13061   0.25356   0.00000  Uiso   1.00
H156   H     0.69839   0.11622   0.22694   0.00000  Uiso   1.00
N157   N     0.83335   0.16668   0.28403   0.00000  Uiso   1.00
N158   N     0.83332   0.16666   0.04931   0.00000  Uiso   1.00
O159   O     0.83333   0.10655   0.20625   0.00000  Uiso   1.00
O160   O     0.68956   0.01137   0.12217   0.00000  Uiso   1.00
O161   O     0.72296   0.08138   0.15449   0.00000  Uiso   1.00
O162   O     0.93879   0.24885   0.19627   0.00000  Uiso   1.00
O163   O     0.97926   0.31635   0.20616   0.00000  Uiso   1.00
O164   O     0.93624   0.28524   0.27581   0.00000  Uiso   1.00
O165   O     0.83334   0.22678   0.12709   0.00000  Uiso   1.00
O166   O     0.83333   0.10654   0.12706   0.00000  Uiso   1.00
O167   O     0.83334   0.22679   0.20628   0.00000  Uiso   1.00
O168   O     0.75828   0.16667   0.19712   0.00000  Uiso   1.00
O169   O     0.90839   0.16666   0.13621   0.00000  Uiso   1.00
O170   O     0.75828   0.16666   0.11793   0.00000  Uiso   1.00
O171   O     0.90839   0.16667   0.21540   0.00000  Uiso   1.00
O172   O     0.73341   0.05716   0.07039   0.00000  Uiso   1.00
S173   S     0.73299   0.04225   0.12051   0.00000  Uiso   1.00
S174   S     0.93417   0.29006   0.21672   0.00000  Uiso   1.00
C175   C     0.16514   0.42069   0.16705   0.00000  Uiso   1.00
C176   C     0.20613   0.35636   0.19560   0.00000  Uiso   1.00
C177   C     0.17029   0.62421   0.16441   0.00000  Uiso   1.00
C178   C     0.16495   0.37591   0.16864   0.00000  Uiso   1.00
C179   C     0.13470   0.47390   0.02141   0.00000  Uiso   1.00
C180   C     0.19869   0.52610   0.31190   0.00000  Uiso   1.00
C181   C     0.13492   0.47371   0.30516   0.00000  Uiso   1.00
C182   C     0.19845   0.52629   0.02817   0.00000  Uiso   1.00
C183   C     0.32498   0.52717   0.10295   0.00000  Uiso   1.00
C184   C     0.00867   0.47612   0.23226   0.00000  Uiso   1.00
C185   C     0.09522   0.62039   0.09868   0.00000  Uiso   1.00
C186   C     0.16847   0.57935   0.16624   0.00000  Uiso   1.00
C187   C     0.24485   0.38184   0.22839   0.00000  Uiso   1.00
C188   C     0.06833   0.50188   0.15488   0.00000  Uiso   1.00
C189   C     0.26505   0.49845   0.17854   0.00000  Uiso   1.00
C190   C     0.01394   0.50661   0.14915   0.00000  Uiso   1.00
C191   C     0.31960   0.49490   0.18490   0.00000  Uiso   1.00
C192   C     0.12545   0.35304   0.14142   0.00000  Uiso   1.00
C193   C     0.21002   0.64696   0.19190   0.00000  Uiso   1.00
C194   C     0.13072   0.64423   0.13577   0.00000  Uiso   1.00
Cu195  Cu    0.16667   0.50001   0.21355   0.00000  Uiso   1.00
Cu196  Cu    0.16667   0.49999   0.11978   0.00000  Uiso   1.00
H197   H     0.10895   0.45322   0.03737   0.00000  Uiso   1.00
H198   H     0.03164   0.49970   0.25415   0.00000  Uiso   1.00
H199   H     0.01932   0.41900   0.14728   0.00000  Uiso   1.00
H200   H     0.23410   0.62149   0.28205   0.00000  Uiso   1.00
H201   H     0.11754   0.60465   0.07483   0.00000  Uiso   1.00
H202   H     0.07129   0.59779   0.11629   0.00000  Uiso   1.00
H203   H     0.07048   0.63974   0.07392   0.00000  Uiso   1.00
H204   H     0.22539   0.39805   0.25412   0.00000  Uiso   1.00
H205   H     0.27334   0.36421   0.25118   0.00000  Uiso   1.00
H206   H     0.26525   0.40435   0.20724   0.00000  Uiso   1.00
H207   H     0.22452   0.54673   0.29588   0.00000  Uiso   1.00
H208   H     0.10982   0.45241   0.28382   0.00000  Uiso   1.00
H209   H     0.22360   0.54756   0.04953   0.00000  Uiso   1.00
H210   H     0.02133   0.53988   0.08219   0.00000  Uiso   1.00
H211   H     0.30173   0.50455   0.07988   0.00000  Uiso   1.00
H212   H     0.30226   0.55352   0.11022   0.00000  Uiso   1.00
H213   H     0.31251   0.46395   0.25356   0.00000  Uiso   1.00
H214   H     0.03173   0.44956   0.22694   0.00000  Uiso   1.00
N215   N     0.16668   0.50001   0.28403   0.00000  Uiso   1.00
N216   N     0.16665   0.49999   0.04931   0.00000  Uiso   1.00
O217   O     0.16666   0.43989   0.20625   0.00000  Uiso   1.00
O218   O     0.02289   0.34470   0.12217   0.00000  Uiso   1.00
O219   O     0.05629   0.41471   0.15449   0.00000  Uiso   1.00
O220   O     0.27213   0.58219   0.19627   0.00000  Uiso   1.00
O221   O     0.31259   0.64969   0.20616   0.00000  Uiso   1.00
O222   O     0.26957   0.61858   0.27581   0.00000  Uiso   1.00
O223   O     0.16667   0.56011   0.12709   0.00000  Uiso   1.00
O224   O     0.16666   0.43988   0.12706   0.00000  Uiso   1.00
O225   O     0.16667   0.56012   0.20628   0.00000  Uiso   1.00
O226   O     0.09161   0.50000   0.19712   0.00000  Uiso   1.00
O227   O     0.24172   0.50000   0.13621   0.00000  Uiso   1.00
O228   O     0.09161   0.49999   0.11793   0.00000  Uiso   1.00
O229   O     0.24172   0.50001   0.21540   0.00000  Uiso   1.00
O230   O     0.06674   0.39050   0.07039   0.00000  Uiso   1.00
S231   S     0.06632   0.37558   0.12051   0.00000  Uiso   1.00
S232   S     0.26751   0.62340   0.21672   0.00000  Uiso   1.00
C233   C     0.49847   0.42069   0.16705   0.00000  Uiso   1.00
C234   C     0.53946   0.35636   0.19560   0.00000  Uiso   1.00
C235   C     0.50363   0.62421   0.16441   0.00000  Uiso   1.00
C236   C     0.49828   0.37591   0.16864   0.00000  Uiso   1.00
C237   C     0.46803   0.47390   0.02141   0.00000  Uiso   1.00
C238   C     0.53202   0.52610   0.31190   0.00000  Uiso   1.00
C239   C     0.46825   0.47371   0.30516   0.00000  Uiso   1.00
C240   C     0.53178   0.52629   0.02817   0.00000  Uiso   1.00
C241   C     0.65831   0.52717   0.10295   0.00000  Uiso   1.00
C242   C     0.34200   0.47612   0.23226   0.00000  Uiso   1.00
C243   C     0.42855   0.62039   0.09868   0.00000  Uiso   1.00
C244   C     0.50180   0.57935   0.16624   0.00000  Uiso   1.00
C245   C     0.57818   0.38184   0.22839   0.00000  Uiso   1.00
C246   C     0.40166   0.50188   0.15488   0.00000  Uiso   1.00
C247   C     0.59839   0.49845   0.17854   0.00000  Uiso   1.00
C248   C     0.34728   0.50661   0.14915   0.00000  Uiso   1.00
C249   C     0.65293   0.49490   0.18490   0.00000  Uiso   1.00
C250   C     0.45878   0.35304   0.14142   0.00000  Uiso   1.00
C251   C     0.54335   0.64696   0.19190   0.00000  Uiso   1.00
C252   C     0.46405   0.64423   0.13577   0.00000  Uiso   1.00
Cu253  Cu    0.50000   0.50001   0.21355   0.00000  Uiso   1.00
Cu254  Cu    0.50000   0.49999   0.11978   0.00000  Uiso   1.00
H255   H     0.44228   0.45322   0.03737   0.00000  Uiso   1.00
H256   H     0.36498   0.49970   0.25415   0.00000  Uiso   1.00
H257   H     0.35265   0.41900   0.14728   0.00000  Uiso   1.00
H258   H     0.56744   0.62149   0.28205   0.00000  Uiso   1.00
H259   H     0.45087   0.60465   0.07483   0.00000  Uiso   1.00
H260   H     0.40462   0.59779   0.11629   0.00000  Uiso   1.00
H261   H     0.40381   0.63974   0.07392   0.00000  Uiso   1.00
H262   H     0.55873   0.39805   0.25412   0.00000  Uiso   1.00
H263   H     0.60668   0.36421   0.25118   0.00000  Uiso   1.00
H264   H     0.59858   0.40435   0.20724   0.00000  Uiso   1.00
H265   H     0.55786   0.54673   0.29588   0.00000  Uiso   1.00
H266   H     0.44316   0.45241   0.28382   0.00000  Uiso   1.00
H267   H     0.55693   0.54756   0.04953   0.00000  Uiso   1.00
H268   H     0.35466   0.53988   0.08219   0.00000  Uiso   1.00
H269   H     0.63507   0.50455   0.07988   0.00000  Uiso   1.00
H270   H     0.63559   0.55352   0.11022   0.00000  Uiso   1.00
H271   H     0.64584   0.46395   0.25356   0.00000  Uiso   1.00
H272   H     0.36506   0.44956   0.22694   0.00000  Uiso   1.00
N273   N     0.50001   0.50001   0.28403   0.00000  Uiso   1.00
N274   N     0.49999   0.49999   0.04931   0.00000  Uiso   1.00
O275   O     0.50000   0.43989   0.20625   0.00000  Uiso   1.00
O276   O     0.35622   0.34470   0.12217   0.00000  Uiso   1.00
O277   O     0.38963   0.41471   0.15449   0.00000  Uiso   1.00
O278   O     0.60546   0.58219   0.19627   0.00000  Uiso   1.00
O279   O     0.64593   0.64969   0.20616   0.00000  Uiso   1.00
O280   O     0.60291   0.61858   0.27581   0.00000  Uiso   1.00
O281   O     0.50000   0.56011   0.12709   0.00000  Uiso   1.00
O282   O     0.50000   0.43988   0.12706   0.00000  Uiso   1.00
O283   O     0.50000   0.56012   0.20628   0.00000  Uiso   1.00
O284   O     0.42495   0.50000   0.19712   0.00000  Uiso   1.00
O285   O     0.57505   0.50000   0.13621   0.00000  Uiso   1.00
O286   O     0.42494   0.49999   0.11793   0.00000  Uiso   1.00
O287   O     0.57506   0.50001   0.21540   0.00000  Uiso   1.00
O288   O     0.40008   0.39050   0.07039   0.00000  Uiso   1.00
S289   S     0.39966   0.37558   0.12051   0.00000  Uiso   1.00
S290   S     0.60084   0.62340   0.21672   0.00000  Uiso   1.00
C291   C     0.83180   0.42069   0.16705   0.00000  Uiso   1.00
C292   C     0.87280   0.35636   0.19560   0.00000  Uiso   1.00
C293   C     0.83696   0.62421   0.16441   0.00000  Uiso   1.00
C294   C     0.83162   0.37591   0.16864   0.00000  Uiso   1.00
C295   C     0.80136   0.47390   0.02141   0.00000  Uiso   1.00
C296   C     0.86536   0.52610   0.31190   0.00000  Uiso   1.00
C297   C     0.80158   0.47371   0.30516   0.00000  Uiso   1.00
C298   C     0.86512   0.52629   0.02817   0.00000  Uiso   1.00
C299   C     0.99165   0.52717   0.10295   0.00000  Uiso   1.00
C300   C     0.67534   0.47612   0.23226   0.00000  Uiso   1.00
C301   C     0.76188   0.62039   0.09868   0.00000  Uiso   1.00
C302   C     0.83514   0.57935   0.16624   0.00000  Uiso   1.00
C303   C     0.91152   0.38184   0.22839   0.00000  Uiso   1.00
C304   C     0.73499   0.50188   0.15488   0.00000  Uiso   1.00
C305   C     0.93172   0.49845   0.17854   0.00000  Uiso   1.00
C306   C     0.68061   0.50661   0.14915   0.00000  Uiso   1.00
C307   C     0.98626   0.49490   0.18490   0.00000  Uiso   1.00
C308   C     0.79212   0.35304   0.14142   0.00000  Uiso   1.00
C309   C     0.87668   0.64696   0.19190   0.00000  Uiso   1.00
C310   C     0.79738   0.64423   0.13577   0.00000  Uiso   1.00
Cu311  Cu    0.83333   0.50001   0.21355   0.00000  Uiso   1.00
Cu312  Cu    0.83333   0.49999   0.11978   0.00000  Uiso   1.00
H313   H     0.77562   0.45322   0.03737   0.00000  Uiso   1.00
H314   H     0.69831   0.49970   0.25415   0.00000  Uiso   1.00
H315   H     0.68599   0.41900   0.14728   0.00000  Uiso   1.00
H316   H     0.90077   0.62149   0.28205   0.00000  Uiso   1.00
H317   H     0.78420   0.60465   0.07483   0.00000  Uiso   1.00
H318   H     0.73796   0.59779   0.11629   0.00000  Uiso   1.00
H319   H     0.73715   0.63974   0.07392   0.00000  Uiso   1.00
H320   H     0.89206   0.39805   0.25412   0.00000  Uiso   1.00
H321   H     0.94001   0.36421   0.25118   0.00000  Uiso   1.00
H322   H     0.93191   0.40435   0.20724   0.00000  Uiso   1.00
H323   H     0.89119   0.54673   0.29588   0.00000  Uiso   1.00
H324   H     0.77649   0.45241   0.28382   0.00000  Uiso   1.00
H325   H     0.89027   0.54756   0.04953   0.00000  Uiso   1.00
H326   H     0.68799   0.53988   0.08219   0.00000  Uiso   1.00
H327   H     0.96840   0.50455   0.07988   0.00000  Uiso   1.00
H328   H     0.96892   0.55352   0.11022   0.00000  Uiso   1.00
H329   H     0.97917   0.46395   0.25356   0.00000  Uiso   1.00
H330   H     0.69839   0.44956   0.22694   0.00000  Uiso   1.00
N331   N     0.83335   0.50001   0.28403   0.00000  Uiso   1.00
N332   N     0.83332   0.49999   0.04931   0.00000  Uiso   1.00
O333   O     0.83333   0.43989   0.20625   0.00000  Uiso   1.00
O334   O     0.68956   0.34470   0.12217   0.00000  Uiso   1.00
O335   O     0.72296   0.41471   0.15449   0.00000  Uiso   1.00
O336   O     0.93879   0.58219   0.19627   0.00000  Uiso   1.00
O337   O     0.97926   0.64969   0.20616   0.00000  Uiso   1.00
O338   O     0.93624   0.61858   0.27581   0.00000  Uiso   1.00
O339   O     0.83334   0.56011   0.12709   0.00000  Uiso   1.00
O340   O     0.83333   0.43988   0.12706   0.00000  Uiso   1.00
O341   O     0.83334   0.56012   0.20628   0.00000  Uiso   1.00
O342   O     0.75828   0.50000   0.19712   0.00000  Uiso   1.00
O343   O     0.90839   0.50000   0.13621   0.00000  Uiso   1.00
O344   O     0.75828   0.49999   0.11793   0.00000  Uiso   1.00
O345   O     0.90839   0.50001   0.21540   0.00000  Uiso   1.00
O346   O     0.73341   0.39050   0.07039   0.00000  Uiso   1.00
S347   S     0.73299   0.37558   0.12051   0.00000  Uiso   1.00
S348   S     0.93417   0.62340   0.21672   0.00000  Uiso   1.00
C349   C     0.16514   0.75402   0.16705   0.00000  Uiso   1.00
C350   C     0.20613   0.68969   0.19560   0.00000  Uiso   1.00
C351   C     0.17029   0.95754   0.16441   0.00000  Uiso   1.00
C352   C     0.16495   0.70925   0.16864   0.00000  Uiso   1.00
C353   C     0.13470   0.80723   0.02141   0.00000  Uiso   1.00
C354   C     0.19869   0.85943   0.31190   0.00000  Uiso   1.00
C355   C     0.13492   0.80705   0.30516   0.00000  Uiso   1.00
C356   C     0.19845   0.85962   0.02817   0.00000  Uiso   1.00
C357   C     0.32498   0.86050   0.10295   0.00000  Uiso   1.00
C358   C     0.00867   0.80945   0.23226   0.00000  Uiso   1.00
C359   C     0.09522   0.95372   0.09868   0.00000  Uiso   1.00
C360   C     0.16847   0.91268   0.16624   0.00000  Uiso   1.00
C361   C     0.24485   0.71517   0.22839   0.00000  Uiso   1.00
C362   C     0.06833   0.83522   0.15488   0.00000  Uiso   1.00
C363   C     0.26505   0.83178   0.17854   0.00000  Uiso   1.00
C364   C     0.01394   0.83994   0.14915   0.00000  Uiso   1.00
C365   C     0.31960   0.82823   0.18490   0.00000  Uiso   1.00
C366   C     0.12545   0.68637   0.14142   0.00000  Uiso   1.00
C367   C     0.21002   0.98029   0.19190   0.00000  Uiso   1.00
C368   C     0.13072   0.97757   0.13577   0.00000  Uiso   1.00
Cu369  Cu    0.16667   0.83334   0.21355   0.00000  Uiso   1.00
Cu370  Cu    0.16667   0.83333   0.11978   0.00000  Uiso   1.00
H371   H     0.10895   0.78656   0.03737   0.00000  Uiso   1.00
H372   H     0.03164   0.83303   0.25415   0.00000  Uiso   1.00
H373   H     0.01932   0.75233   0.14728   0.00000  Uiso   1.00
H374   H     0.23410   0.95483   0.28205   0.00000  Uiso   1.00
H375   H     0.11754   0.93798   0.07483   0.00000  Uiso   1.00
H376   H     0.07129   0.93112   0.11629   0.00000  Uiso   1.00
H377   H     0.07048   0.97307   0.07392   0.00000  Uiso   1.00
H378   H     0.22539   0.73139   0.25412   0.00000  Uiso   1.00
H379   H     0.27334   0.69754   0.25118   0.00000  Uiso   1.00
H380   H     0.26525   0.73768   0.20724   0.00000  Uiso   1.00
H381   H     0.22452   0.88007   0.29588   0.00000  Uiso   1.00
H382   H     0.10982   0.78574   0.28382   0.00000  Uiso   1.00
H383   H     0.22360   0.88089   0.04953   0.00000  Uiso   1.00
H384   H     0.02133   0.87322   0.08219   0.00000  Uiso   1.00
H385   H     0.30173   0.83789   0.07988   0.00000  Uiso   1.00
H386   H     0.30226   0.88686   0.11022   0.00000  Uiso   1.00
H387   H     0.31251   0.79728   0.25356   0.00000  Uiso   1.00
H388   H     0.03173   0.78289   0.22694   0.00000  Uiso   1.00
N389   N     0.16668   0.83334   0.28403   0.00000  Uiso   1.00
N390   N     0.16665   0.83332   0.04931   0.00000  Uiso   1.00
O391   O     0.16666   0.77322   0.20625   0.00000  Uiso   1.00
O392   O     0.02289   0.67804   0.12217   0.00000  Uiso   1.00
O393   O     0.05629   0.74805   0.15449   0.00000  Uiso   1.00
O394   O     0.27213   0.91552   0.19627   0.00000  Uiso   1.00
O395   O     0.31259   0.98302   0.20616   0.00000  Uiso   1.00
O396   O     0.26957   0.95191   0.27581   0.00000  Uiso   1.00
O397   O     0.16667   0.89345   0.12709   0.00000  Uiso   1.00
O398   O     0.16666   0.77321   0.12706   0.00000  Uiso   1.00
O399   O     0.16667   0.89346   0.20628   0.00000  Uiso   1.00
O400   O     0.09161   0.83334   0.19712   0.00000  Uiso   1.00
O401   O     0.24172   0.83333   0.13621   0.00000  Uiso   1.00
O402   O     0.09161   0.83333   0.11793   0.00000  Uiso   1.00
O403   O     0.24172   0.83334   0.21540   0.00000  Uiso   1.00
O404   O     0.06674   0.72383   0.07039   0.00000  Uiso   1.00
S405   S     0.06632   0.70892   0.12051   0.00000  Uiso   1.00
S406   S     0.26751   0.95673   0.21672   0.00000  Uiso   1.00
C407   C     0.49847   0.75402   0.16705   0.00000  Uiso   1.00
C408   C     0.53946   0.68969   0.19560   0.00000  Uiso   1.00
C409   C     0.50363   0.95754   0.16441   0.00000  Uiso   1.00
C410   C     0.49828   0.70925   0.16864   0.00000  Uiso   1.00
C411   C     0.46803   0.80723   0.02141   0.00000  Uiso   1.00
C412   C     0.53202   0.85943   0.31190   0.00000  Uiso   1.00
C413   C     0.46825   0.80705   0.30516   0.00000  Uiso   1.00
C414   C     0.53178   0.85962   0.02817   0.00000  Uiso   1.00
C415   C     0.65831   0.86050   0.10295   0.00000  Uiso   1.00
C416   C     0.34200   0.80945   0.23226   0.00000  Uiso   1.00
C417   C     0.42855   0.95372   0.09868   0.00000  Uiso   1.00
C418   C     0.50180   0.91268   0.16624   0.00000  Uiso   1.00
C419   C     0.57818   0.71517   0.22839   0.00000  Uiso   1.00
C420   C     0.40166   0.83522   0.15488   0.00000  Uiso   1.00
C421   C     0.59839   0.83178   0.17854   0.00000  Uiso   1.00
C422   C     0.34728   0.83994   0.14915   0.00000  Uiso   1.00
C423   C     0.65293   0.82823   0.18490   0.00000  Uiso   1.00
C424   C     0.45878   0.68637   0.14142   0.00000  Uiso   1.00
C425   C     0.54335   0.98029   0.19190   0.00000  Uiso   1.00
C426   C     0.46405   0.97757   0.13577   0.00000  Uiso   1.00
Cu427  Cu    0.50000   0.83334   0.21355   0.00000  Uiso   1.00
Cu428  Cu    0.50000   0.83333   0.11978   0.00000  Uiso   1.00
H429   H     0.44228   0.78656   0.03737   0.00000  Uiso   1.00
H430   H     0.36498   0.83303   0.25415   0.00000  Uiso   1.00
H431   H     0.35265   0.75233   0.14728   0.00000  Uiso   1.00
H432   H     0.56744   0.95483   0.28205   0.00000  Uiso   1.00
H433   H     0.45087   0.93798   0.07483   0.00000  Uiso   1.00
H434   H     0.40462   0.93112   0.11629   0.00000  Uiso   1.00
H435   H     0.40381   0.97307   0.07392   0.00000  Uiso   1.00
H436   H     0.55873   0.73139   0.25412   0.00000  Uiso   1.00
H437   H     0.60668   0.69754   0.25118   0.00000  Uiso   1.00
H438   H     0.59858   0.73768   0.20724   0.00000  Uiso   1.00
H439   H     0.55786   0.88007   0.29588   0.00000  Uiso   1.00
H440   H     0.44316   0.78574   0.28382   0.00000  Uiso   1.00
H441   H     0.55693   0.88089   0.04953   0.00000  Uiso   1.00
H442   H     0.35466   0.87322   0.08219   0.00000  Uiso   1.00
H443   H     0.63507   0.83789   0.07988   0.00000  Uiso   1.00
H444   H     0.63559   0.88686   0.11022   0.00000  Uiso   1.00
H445   H     0.64584   0.79728   0.25356   0.00000  Uiso   1.00
H446   H     0.36506   0.78289   0.22694   0.00000  Uiso   1.00
N447   N     0.50001   0.83334   0.28403   0.00000  Uiso   1.00
N448   N     0.49999   0.83332   0.04931   0.00000  Uiso   1.00
O449   O     0.50000   0.77322   0.20625   0.00000  Uiso   1.00
O450   O     0.35622   0.67804   0.12217   0.00000  Uiso   1.00
O451   O     0.38963   0.74805   0.15449   0.00000  Uiso   1.00
O452   O     0.60546   0.91552   0.19627   0.00000  Uiso   1.00
O453   O     0.64593   0.98302   0.20616   0.00000  Uiso   1.00
O454   O     0.60291   0.95191   0.27581   0.00000  Uiso   1.00
O455   O     0.50000   0.89345   0.12709   0.00000  Uiso   1.00
O456   O     0.50000   0.77321   0.12706   0.00000  Uiso   1.00
O457   O     0.50000   0.89346   0.20628   0.00000  Uiso   1.00
O458   O     0.42495   0.83334   0.19712   0.00000  Uiso   1.00
O459   O     0.57505   0.83333   0.13621   0.00000  Uiso   1.00
O460   O     0.42494   0.83333   0.11793   0.00000  Uiso   1.00
O461   O     0.57506   0.83334   0.21540   0.00000  Uiso   1.00
O462   O     0.40008   0.72383   0.07039   0.00000  Uiso   1.00
S463   S     0.39966   0.70892   0.12051   0.00000  Uiso   1.00
S464   S     0.60084   0.95673   0.21672   0.00000  Uiso   1.00
C465   C     0.83180   0.75402   0.16705   0.00000  Uiso   1.00
C466   C     0.87280   0.68969   0.19560   0.00000  Uiso   1.00
C467   C     0.83696   0.95754   0.16441   0.00000  Uiso   1.00
C468   C     0.83162   0.70925   0.16864   0.00000  Uiso   1.00
C469   C     0.80136   0.80723   0.02141   0.00000  Uiso   1.00
C470   C     0.86536   0.85943   0.31190   0.00000  Uiso   1.00
C471   C     0.80158   0.80705   0.30516   0.00000  Uiso   1.00
C472   C     0.86512   0.85962   0.02817   0.00000  Uiso   1.00
C473   C     0.99165   0.86050   0.10295   0.00000  Uiso   1.00
C474   C     0.67534   0.80945   0.23226   0.00000  Uiso   1.00
C475   C     0.76188   0.95372   0.09868   0.00000  Uiso   1.00
C476   C     0.83514   0.91268   0.16624   0.00000  Uiso   1.00
C477   C     0.91152   0.71517   0.22839   0.00000  Uiso   1.00
C478   C     0.73499   0.83522   0.15488   0.00000  Uiso   1.00
C479   C     0.93172   0.83178   0.17854   0.00000  Uiso   1.00
C480   C     0.68061   0.83994   0.14915   0.00000  Uiso   1.00
C481   C     0.98626   0.82823   0.18490   0.00000  Uiso   1.00
C482   C     0.79212   0.68637   0.14142   0.00000  Uiso   1.00
C483   C     0.87668   0.98029   0.19190   0.00000  Uiso   1.00
C484   C     0.79738   0.97757   0.13577   0.00000  Uiso   1.00
Cu485  Cu    0.83333   0.83334   0.21355   0.00000  Uiso   1.00
Cu486  Cu    0.83333   0.83333   0.11978   0.00000  Uiso   1.00
H487   H     0.77562   0.78656   0.03737   0.00000  Uiso   1.00
H488   H     0.69831   0.83303   0.25415   0.00000  Uiso   1.00
H489   H     0.68599   0.75233   0.14728   0.00000  Uiso   1.00
H490   H     0.90077   0.95483   0.28205   0.00000  Uiso   1.00
H491   H     0.78420   0.93798   0.07483   0.00000  Uiso   1.00
H492   H     0.73796   0.93112   0.11629   0.00000  Uiso   1.00
H493   H     0.73715   0.97307   0.07392   0.00000  Uiso   1.00
H494   H     0.89206   0.73139   0.25412   0.00000  Uiso   1.00
H495   H     0.94001   0.69754   0.25118   0.00000  Uiso   1.00
H496   H     0.93191   0.73768   0.20724   0.00000  Uiso   1.00
H497   H     0.89119   0.88007   0.29588   0.00000  Uiso   1.00
H498   H     0.77649   0.78574   0.28382   0.00000  Uiso   1.00
H499   H     0.89027   0.88089   0.04953   0.00000  Uiso   1.00
H500   H     0.68799   0.87322   0.08219   0.00000  Uiso   1.00
H501   H     0.96840   0.83789   0.07988   0.00000  Uiso   1.00
H502   H     0.96892   0.88686   0.11022   0.00000  Uiso   1.00
H503   H     0.97917   0.79728   0.25356   0.00000  Uiso   1.00
H504   H     0.69839   0.78289   0.22694   0.00000  Uiso   1.00
N505   N     0.83335   0.83334   0.28403   0.00000  Uiso   1.00
N506   N     0.83332   0.83332   0.04931   0.00000  Uiso   1.00
O507   O     0.83333   0.77322   0.20625   0.00000  Uiso   1.00
O508   O     0.68956   0.67804   0.12217   0.00000  Uiso   1.00
O509   O     0.72296   0.74805   0.15449   0.00000  Uiso   1.00
O510   O     0.93879   0.91552   0.19627   0.00000  Uiso   1.00
O511   O     0.97926   0.98302   0.20616   0.00000  Uiso   1.00
O512   O     0.93624   0.95191   0.27581   0.00000  Uiso   1.00
O513   O     0.83334   0.89345   0.12709   0.00000  Uiso   1.00
O514   O     0.83333   0.77321   0.12706   0.00000  Uiso   1.00
O515   O     0.83334   0.89346   0.20628   0.00000  Uiso   1.00
O516   O     0.75828   0.83334   0.19712   0.00000  Uiso   1.00
O517   O     0.90839   0.83333   0.13621   0.00000  Uiso   1.00
O518   O     0.75828   0.83333   0.11793   0.00000  Uiso   1.00
O519   O     0.90839   0.83334   0.21540   0.00000  Uiso   1.00
O520   O     0.73341   0.72383   0.07039   0.00000  Uiso   1.00
S521   S     0.73299   0.70892   0.12051   0.00000  Uiso   1.00
S522   S     0.93417   0.95673   0.21672   0.00000  Uiso   1.00
C523   C     0.16514   0.08736   0.50038   0.00000  Uiso   1.00
C524   C     0.20613   0.02303   0.52893   0.00000  Uiso   1.00
C525   C     0.17029   0.29088   0.49775   0.00000  Uiso   1.00
C526   C     0.16495   0.04258   0.50197   0.00000  Uiso   1.00
C527   C     0.13470   0.14056   0.35474   0.00000  Uiso   1.00
C528   C     0.19869   0.19277   0.64524   0.00000  Uiso   1.00
C529   C     0.13492   0.14038   0.63849   0.00000  Uiso   1.00
C530   C     0.19845   0.19295   0.36150   0.00000  Uiso   1.00
C531   C     0.32498   0.19384   0.43628   0.00000  Uiso   1.00
C532   C     0.00867   0.14278   0.56560   0.00000  Uiso   1.00
C533   C     0.09522   0.28705   0.43202   0.00000  Uiso   1.00
C534   C     0.16847   0.24601   0.49958   0.00000  Uiso   1.00
C535   C     0.24485   0.04850   0.56172   0.00000  Uiso   1.00
C536   C     0.06833   0.16855   0.48821   0.00000  Uiso   1.00
C537   C     0.26505   0.16512   0.51188   0.00000  Uiso   1.00
C538   C     0.01394   0.17327   0.48248   0.00000  Uiso   1.00
C539   C     0.31960   0.16157   0.51823   0.00000  Uiso   1.00
C540   C     0.12545   0.01971   0.47476   0.00000  Uiso   1.00
C541   C     0.21002   0.31363   0.52523   0.00000  Uiso   1.00
C542   C     0.13072   0.31090   0.46910   0.00000  Uiso   1.00
Cu543  Cu    0.16667   0.16667   0.54689   0.00000  Uiso   1.00
Cu544  Cu    0.16667   0.16666   0.45311   0.00000  Uiso   1.00
H545   H     0.10895   0.11989   0.37070   0.00000  Uiso   1.00
H546   H     0.03164   0.16637   0.58748   0.00000  Uiso   1.00
H547   H     0.01932   0.08566   0.48061   0.00000  Uiso   1.00
H548   H     0.23410   0.28816   0.61539   0.00000  Uiso   1.00
H549   H     0.11754   0.27131   0.40816   0.00000  Uiso   1.00
H550   H     0.07129   0.26446   0.44963   0.00000  Uiso   1.00
H551   H     0.07048   0.30640   0.40725   0.00000  Uiso   1.00
H552   H     0.22539   0.06472   0.58745   0.00000  Uiso   1.00
H553   H     0.27334   0.03087   0.58451   0.00000  Uiso   1.00
H554   H     0.26525   0.07101   0.54058   0.00000  Uiso   1.00
H555   H     0.22452   0.21340   0.62921   0.00000  Uiso   1.00
H556   H     0.10982   0.11908   0.61715   0.00000  Uiso   1.00
H557   H     0.22360   0.21422   0.38286   0.00000  Uiso   1.00
H558   H     0.02133   0.20655   0.41553   0.00000  Uiso   1.00
H559   H     0.30173   0.17122   0.41321   0.00000  Uiso   1.00
H560   H     0.30226   0.22019   0.44356   0.00000  Uiso   1.00
H561   H     0.31251   0.13061   0.58690   0.00000  Uiso   1.00
H562   H     0.03173   0.11622   0.56027   0.00000  Uiso   1.00
N563   N     0.16668   0.16668   0.61736   0.00000  Uiso   1.00
N564   N     0.16665   0.16666   0.38264   0.00000  Uiso   1.00
O565   O     0.16666   0.10655   0.53958   0.00000  Uiso   1.00
O566   O     0.02289   0.01137   0.45550   0.00000  Uiso   1.00
O567   O     0.05629   0.08138   0.48782   0.00000  Uiso   1.00
O568   O     0.27213   0.24885   0.52961   0.00000  Uiso   1.00
O569   O     0.31259   0.31635   0.53949   0.00000  Uiso   1.00
O570   O     0.26957   0.28524   0.60914   0.00000  Uiso   1.00
O571   O     0.16667   0.22678   0.46042   0.00000  Uiso   1.00
O572   O     0.16666   0.10654   0.46039   0.00000  Uiso   1.00
O573   O     0.16667   0.22679   0.53961   0.00000  Uiso   1.00
O574   O     0.09161   0.16667   0.53046   0.00000  Uiso   1.00
O575   O     0.24172   0.16666   0.46954   0.00000  Uiso   1.00
O576   O     0.09161   0.16666   0.45127   0.00000  Uiso   1.00
O577   O     0.24172   0.16667   0.54873   0.00000  Uiso   1.00
O578   O     0.06674   0.05716   0.40372   0.00000  Uiso   1.00
S579   S     0.06632   0.04225   0.45384   0.00000  Uiso   1.00
S580   S     0.26751   0.29006   0.55005   0.00000  Uiso   1.00
C581   C     0.49847   0.08736   0.50038   0.00000  Uiso   1.00
C582   C     0.53946   0.02303   0.52893   0.00000  Uiso   1.00
C583   C     0.50363   0.29088   0.49775   0.00000  Uiso   1.00
C584   C     0.49828   0.04258   0.50197   0.00000  Uiso   1.00
C585   C     0.46803   0.14056   0.35474   0.00000  Uiso   1.00
C586   C     0.53202   0.19277   0.64524   0.00000  Uiso   1.00
C587   C     0.46825   0.14038   0.63849   0.00000  Uiso   1.00
C588   C     0.53178   0.19295   0.36150   0.00000  Uiso   1.00
C589   C     0.65831   0.19384   0.43628   0.00000  Uiso   1.00
C590   C     0.34200   0.14278   0.56560   0.00000  Uiso   1.00
C591   C     0.42855   0.28705   0.43202   0.00000  Uiso   1.00
C592   C     0.50180   0.24601   0.49958   0.00000  Uiso   1.00
C593   C     0.57818   0.04850   0.56172   0.00000  Uiso   1.00
C594   C     0.40166   0.16855   0.48821   0.00000  Uiso   1.00
C595   C     0.59839   0.16512   0.51188   0.00000  Uiso   1.00
C596   C     0.34728   0.17327   0.48248   0.00000  Uiso   1.00
C597   C     0.65293   0.16157   0.51823   0.00000  Uiso   1.00
C598   C     0.45878   0.01971   0.47476   0.00000  Uiso   1.00
C599   C     0.54335   0.31363   0.52523   0.00000  Uiso   1.00
C600   C     0.46405   0.31090   0.46910   0.00000  Uiso   1.00
Cu601  Cu    0.50000   0.16667   0.54689   0.00000  Uiso   1.00
Cu602  Cu    0.50000   0.16666   0.45311   0.00000  Uiso   1.00
H603   H     0.44228   0.11989   0.37070   0.00000  Uiso   1.00
H604   H     0.36498   0.16637   0.58748   0.00000  Uiso   1.00
H605   H     0.35265   0.08566   0.48061   0.00000  Uiso   1.00
H606   H     0.56744   0.28816   0.61539   0.00000  Uiso   1.00
H607   H     0.45087   0.27131   0.40816   0.00000  Uiso   1.00
H608   H     0.40462   0.26446   0.44963   0.00000  Uiso   1.00
H609   H     0.40381   0.30640   0.40725   0.00000  Uiso   1.00
H610   H     0.55873   0.06472   0.58745   0.00000  Uiso   1.00
H611   H     0.60668   0.03087   0.58451   0.00000  Uiso   1.00
H612   H     0.59858   0.07101   0.54058   0.00000  Uiso   1.00
H613   H     0.55786   0.21340   0.62921   0.00000  Uiso   1.00
H614   H     0.44316   0.11908   0.61715   0.00000  Uiso   1.00
H615   H     0.55693   0.21422   0.38286   0.00000  Uiso   1.00
H616   H     0.35466   0.20655   0.41553   0.00000  Uiso   1.00
H617   H     0.63507   0.17122   0.41321   0.00000  Uiso   1.00
H618   H     0.63559   0.22019   0.44356   0.00000  Uiso   1.00
H619   H     0.64584   0.13061   0.58690   0.00000  Uiso   1.00
H620   H     0.36506   0.11622   0.56027   0.00000  Uiso   1.00
N621   N     0.50001   0.16668   0.61736   0.00000  Uiso   1.00
N622   N     0.49999   0.16666   0.38264   0.00000  Uiso   1.00
O623   O     0.50000   0.10655   0.53958   0.00000  Uiso   1.00
O624   O     0.35622   0.01137   0.45550   0.00000  Uiso   1.00
O625   O     0.38963   0.08138   0.48782   0.00000  Uiso   1.00
O626   O     0.60546   0.24885   0.52961   0.00000  Uiso   1.00
O627   O     0.64593   0.31635   0.53949   0.00000  Uiso   1.00
O628   O     0.60291   0.28524   0.60914   0.00000  Uiso   1.00
O629   O     0.50000   0.22678   0.46042   0.00000  Uiso   1.00
O630   O     0.50000   0.10654   0.46039   0.00000  Uiso   1.00
O631   O     0.50000   0.22679   0.53961   0.00000  Uiso   1.00
O632   O     0.42495   0.16667   0.53046   0.00000  Uiso   1.00
O633   O     0.57505   0.16666   0.46954   0.00000  Uiso   1.00
O634   O     0.42494   0.16666   0.45127   0.00000  Uiso   1.00
O635   O     0.57506   0.16667   0.54873   0.00000  Uiso   1.00
O636   O     0.40008   0.05716   0.40372   0.00000  Uiso   1.00
S637   S     0.39966   0.04225   0.45384   0.00000  Uiso   1.00
S638   S     0.60084   0.29006   0.55005   0.00000  Uiso   1.00
C639   C     0.83180   0.08736   0.50038   0.00000  Uiso   1.00
C640   C     0.87280   0.02303   0.52893   0.00000  Uiso   1.00
C641   C     0.83696   0.29088   0.49775   0.00000  Uiso   1.00
C642   C     0.83162   0.04258   0.50197   0.00000  Uiso   1.00
C643   C     0.80136   0.14056   0.35474   0.00000  Uiso   1.00
C644   C     0.86536   0.19277   0.64524   0.00000  Uiso   1.00
C645   C     0.80158   0.14038   0.63849   0.00000  Uiso   1.00
C646   C     0.86512   0.19295   0.36150   0.00000  Uiso   1.00
C647   C     0.99165   0.19384   0.43628   0.00000  Uiso   1.00
C648   C     0.67534   0.14278   0.56560   0.00000  Uiso   1.00
C649   C     0.76188   0.28705   0.43202   0.00000  Uiso   1.00
C650   C     0.83514   0.24601   0.49958   0.00000  Uiso   1.00
C651   C     0.91152   0.04850   0.56172   0.00000  Uiso   1.00
C652   C     0.73499   0.16855   0.48821   0.00000  Uiso   1.00
C653   C     0.93172   0.16512   0.51188   0.00000  Uiso   1.00
C654   C     0.68061   0.17327   0.48248   0.00000  Uiso   1.00
C655   C     0.98626   0.16157   0.51823   0.00000  Uiso   1.00
C656   C     0.79212   0.01971   0.47476   0.00000  Uiso   1.00
C657   C     0.87668   0.31363   0.52523   0.00000  Uiso   1.00
C658   C     0.79738   0.31090   0.46910   0.00000  Uiso   1.00
Cu659  Cu    0.83333   0.16667   0.54689   0.00000  Uiso   1.00
Cu660  Cu    0.83333   0.16666   0.45311   0.00000  Uiso   1.00
H661   H     0.77562   0.11989   0.37070   0.00000  Uiso   1.00
H662   H     0.69831   0.16637   0.58748   0.00000  Uiso   1.00
H663   H     0.68599   0.08566   0.48061   0.00000  Uiso   1.00
H664   H     0.90077   0.28816   0.61539   0.00000  Uiso   1.00
H665   H     0.78420   0.27131   0.40816   0.00000  Uiso   1.00
H666   H     0.73796   0.26446   0.44963   0.00000  Uiso   1.00
H667   H     0.73715   0.30640   0.40725   0.00000  Uiso   1.00
H668   H     0.89206   0.06472   0.58745   0.00000  Uiso   1.00
H669   H     0.94001   0.03087   0.58451   0.00000  Uiso   1.00
H670   H     0.93191   0.07101   0.54058   0.00000  Uiso   1.00
H671   H     0.89119   0.21340   0.62921   0.00000  Uiso   1.00
H672   H     0.77649   0.11908   0.61715   0.00000  Uiso   1.00
H673   H     0.89027   0.21422   0.38286   0.00000  Uiso   1.00
H674   H     0.68799   0.20655   0.41553   0.00000  Uiso   1.00
H675   H     0.96840   0.17122   0.41321   0.00000  Uiso   1.00
H676   H     0.96892   0.22019   0.44356   0.00000  Uiso   1.00
H677   H     0.97917   0.13061   0.58690   0.00000  Uiso   1.00
H678   H     0.69839   0.11622   0.56027   0.00000  Uiso   1.00
N679   N     0.83335   0.16668   0.61736   0.00000  Uiso   1.00
N680   N     0.83332   0.16666   0.38264   0.00000  Uiso   1.00
O681   O     0.83333   0.10655   0.53958   0.00000  Uiso   1.00
O682   O     0.68956   0.01137   0.45550   0.00000  Uiso   1.00
O683   O     0.72296   0.08138   0.48782   0.00000  Uiso   1.00
O684   O     0.93879   0.24885   0.52961   0.00000  Uiso   1.00
O685   O     0.97926   0.31635   0.53949   0.00000  Uiso   1.00
O686   O     0.93624   0.28524   0.60914   0.00000  Uiso   1.00
O687   O     0.83334   0.22678   0.46042   0.00000  Uiso   1.00
O688   O     0.83333   0.10654   0.46039   0.00000  Uiso   1.00
O689   O     0.83334   0.22679   0.53961   0.00000  Uiso   1.00
O690   O     0.75828   0.16667   0.53046   0.00000  Uiso   1.00
O691   O     0.90839   0.16666   0.46954   0.00000  Uiso   1.00
O692   O     0.75828   0.16666   0.45127   0.00000  Uiso   1.00
O693   O     0.90839   0.16667   0.54873   0.00000  Uiso   1.00
O694   O     0.73341   0.05716   0.40372   0.00000  Uiso   1.00
S695   S     0.73299   0.04225   0.45384   0.00000  Uiso   1.00
S696   S     0.93417   0.29006   0.55005   0.00000  Uiso   1.00
C697   C     0.16514   0.42069   0.50038   0.00000  Uiso   1.00
C698   C     0.20613   0.35636   0.52893   0.00000  Uiso   1.00
C699   C     0.17029   0.62421   0.49775   0.00000  Uiso   1.00
C700   C     0.16495   0.37591   0.50197   0.00000  Uiso   1.00
C701   C     0.13470   0.47390   0.35474   0.00000  Uiso   1.00
C702   C     0.19869   0.52610   0.64524   0.00000  Uiso   1.00
C703   C     0.13492   0.47371   0.63849   0.00000  Uiso   1.00
C704   C     0.19845   0.52629   0.36150   0.00000  Uiso   1.00
C705   C     0.32498   0.52717   0.43628   0.00000  Uiso   1.00
C706   C     0.00867   0.47612   0.56560   0.00000  Uiso   1.00
C707   C     0.09522   0.62039   0.43202   0.00000  Uiso   1.00
C708   C     0.16847   0.57935   0.49958   0.00000  Uiso   1.00
C709   C     0.24485   0.38184   0.56172   0.00000  Uiso   1.00
C710   C     0.06833   0.50188   0.48821   0.00000  Uiso   1.00
C711   C     0.26505   0.49845   0.51188   0.00000  Uiso   1.00
C712   C     0.01394   0.50661   0.48248   0.00000  Uiso   1.00
C713   C     0.31960   0.49490   0.51823   0.00000  Uiso   1.00
C714   C     0.12545   0.35304   0.47476   0.00000  Uiso   1.00
C715   C     0.21002   0.64696   0.52523   0.00000  Uiso   1.00
C716   C     0.13072   0.64423   0.46910   0.00000  Uiso   1.00
Cu717  Cu    0.16667   0.50001   0.54689   0.00000  Uiso   1.00
Cu718  Cu    0.16667   0.49999   0.45311   0.00000  Uiso   1.00
H719   H     0.10895   0.45322   0.37070   0.00000  Uiso   1.00
H720   H     0.03164   0.49970   0.58748   0.00000  Uiso   1.00
H721   H     0.01932   0.41900   0.48061   0.00000  Uiso   1.00
H722   H     0.23410   0.62149   0.61539   0.00000  Uiso   1.00
H723   H     0.11754   0.60465   0.40816   0.00000  Uiso   1.00
H724   H     0.07129   0.59779   0.44963   0.00000  Uiso   1.00
H725   H     0.07048   0.63974   0.40725   0.00000  Uiso   1.00
H726   H     0.22539   0.39805   0.58745   0.00000  Uiso   1.00
H727   H     0.27334   0.36421   0.58451   0.00000  Uiso   1.00
H728   H     0.26525   0.40435   0.54058   0.00000  Uiso   1.00
H729   H     0.22452   0.54673   0.62921   0.00000  Uiso   1.00
H730   H     0.10982   0.45241   0.61715   0.00000  Uiso   1.00
H731   H     0.22360   0.54756   0.38286   0.00000  Uiso   1.00
H732   H     0.02133   0.53988   0.41553   0.00000  Uiso   1.00
H733   H     0.30173   0.50455   0.41321   0.00000  Uiso   1.00
H734   H     0.30226   0.55352   0.44356   0.00000  Uiso   1.00
H735   H     0.31251   0.46395   0.58690   0.00000  Uiso   1.00
H736   H     0.03173   0.44956   0.56027   0.00000  Uiso   1.00
N737   N     0.16668   0.50001   0.61736   0.00000  Uiso   1.00
N738   N     0.16665   0.49999   0.38264   0.00000  Uiso   1.00
O739   O     0.16666   0.43989   0.53958   0.00000  Uiso   1.00
O740   O     0.02289   0.34470   0.45550   0.00000  Uiso   1.00
O741   O     0.05629   0.41471   0.48782   0.00000  Uiso   1.00
O742   O     0.27213   0.58219   0.52961   0.00000  Uiso   1.00
O743   O     0.31259   0.64969   0.53949   0.00000  Uiso   1.00
O744   O     0.26957   0.61858   0.60914   0.00000  Uiso   1.00
O745   O     0.16667   0.56011   0.46042   0.00000  Uiso   1.00
O746   O     0.16666   0.43988   0.46039   0.00000  Uiso   1.00
O747   O     0.16667   0.56012   0.53961   0.00000  Uiso   1.00
O748   O     0.09161   0.50000   0.53046   0.00000  Uiso   1.00
O749   O     0.24172   0.50000   0.46954   0.00000  Uiso   1.00
O750   O     0.09161   0.49999   0.45127   0.00000  Uiso   1.00
O751   O     0.24172   0.50001   0.54873   0.00000  Uiso   1.00
O752   O     0.06674   0.39050   0.40372   0.00000  Uiso   1.00
S753   S     0.06632   0.37558   0.45384   0.00000  Uiso   1.00
S754   S     0.26751   0.62340   0.55005   0.00000  Uiso   1.00
C755   C     0.49847   0.42069   0.50038   0.00000  Uiso   1.00
C756   C     0.53946   0.35636   0.52893   0.00000  Uiso   1.00
C757   C     0.50363   0.62421   0.49775   0.00000  Uiso   1.00
C758   C     0.49828   0.37591   0.50197   0.00000  Uiso   1.00
C759   C     0.46803   0.47390   0.35474   0.00000  Uiso   1.00
C760   C     0.53202   0.52610   0.64524   0.00000  Uiso   1.00
C761   C     0.46825   0.47371   0.63849   0.00000  Uiso   1.00
C762   C     0.53178   0.52629   0.36150   0.00000  Uiso   1.00
C763   C     0.65831   0.52717   0.43628   0.00000  Uiso   1.00
C764   C     0.34200   0.47612   0.56560   0.00000  Uiso   1.00
C765   C     0.42855   0.62039   0.43202   0.00000  Uiso   1.00
C766   C     0.50180   0.57935   0.49958   0.00000  Uiso   1.00
C767   C     0.57818   0.38184   0.56172   0.00000  Uiso   1.00
C768   C     0.40166   0.50188   0.48821   0.00000  Uiso   1.00
C769   C     0.59839   0.49845   0.51188   0.00000  Uiso   1.00
C770   C     0.34728   0.50661   0.48248   0.00000  Uiso   1.00
C771   C     0.65293   0.49490   0.51823   0.00000  Uiso   1.00
C772   C     0.45878   0.35304   0.47476   0.00000  Uiso   1.00
C773   C     0.54335   0.64696   0.52523   0.00000  Uiso   1.00
C774   C     0.46405   0.64423   0.46910   0.00000  Uiso   1.00
Cu775  Cu    0.50000   0.50001   0.54689   0.00000  Uiso   1.00
Cu776  Cu    0.50000   0.49999   0.45311   0.00000  Uiso   1.00
H777   H     0.44228   0.45322   0.37070   0.00000  Uiso   1.00
H778   H     0.36498   0.49970   0.58748   0.00000  Uiso   1.00
H779   H     0.35265   0.41900   0.48061   0.00000  Uiso   1.00
H780   H     0.56744   0.62149   0.61539   0.00000  Uiso   1.00
H781   H     0.45087   0.60465   0.40816   0.00000  Uiso   1.00
H782   H     0.40462   0.59779   0.44963   0.00000  Uiso   1.00
H783   H     0.40381   0.63974   0.40725   0.00000  Uiso   1.00
H784   H     0.55873   0.39805   0.58745   0.00000  Uiso   1.00
H785   H     0.60668   0.36421   0.58451   0.00000  Uiso   1.00
H786   H     0.59858   0.40435   0.54058   0.00000  Uiso   1.00
H787   H     0.55786   0.54673   0.62921   0.00000  Uiso   1.00
H788   H     0.44316   0.45241   0.61715   0.00000  Uiso   1.00
H789   H     0.55693   0.54756   0.38286   0.00000  Uiso   1.00
H790   H     0.35466   0.53988   0.41553   0.00000  Uiso   1.00
H791   H     0.63507   0.50455   0.41321   0.00000  Uiso   1.00
H792   H     0.63559   0.55352   0.44356   0.00000  Uiso   1.00
H793   H     0.64584   0.46395   0.58690   0.00000  Uiso   1.00
H794   H     0.36506   0.44956   0.56027   0.00000  Uiso   1.00
N795   N     0.50001   0.50001   0.61736   0.00000  Uiso   1.00
N796   N     0.49999   0.49999   0.38264   0.00000  Uiso   1.00
O797   O     0.50000   0.43989   0.53958   0.00000  Uiso   1.00
O798   O     0.35622   0.34470   0.45550   0.00000  Uiso   1.00
O799   O     0.38963   0.41471   0.48782   0.00000  Uiso   1.00
O800   O     0.60546   0.58219   0.52961   0.00000  Uiso   1.00
O801   O     0.64593   0.64969   0.53949   0.00000  Uiso   1.00
O802   O     0.60291   0.61858   0.60914   0.00000  Uiso   1.00
O803   O     0.50000   0.56011   0.46042   0.00000  Uiso   1.00
O804   O     0.50000   0.43988   0.46039   0.00000  Uiso   1.00
O805   O     0.50000   0.56012   0.53961   0.00000  Uiso   1.00
O806   O     0.42495   0.50000   0.53046   0.00000  Uiso   1.00
O807   O     0.57505   0.50000   0.46954   0.00000  Uiso   1.00
O808   O     0.42494   0.49999   0.45127   0.00000  Uiso   1.00
O809   O     0.57506   0.50001   0.54873   0.00000  Uiso   1.00
O810   O     0.40008   0.39050   0.40372   0.00000  Uiso   1.00
S811   S     0.39966   0.37558   0.45384   0.00000  Uiso   1.00
S812   S     0.60084   0.62340   0.55005   0.00000  Uiso   1.00
C813   C     0.83180   0.42069   0.50038   0.00000  Uiso   1.00
C814   C     0.87280   0.35636   0.52893   0.00000  Uiso   1.00
C815   C     0.83696   0.62421   0.49775   0.00000  Uiso   1.00
C816   C     0.83162   0.37591   0.50197   0.00000  Uiso   1.00
C817   C     0.80136   0.47390   0.35474   0.00000  Uiso   1.00
C818   C     0.86536   0.52610   0.64524   0.00000  Uiso   1.00
C819   C     0.80158   0.47371   0.63849   0.00000  Uiso   1.00
C820   C     0.86512   0.52629   0.36150   0.00000  Uiso   1.00
C821   C     0.99165   0.52717   0.43628   0.00000  Uiso   1.00
C822   C     0.67534   0.47612   0.56560   0.00000  Uiso   1.00
C823   C     0.76188   0.62039   0.43202   0.00000  Uiso   1.00
C824   C     0.83514   0.57935   0.49958   0.00000  Uiso   1.00
C825   C     0.91152   0.38184   0.56172   0.00000  Uiso   1.00
C826   C     0.73499   0.50188   0.48821   0.00000  Uiso   1.00
C827   C     0.93172   0.49845   0.51188   0.00000  Uiso   1.00
C828   C     0.68061   0.50661   0.48248   0.00000  Uiso   1.00
C829   C     0.98626   0.49490   0.51823   0.00000  Uiso   1.00
C830   C     0.79212   0.35304   0.47476   0.00000  Uiso   1.00
C831   C     0.87668   0.64696   0.52523   0.00000  Uiso   1.00
C832   C     0.79738   0.64423   0.46910   0.00000  Uiso   1.00
Cu833  Cu    0.83333   0.50001   0.54689   0.00000  Uiso   1.00
Cu834  Cu    0.83333   0.49999   0.45311   0.00000  Uiso   1.00
H835   H     0.77562   0.45322   0.37070   0.00000  Uiso   1.00
H836   H     0.69831   0.49970   0.58748   0.00000  Uiso   1.00
H837   H     0.68599   0.41900   0.48061   0.00000  Uiso   1.00
H838   H     0.90077   0.62149   0.61539   0.00000  Uiso   1.00
H839   H     0.78420   0.60465   0.40816   0.00000  Uiso   1.00
H840   H     0.73796   0.59779   0.44963   0.00000  Uiso   1.00
H841   H     0.73715   0.63974   0.40725   0.00000  Uiso   1.00
H842   H     0.89206   0.39805   0.58745   0.00000  Uiso   1.00
H843   H     0.94001   0.36421   0.58451   0.00000  Uiso   1.00
H844   H     0.93191   0.40435   0.54058   0.00000  Uiso   1.00
H845   H     0.89119   0.54673   0.62921   0.00000  Uiso   1.00
H846   H     0.77649   0.45241   0.61715   0.00000  Uiso   1.00
H847   H     0.89027   0.54756   0.38286   0.00000  Uiso   1.00
H848   H     0.68799   0.53988   0.41553   0.00000  Uiso   1.00
H849   H     0.96840   0.50455   0.41321   0.00000  Uiso   1.00
H850   H     0.96892   0.55352   0.44356   0.00000  Uiso   1.00
H851   H     0.97917   0.46395   0.58690   0.00000  Uiso   1.00
H852   H     0.69839   0.44956   0.56027   0.00000  Uiso   1.00
N853   N     0.83335   0.50001   0.61736   0.00000  Uiso   1.00
N854   N     0.83332   0.49999   0.38264   0.00000  Uiso   1.00
O855   O     0.83333   0.43989   0.53958   0.00000  Uiso   1.00
O856   O     0.68956   0.34470   0.45550   0.00000  Uiso   1.00
O857   O     0.72296   0.41471   0.48782   0.00000  Uiso   1.00
O858   O     0.93879   0.58219   0.52961   0.00000  Uiso   1.00
O859   O     0.97926   0.64969   0.53949   0.00000  Uiso   1.00
O860   O     0.93624   0.61858   0.60914   0.00000  Uiso   1.00
O861   O     0.83334   0.56011   0.46042   0.00000  Uiso   1.00
O862   O     0.83333   0.43988   0.46039   0.00000  Uiso   1.00
O863   O     0.83334   0.56012   0.53961   0.00000  Uiso   1.00
O864   O     0.75828   0.50000   0.53046   0.00000  Uiso   1.00
O865   O     0.90839   0.50000   0.46954   0.00000  Uiso   1.00
O866   O     0.75828   0.49999   0.45127   0.00000  Uiso   1.00
O867   O     0.90839   0.50001   0.54873   0.00000  Uiso   1.00
O868   O     0.73341   0.39050   0.40372   0.00000  Uiso   1.00
S869   S     0.73299   0.37558   0.45384   0.00000  Uiso   1.00
S870   S     0.93417   0.62340   0.55005   0.00000  Uiso   1.00
C871   C     0.16514   0.75402   0.50038   0.00000  Uiso   1.00
C872   C     0.20613   0.68969   0.52893   0.00000  Uiso   1.00
C873   C     0.17029   0.95754   0.49775   0.00000  Uiso   1.00
C874   C     0.16495   0.70925   0.50197   0.00000  Uiso   1.00
C875   C     0.13470   0.80723   0.35474   0.00000  Uiso   1.00
C876   C     0.19869   0.85943   0.64524   0.00000  Uiso   1.00
C877   C     0.13492   0.80705   0.63849   0.00000  Uiso   1.00
C878   C     0.19845   0.85962   0.36150   0.00000  Uiso   1.00
C879   C     0.32498   0.86050   0.43628   0.00000  Uiso   1.00
C880   C     0.00867   0.80945   0.56560   0.00000  Uiso   1.00
C881   C     0.09522   0.95372   0.43202   0.00000  Uiso   1.00
C882   C     0.16847   0.91268   0.49958   0.00000  Uiso   1.00
C883   C     0.24485   0.71517   0.56172   0.00000  Uiso   1.00
C884   C     0.06833   0.83522   0.48821   0.00000  Uiso   1.00
C885   C     0.26505   0.83178   0.51188   0.00000  Uiso   1.00
C886   C     0.01394   0.83994   0.48248   0.00000  Uiso   1.00
C887   C     0.31960   0.82823   0.51823   0.00000  Uiso   1.00
C888   C     0.12545   0.68637   0.47476   0.00000  Uiso   1.00
C889   C     0.21002   0.98029   0.52523   0.00000  Uiso   1.00
C890   C     0.13072   0.97757   0.46910   0.00000  Uiso   1.00
Cu891  Cu    0.16667   0.83334   0.54689   0.00000  Uiso   1.00
Cu892  Cu    0.16667   0.83333   0.45311   0.00000  Uiso   1.00
H893   H     0.10895   0.78656   0.37070   0.00000  Uiso   1.00
H894   H     0.03164   0.83303   0.58748   0.00000  Uiso   1.00
H895   H     0.01932   0.75233   0.48061   0.00000  Uiso   1.00
H896   H     0.23410   0.95483   0.61539   0.00000  Uiso   1.00
H897   H     0.11754   0.93798   0.40816   0.00000  Uiso   1.00
H898   H     0.07129   0.93112   0.44963   0.00000  Uiso   1.00
H899   H     0.07048   0.97307   0.40725   0.00000  Uiso   1.00
H900   H     0.22539   0.73139   0.58745   0.00000  Uiso   1.00
H901   H     0.27334   0.69754   0.58451   0.00000  Uiso   1.00
H902   H     0.26525   0.73768   0.54058   0.00000  Uiso   1.00
H903   H     0.22452   0.88007   0.62921   0.00000  Uiso   1.00
H904   H     0.10982   0.78574   0.61715   0.00000  Uiso   1.00
H905   H     0.22360   0.88089   0.38286   0.00000  Uiso   1.00
H906   H     0.02133   0.87322   0.41553   0.00000  Uiso   1.00
H907   H     0.30173   0.83789   0.41321   0.00000  Uiso   1.00
H908   H     0.30226   0.88686   0.44356   0.00000  Uiso   1.00
H909   H     0.31251   0.79728   0.58690   0.00000  Uiso   1.00
H910   H     0.03173   0.78289   0.56027   0.00000  Uiso   1.00
N911   N     0.16668   0.83334   0.61736   0.00000  Uiso   1.00
N912   N     0.16665   0.83332   0.38264   0.00000  Uiso   1.00
O913   O     0.16666   0.77322   0.53958   0.00000  Uiso   1.00
O914   O     0.02289   0.67804   0.45550   0.00000  Uiso   1.00
O915   O     0.05629   0.74805   0.48782   0.00000  Uiso   1.00
O916   O     0.27213   0.91552   0.52961   0.00000  Uiso   1.00
O917   O     0.31259   0.98302   0.53949   0.00000  Uiso   1.00
O918   O     0.26957   0.95191   0.60914   0.00000  Uiso   1.00
O919   O     0.16667   0.89345   0.46042   0.00000  Uiso   1.00
O920   O     0.16666   0.77321   0.46039   0.00000  Uiso   1.00
O921   O     0.16667   0.89346   0.53961   0.00000  Uiso   1.00
O922   O     0.09161   0.83334   0.53046   0.00000  Uiso   1.00
O923   O     0.24172   0.83333   0.46954   0.00000  Uiso   1.00
O924   O     0.09161   0.83333   0.45127   0.00000  Uiso   1.00
O925   O     0.24172   0.83334   0.54873   0.00000  Uiso   1.00
O926   O     0.06674   0.72383   0.40372   0.00000  Uiso   1.00
S927   S     0.06632   0.70892   0.45384   0.00000  Uiso   1.00
S928   S     0.26751   0.95673   0.55005   0.00000  Uiso   1.00
C929   C     0.49847   0.75402   0.50038   0.00000  Uiso   1.00
C930   C     0.53946   0.68969   0.52893   0.00000  Uiso   1.00
C931   C     0.50363   0.95754   0.49775   0.00000  Uiso   1.00
C932   C     0.49828   0.70925   0.50197   0.00000  Uiso   1.00
C933   C     0.46803   0.80723   0.35474   0.00000  Uiso   1.00
C934   C     0.53202   0.85943   0.64524   0.00000  Uiso   1.00
C935   C     0.46825   0.80705   0.63849   0.00000  Uiso   1.00
C936   C     0.53178   0.85962   0.36150   0.00000  Uiso   1.00
C937   C     0.65831   0.86050   0.43628   0.00000  Uiso   1.00
C938   C     0.34200   0.80945   0.56560   0.00000  Uiso   1.00
C939   C     0.42855   0.95372   0.43202   0.00000  Uiso   1.00
C940   C     0.50180   0.91268   0.49958   0.00000  Uiso   1.00
C941   C     0.57818   0.71517   0.56172   0.00000  Uiso   1.00
C942   C     0.40166   0.83522   0.48821   0.00000  Uiso   1.00
C943   C     0.59839   0.83178   0.51188   0.00000  Uiso   1.00
C944   C     0.34728   0.83994   0.48248   0.00000  Uiso   1.00
C945   C     0.65293   0.82823   0.51823   0.00000  Uiso   1.00
C946   C     0.45878   0.68637   0.47476   0.00000  Uiso   1.00
C947   C     0.54335   0.98029   0.52523   0.00000  Uiso   1.00
C948   C     0.46405   0.97757   0.46910   0.00000  Uiso   1.00
Cu949  Cu    0.50000   0.83334   0.54689   0.00000  Uiso   1.00
Cu950  Cu    0.50000   0.83333   0.45311   0.00000  Uiso   1.00
H951   H     0.44228   0.78656   0.37070   0.00000  Uiso   1.00
H952   H     0.36498   0.83303   0.58748   0.00000  Uiso   1.00
H953   H     0.35265   0.75233   0.48061   0.00000  Uiso   1.00
H954   H     0.56744   0.95483   0.61539   0.00000  Uiso   1.00
H955   H     0.45087   0.93798   0.40816   0.00000  Uiso   1.00
H956   H     0.40462   0.93112   0.44963   0.00000  Uiso   1.00
H957   H     0.40381   0.97307   0.40725   0.00000  Uiso   1.00
H958   H     0.55873   0.73139   0.58745   0.00000  Uiso   1.00
H959   H     0.60668   0.69754   0.58451   0.00000  Uiso   1.00
H960   H     0.59858   0.73768   0.54058   0.00000  Uiso   1.00
H961   H     0.55786   0.88007   0.62921   0.00000  Uiso   1.00
H962   H     0.44316   0.78574   0.61715   0.00000  Uiso   1.00
H963   H     0.55693   0.88089   0.38286   0.00000  Uiso   1.00
H964   H     0.35466   0.87322   0.41553   0.00000  Uiso   1.00
H965   H     0.63507   0.83789   0.41321   0.00000  Uiso   1.00
H966   H     0.63559   0.88686   0.44356   0.00000  Uiso   1.00
H967   H     0.64584   0.79728   0.58690   0.00000  Uiso   1.00
H968   H     0.36506   0.78289   0.56027   0.00000  Uiso   1.00
N969   N     0.50001   0.83334   0.61736   0.00000  Uiso   1.00
N970   N     0.49999   0.83332   0.38264   0.00000  Uiso   1.00
O971   O     0.50000   0.77322   0.53958   0.00000  Uiso   1.00
O972   O     0.35622   0.67804   0.45550   0.00000  Uiso   1.00
O973   O     0.38963   0.74805   0.48782   0.00000  Uiso   1.00
O974   O     0.60546   0.91552   0.52961   0.00000  Uiso   1.00
O975   O     0.64593   0.98302   0.53949   0.00000  Uiso   1.00
O976   O     0.60291   0.95191   0.60914   0.00000  Uiso   1.00
O977   O     0.50000   0.89345   0.46042   0.00000  Uiso   1.00
O978   O     0.50000   0.77321   0.46039   0.00000  Uiso   1.00
O979   O     0.50000   0.89346   0.53961   0.00000  Uiso   1.00
O980   O     0.42495   0.83334   0.53046   0.00000  Uiso   1.00
O981   O     0.57505   0.83333   0.46954   0.00000  Uiso   1.00
O982   O     0.42494   0.83333   0.45127   0.00000  Uiso   1.00
O983   O     0.57506   0.83334   0.54873   0.00000  Uiso   1.00
O984   O     0.40008   0.72383   0.40372   0.00000  Uiso   1.00
S985   S     0.39966   0.70892   0.45384   0.00000  Uiso   1.00
S986   S     0.60084   0.95673   0.55005   0.00000  Uiso   1.00
C987   C     0.83180   0.75402   0.50038   0.00000  Uiso   1.00
C988   C     0.87280   0.68969   0.52893   0.00000  Uiso   1.00
C989   C     0.83696   0.95754   0.49775   0.00000  Uiso   1.00
C990   C     0.83162   0.70925   0.50197   0.00000  Uiso   1.00
C991   C     0.80136   0.80723   0.35474   0.00000  Uiso   1.00
C992   C     0.86536   0.85943   0.64524   0.00000  Uiso   1.00
C993   C     0.80158   0.80705   0.63849   0.00000  Uiso   1.00
C994   C     0.86512   0.85962   0.36150   0.00000  Uiso   1.00
C995   C     0.99165   0.86050   0.43628   0.00000  Uiso   1.00
C996   C     0.67534   0.80945   0.56560   0.00000  Uiso   1.00
C997   C     0.76188   0.95372   0.43202   0.00000  Uiso   1.00
C998   C     0.83514   0.91268   0.49958   0.00000  Uiso   1.00
C999   C     0.91152   0.71517   0.56172   0.00000  Uiso   1.00
C1000  C     0.73499   0.83522   0.48821   0.00000  Uiso   1.00
C1001  C     0.93172   0.83178   0.51188   0.00000  Uiso   1.00
C1002  C     0.68061   0.83994   0.48248   0.00000  Uiso   1.00
C1003  C     0.98626   0.82823   0.51823   0.00000  Uiso   1.00
C1004  C     0.79212   0.68637   0.47476   0.00000  Uiso   1.00
C1005  C     0.87668   0.98029   0.52523   0.00000  Uiso   1.00
C1006  C     0.79738   0.97757   0.46910   0.00000  Uiso   1.00
Cu1007 Cu    0.83333   0.83334   0.54689   0.00000  Uiso   1.00
Cu1008 Cu    0.83333   0.83333   0.45311   0.00000  Uiso   1.00
H1009  H     0.77562   0.78656   0.37070   0.00000  Uiso   1.00
H1010  H     0.69831   0.83303   0.58748   0.00000  Uiso   1.00
H1011  H     0.68599   0.75233   0.48061   0.00000  Uiso   1.00
H1012  H     0.90077   0.95483   0.61539   0.00000  Uiso   1.00
H1013  H     0.78420   0.93798   0.40816   0.00000  Uiso   1.00
H1014  H     0.73796   0.93112   0.44963   0.00000  Uiso   1.00
H1015  H     0.73715   0.97307   0.40725   0.00000  Uiso   1.00
H1016  H     0.89206   0.73139   0.58745   0.00000  Uiso   1.00
H1017  H     0.94001   0.69754   0.58451   0.00000  Uiso   1.00
H1018  H     0.93191   0.73768   0.54058   0.00000  Uiso   1.00
H1019  H     0.89119   0.88007   0.62921   0.00000  Uiso   1.00
H1020  H     0.77649   0.78574   0.61715   0.00000  Uiso   1.00
H1021  H     0.89027   0.88089   0.38286   0.00000  Uiso   1.00
H1022  H     0.68799   0.87322   0.41553   0.00000  Uiso   1.00
H1023  H     0.96840   0.83789   0.41321   0.00000  Uiso   1.00
H1024  H     0.96892   0.88686   0.44356   0.00000  Uiso   1.00
H1025  H     0.97917   0.79728   0.58690   0.00000  Uiso   1.00
H1026  H     0.69839   0.78289   0.56027   0.00000  Uiso   1.00
N1027  N     0.83335   0.83334   0.61736   0.00000  Uiso   1.00
N1028  N     0.83332   0.83332   0.38264   0.00000  Uiso   1.00
O1029  O     0.83333   0.77322   0.53958   0.00000  Uiso   1.00
O1030  O     0.68956   0.67804   0.45550   0.00000  Uiso   1.00
O1031  O     0.72296   0.74805   0.48782   0.00000  Uiso   1.00
O1032  O     0.93879   0.91552   0.52961   0.00000  Uiso   1.00
O1033  O     0.97926   0.98302   0.53949   0.00000  Uiso   1.00
O1034  O     0.93624   0.95191   0.60914   0.00000  Uiso   1.00
O1035  O     0.83334   0.89345   0.46042   0.00000  Uiso   1.00
O1036  O     0.83333   0.77321   0.46039   0.00000  Uiso   1.00
O1037  O     0.83334   0.89346   0.53961   0.00000  Uiso   1.00
O1038  O     0.75828   0.83334   0.53046   0.00000  Uiso   1.00
O1039  O     0.90839   0.83333   0.46954   0.00000  Uiso   1.00
O1040  O     0.75828   0.83333   0.45127   0.00000  Uiso   1.00
O1041  O     0.90839   0.83334   0.54873   0.00000  Uiso   1.00
O1042  O     0.73341   0.72383   0.40372   0.00000  Uiso   1.00
S1043  S     0.73299   0.70892   0.45384   0.00000  Uiso   1.00
S1044  S     0.93417   0.95673   0.55005   0.00000  Uiso   1.00
C1045  C     0.16514   0.08736   0.83371   0.00000  Uiso   1.00
C1046  C     0.20613   0.02303   0.86226   0.00000  Uiso   1.00
C1047  C     0.17029   0.29088   0.83108   0.00000  Uiso   1.00
C1048  C     0.16495   0.04258   0.83531   0.00000  Uiso   1.00
C1049  C     0.13470   0.14056   0.68807   0.00000  Uiso   1.00
C1050  C     0.19869   0.19277   0.97857   0.00000  Uiso   1.00
C1051  C     0.13492   0.14038   0.97182   0.00000  Uiso   1.00
C1052  C     0.19845   0.19295   0.69484   0.00000  Uiso   1.00
C1053  C     0.32498   0.19384   0.76961   0.00000  Uiso   1.00
C1054  C     0.00867   0.14278   0.89893   0.00000  Uiso   1.00
C1055  C     0.09522   0.28705   0.76535   0.00000  Uiso   1.00
C1056  C     0.16847   0.24601   0.83291   0.00000  Uiso   1.00
C1057  C     0.24485   0.04850   0.89506   0.00000  Uiso   1.00
C1058  C     0.06833   0.16855   0.82155   0.00000  Uiso   1.00
C1059  C     0.26505   0.16512   0.84521   0.00000  Uiso   1.00
C1060  C     0.01394   0.17327   0.81581   0.00000  Uiso   1.00
C1061  C     0.31960   0.16157   0.85157   0.00000  Uiso   1.00
C1062  C     0.12545   0.01971   0.80809   0.00000  Uiso   1.00
C1063  C     0.21002   0.31363   0.85857   0.00000  Uiso   1.00
C1064  C     0.13072   0.31090   0.80243   0.00000  Uiso   1.00
Cu1065 Cu    0.16667   0.16667   0.88022   0.00000  Uiso   1.00
Cu1066 Cu    0.16667   0.16666   0.78645   0.00000  Uiso   1.00
H1067  H     0.10895   0.11989   0.70403   0.00000  Uiso   1.00
H1068  H     0.03164   0.16637   0.92082   0.00000  Uiso   1.00
H1069  H     0.01932   0.08566   0.81394   0.00000  Uiso   1.00
H1070  H     0.23410   0.28816   0.94872   0.00000  Uiso   1.00
H1071  H     0.11754   0.27131   0.74149   0.00000  Uiso   1.00
H1072  H     0.07129   0.26446   0.78296   0.00000  Uiso   1.00
H1073  H     0.07048   0.30640   0.74059   0.00000  Uiso   1.00
H1074  H     0.22539   0.06472   0.92079   0.00000  Uiso   1.00
H1075  H     0.27334   0.03087   0.91784   0.00000  Uiso   1.00
H1076  H     0.26525   0.07101   0.87391   0.00000  Uiso   1.00
H1077  H     0.22452   0.21340   0.96255   0.00000  Uiso   1.00
H1078  H     0.10982   0.11908   0.95049   0.00000  Uiso   1.00
H1079  H     0.22360   0.21422   0.71619   0.00000  Uiso   1.00
H1080  H     0.02133   0.20655   0.74886   0.00000  Uiso   1.00
H1081  H     0.30173   0.17122   0.74655   0.00000  Uiso   1.00
H1082  H     0.30226   0.22019   0.77689   0.00000  Uiso   1.00
H1083  H     0.31251   0.13061   0.92023   0.00000  Uiso   1.00
H1084  H     0.03173   0.11622   0.89361   0.00000  Uiso   1.00
N1085  N     0.16668   0.16668   0.95069   0.00000  Uiso   1.00
N1086  N     0.16665   0.16666   0.71597   0.00000  Uiso   1.00
O1087  O     0.16666   0.10655   0.87291   0.00000  Uiso   1.00
O1088  O     0.02289   0.01137   0.78884   0.00000  Uiso   1.00
O1089  O     0.05629   0.08138   0.82115   0.00000  Uiso   1.00
O1090  O     0.27213   0.24885   0.86294   0.00000  Uiso   1.00
O1091  O     0.31259   0.31635   0.87283   0.00000  Uiso   1.00
O1092  O     0.26957   0.28524   0.94248   0.00000  Uiso   1.00
O1093  O     0.16667   0.22678   0.79375   0.00000  Uiso   1.00
O1094  O     0.16666   0.10654   0.79372   0.00000  Uiso   1.00
O1095  O     0.16667   0.22679   0.87294   0.00000  Uiso   1.00
O1096  O     0.09161   0.16667   0.86379   0.00000  Uiso   1.00
O1097  O     0.24172   0.16666   0.80288   0.00000  Uiso   1.00
O1098  O     0.09161   0.16666   0.78460   0.00000  Uiso   1.00
O1099  O     0.24172   0.16667   0.88207   0.00000  Uiso   1.00
O1100  O     0.06674   0.05716   0.73705   0.00000  Uiso   1.00
S1101  S     0.06632   0.04225   0.78717   0.00000  Uiso   1.00
S1102  S     0.26751   0.29006   0.88338   0.00000  Uiso   1.00
C1103  C     0.49847   0.08736   0.83371   0.00000  Uiso   1.00
C1104  C     0.53946   0.02303   0.86226   0.00000  Uiso   1.00
C1105  C     0.50363   0.29088   0.83108   0.00000  Uiso   1.00
C1106  C     0.49828   0.04258   0.83531   0.00000  Uiso   1.00
C1107  C     0.46803   0.14056   0.68807   0.00000  Uiso   1.00
C1108  C     0.53202   0.19277   0.97857   0.00000  Uiso   1.00
C1109  C     0.46825   0.14038   0.97182   0.00000  Uiso   1.00
C1110  C     0.53178   0.19295   0.69484   0.00000  Uiso   1.00
C1111  C     0.65831   0.19384   0.76961   0.00000  Uiso   1.00
C1112  C     0.34200   0.14278   0.89893   0.00000  Uiso   1.00
C1113  C     0.42855   0.28705   0.76535   0.00000  Uiso   1.00
C1114  C     0.50180   0.24601   0.83291   0.00000  Uiso   1.00
C1115  C     0.57818   0.04850   0.89506   0.00000  Uiso   1.00
C1116  C     0.40166   0.16855   0.82155   0.00000  Uiso   1.00
C1117  C     0.59839   0.16512   0.84521   0.00000  Uiso   1.00
C1118  C     0.34728   0.17327   0.81581   0.00000  Uiso   1.00
C1119  C     0.65293   0.16157   0.85157   0.00000  Uiso   1.00
C1120  C     0.45878   0.01971   0.80809   0.00000  Uiso   1.00
C1121  C     0.54335   0.31363   0.85857   0.00000  Uiso   1.00
C1122  C     0.46405   0.31090   0.80243   0.00000  Uiso   1.00
Cu1123 Cu    0.50000   0.16667   0.88022   0.00000  Uiso   1.00
Cu1124 Cu    0.50000   0.16666   0.78645   0.00000  Uiso   1.00
H1125  H     0.44228   0.11989   0.70403   0.00000  Uiso   1.00
H1126  H     0.36498   0.16637   0.92082   0.00000  Uiso   1.00
H1127  H     0.35265   0.08566   0.81394   0.00000  Uiso   1.00
H1128  H     0.56744   0.28816   0.94872   0.00000  Uiso   1.00
H1129  H     0.45087   0.27131   0.74149   0.00000  Uiso   1.00
H1130  H     0.40462   0.26446   0.78296   0.00000  Uiso   1.00
H1131  H     0.40381   0.30640   0.74059   0.00000  Uiso   1.00
H1132  H     0.55873   0.06472   0.92079   0.00000  Uiso   1.00
H1133  H     0.60668   0.03087   0.91784   0.00000  Uiso   1.00
H1134  H     0.59858   0.07101   0.87391   0.00000  Uiso   1.00
H1135  H     0.55786   0.21340   0.96255   0.00000  Uiso   1.00
H1136  H     0.44316   0.11908   0.95049   0.00000  Uiso   1.00
H1137  H     0.55693   0.21422   0.71619   0.00000  Uiso   1.00
H1138  H     0.35466   0.20655   0.74886   0.00000  Uiso   1.00
H1139  H     0.63507   0.17122   0.74655   0.00000  Uiso   1.00
H1140  H     0.63559   0.22019   0.77689   0.00000  Uiso   1.00
H1141  H     0.64584   0.13061   0.92023   0.00000  Uiso   1.00
H1142  H     0.36506   0.11622   0.89361   0.00000  Uiso   1.00
N1143  N     0.50001   0.16668   0.95069   0.00000  Uiso   1.00
N1144  N     0.49999   0.16666   0.71597   0.00000  Uiso   1.00
O1145  O     0.50000   0.10655   0.87291   0.00000  Uiso   1.00
O1146  O     0.35622   0.01137   0.78884   0.00000  Uiso   1.00
O1147  O     0.38963   0.08138   0.82115   0.00000  Uiso   1.00
O1148  O     0.60546   0.24885   0.86294   0.00000  Uiso   1.00
O1149  O     0.64593   0.31635   0.87283   0.00000  Uiso   1.00
O1150  O     0.60291   0.28524   0.94248   0.00000  Uiso   1.00
O1151  O     0.50000   0.22678   0.79375   0.00000  Uiso   1.00
O1152  O     0.50000   0.10654   0.79372   0.00000  Uiso   1.00
O1153  O     0.50000   0.22679   0.87294   0.00000  Uiso   1.00
O1154  O     0.42495   0.16667   0.86379   0.00000  Uiso   1.00
O1155  O     0.57505   0.16666   0.80288   0.00000  Uiso   1.00
O1156  O     0.42494   0.16666   0.78460   0.00000  Uiso   1.00
O1157  O     0.57506   0.16667   0.88207   0.00000  Uiso   1.00
O1158  O     0.40008   0.05716   0.73705   0.00000  Uiso   1.00
S1159  S     0.39966   0.04225   0.78717   0.00000  Uiso   1.00
S1160  S     0.60084   0.29006   0.88338   0.00000  Uiso   1.00
C1161  C     0.83180   0.08736   0.83371   0.00000  Uiso   1.00
C1162  C     0.87280   0.02303   0.86226   0.00000  Uiso   1.00
C1163  C     0.83696   0.29088   0.83108   0.00000  Uiso   1.00
C1164  C     0.83162   0.04258   0.83531   0.00000  Uiso   1.00
C1165  C     0.80136   0.14056   0.68807   0.00000  Uiso   1.00
C1166  C     0.86536   0.19277   0.97857   0.00000  Uiso   1.00
C1167  C     0.80158   0.14038   0.97182   0.00000  Uiso   1.00
C1168  C     0.86512   0.19295   0.69484   0.00000  Uiso   1.00
C1169  C     0.99165   0.19384   0.76961   0.00000  Uiso   1.00
C1170  C     0.67534   0.14278   0.89893   0.00000  Uiso   1.00
C1171  C     0.76188   0.28705   0.76535   0.00000  Uiso   1.00
C1172  C     0.83514   0.24601   0.83291   0.00000  Uiso   1.00
C1173  C     0.91152   0.04850   0.89506   0.00000  Uiso   1.00
C1174  C     0.73499   0.16855   0.82155   0.00000  Uiso   1.00
C1175  C     0.93172   0.16512   0.84521   0.00000  Uiso   1.00
C1176  C     0.68061   0.17327   0.81581   0.00000  Uiso   1.00
C1177  C     0.98626   0.16157   0.85157   0.00000  Uiso   1.00
C1178  C     0.79212   0.01971   0.80809   0.00000  Uiso   1.00
C1179  C     0.87668   0.31363   0.85857   0.00000  Uiso   1.00
C1180  C     0.79738   0.31090   0.80243   0.00000  Uiso   1.00
Cu1181 Cu    0.83333   0.16667   0.88022   0.00000  Uiso   1.00
Cu1182 Cu    0.83333   0.16666   0.78645   0.00000  Uiso   1.00
H1183  H     0.77562   0.11989   0.70403   0.00000  Uiso   1.00
H1184  H     0.69831   0.16637   0.92082   0.00000  Uiso   1.00
H1185  H     0.68599   0.08566   0.81394   0.00000  Uiso   1.00
H1186  H     0.90077   0.28816   0.94872   0.00000  Uiso   1.00
H1187  H     0.78420   0.27131   0.74149   0.00000  Uiso   1.00
H1188  H     0.73796   0.26446   0.78296   0.00000  Uiso   1.00
H1189  H     0.73715   0.30640   0.74059   0.00000  Uiso   1.00
H1190  H     0.89206   0.06472   0.92079   0.00000  Uiso   1.00
H1191  H     0.94001   0.03087   0.91784   0.00000  Uiso   1.00
H1192  H     0.93191   0.07101   0.87391   0.00000  Uiso   1.00
H1193  H     0.89119   0.21340   0.96255   0.00000  Uiso   1.00
H1194  H     0.77649   0.11908   0.95049   0.00000  Uiso   1.00
H1195  H     0.89027   0.21422   0.71619   0.00000  Uiso   1.00
H1196  H     0.68799   0.20655   0.74886   0.00000  Uiso   1.00
H1197  H     0.96840   0.17122   0.74655   0.00000  Uiso   1.00
H1198  H     0.96892   0.22019   0.77689   0.00000  Uiso   1.00
H1199  H     0.97917   0.13061   0.92023   0.00000  Uiso   1.00
H1200  H     0.69839   0.11622   0.89361   0.00000  Uiso   1.00
N1201  N     0.83335   0.16668   0.95069   0.00000  Uiso   1.00
N1202  N     0.83332   0.16666   0.71597   0.00000  Uiso   1.00
O1203  O     0.83333   0.10655   0.87291   0.00000  Uiso   1.00
O1204  O     0.68956   0.01137   0.78884   0.00000  Uiso   1.00
O1205  O     0.72296   0.08138   0.82115   0.00000  Uiso   1.00
O1206  O     0.93879   0.24885   0.86294   0.00000  Uiso   1.00
O1207  O     0.97926   0.31635   0.87283   0.00000  Uiso   1.00
O1208  O     0.93624   0.28524   0.94248   0.00000  Uiso   1.00
O1209  O     0.83334   0.22678   0.79375   0.00000  Uiso   1.00
O1210  O     0.83333   0.10654   0.79372   0.00000  Uiso   1.00
O1211  O     0.83334   0.22679   0.87294   0.00000  Uiso   1.00
O1212  O     0.75828   0.16667   0.86379   0.00000  Uiso   1.00
O1213  O     0.90839   0.16666   0.80288   0.00000  Uiso   1.00
O1214  O     0.75828   0.16666   0.78460   0.00000  Uiso   1.00
O1215  O     0.90839   0.16667   0.88207   0.00000  Uiso   1.00
O1216  O     0.73341   0.05716   0.73705   0.00000  Uiso   1.00
S1217  S     0.73299   0.04225   0.78717   0.00000  Uiso   1.00
S1218  S     0.93417   0.29006   0.88338   0.00000  Uiso   1.00
C1219  C     0.16514   0.42069   0.83371   0.00000  Uiso   1.00
C1220  C     0.20613   0.35636   0.86226   0.00000  Uiso   1.00
C1221  C     0.17029   0.62421   0.83108   0.00000  Uiso   1.00
C1222  C     0.16495   0.37591   0.83531   0.00000  Uiso   1.00
C1223  C     0.13470   0.47390   0.68807   0.00000  Uiso   1.00
C1224  C     0.19869   0.52610   0.97857   0.00000  Uiso   1.00
C1225  C     0.13492   0.47371   0.97182   0.00000  Uiso   1.00
C1226  C     0.19845   0.52629   0.69484   0.00000  Uiso   1.00
C1227  C     0.32498   0.52717   0.76961   0.00000  Uiso   1.00
C1228  C     0.00867   0.47612   0.89893   0.00000  Uiso   1.00
C1229  C     0.09522   0.62039   0.76535   0.00000  Uiso   1.00
C1230  C     0.16847   0.57935   0.83291   0.00000  Uiso   1.00
C1231  C     0.24485   0.38184   0.89506   0.00000  Uiso   1.00
C1232  C     0.06833   0.50188   0.82155   0.00000  Uiso   1.00
C1233  C     0.26505   0.49845   0.84521   0.00000  Uiso   1.00
C1234  C     0.01394   0.50661   0.81581   0.00000  Uiso   1.00
C1235  C     0.31960   0.49490   0.85157   0.00000  Uiso   1.00
C1236  C     0.12545   0.35304   0.80809   0.00000  Uiso   1.00
C1237  C     0.21002   0.64696   0.85857   0.00000  Uiso   1.00
C1238  C     0.13072   0.64423   0.80243   0.00000  Uiso   1.00
Cu1239 Cu    0.16667   0.50001   0.88022   0.00000  Uiso   1.00
Cu1240 Cu    0.16667   0.49999   0.78645   0.00000  Uiso   1.00
H1241  H     0.10895   0.45322   0.70403   0.00000  Uiso   1.00
H1242  H     0.03164   0.49970   0.92082   0.00000  Uiso   1.00
H1243  H     0.01932   0.41900   0.81394   0.00000  Uiso   1.00
H1244  H     0.23410   0.62149   0.94872   0.00000  Uiso   1.00
H1245  H     0.11754   0.60465   0.74149   0.00000  Uiso   1.00
H1246  H     0.07129   0.59779   0.78296   0.00000  Uiso   1.00
H1247  H     0.07048   0.63974   0.74059   0.00000  Uiso   1.00
H1248  H     0.22539   0.39805   0.92079   0.00000  Uiso   1.00
H1249  H     0.27334   0.36421   0.91784   0.00000  Uiso   1.00
H1250  H     0.26525   0.40435   0.87391   0.00000  Uiso   1.00
H1251  H     0.22452   0.54673   0.96255   0.00000  Uiso   1.00
H1252  H     0.10982   0.45241   0.95049   0.00000  Uiso   1.00
H1253  H     0.22360   0.54756   0.71619   0.00000  Uiso   1.00
H1254  H     0.02133   0.53988   0.74886   0.00000  Uiso   1.00
H1255  H     0.30173   0.50455   0.74655   0.00000  Uiso   1.00
H1256  H     0.30226   0.55352   0.77689   0.00000  Uiso   1.00
H1257  H     0.31251   0.46395   0.92023   0.00000  Uiso   1.00
H1258  H     0.03173   0.44956   0.89361   0.00000  Uiso   1.00
N1259  N     0.16668   0.50001   0.95069   0.00000  Uiso   1.00
N1260  N     0.16665   0.49999   0.71597   0.00000  Uiso   1.00
O1261  O     0.16666   0.43989   0.87291   0.00000  Uiso   1.00
O1262  O     0.02289   0.34470   0.78884   0.00000  Uiso   1.00
O1263  O     0.05629   0.41471   0.82115   0.00000  Uiso   1.00
O1264  O     0.27213   0.58219   0.86294   0.00000  Uiso   1.00
O1265  O     0.31259   0.64969   0.87283   0.00000  Uiso   1.00
O1266  O     0.26957   0.61858   0.94248   0.00000  Uiso   1.00
O1267  O     0.16667   0.56011   0.79375   0.00000  Uiso   1.00
O1268  O     0.16666   0.43988   0.79372   0.00000  Uiso   1.00
O1269  O     0.16667   0.56012   0.87294   0.00000  Uiso   1.00
O1270  O     0.09161   0.50000   0.86379   0.00000  Uiso   1.00
O1271  O     0.24172   0.50000   0.80288   0.00000  Uiso   1.00
O1272  O     0.09161   0.49999   0.78460   0.00000  Uiso   1.00
O1273  O     0.24172   0.50001   0.88207   0.00000  Uiso   1.00
O1274  O     0.06674   0.39050   0.73705   0.00000  Uiso   1.00
S1275  S     0.06632   0.37558   0.78717   0.00000  Uiso   1.00
S1276  S     0.26751   0.62340   0.88338   0.00000  Uiso   1.00
C1277  C     0.49847   0.42069   0.83371   0.00000  Uiso   1.00
C1278  C     0.53946   0.35636   0.86226   0.00000  Uiso   1.00
C1279  C     0.50363   0.62421   0.83108   0.00000  Uiso   1.00
C1280  C     0.49828   0.37591   0.83531   0.00000  Uiso   1.00
C1281  C     0.46803   0.47390   0.68807   0.00000  Uiso   1.00
C1282  C     0.53202   0.52610   0.97857   0.00000  Uiso   1.00
C1283  C     0.46825   0.47371   0.97182   0.00000  Uiso   1.00
C1284  C     0.53178   0.52629   0.69484   0.00000  Uiso   1.00
C1285  C     0.65831   0.52717   0.76961   0.00000  Uiso   1.00
C1286  C     0.34200   0.47612   0.89893   0.00000  Uiso   1.00
C1287  C     0.42855   0.62039   0.76535   0.00000  Uiso   1.00
C1288  C     0.50180   0.57935   0.83291   0.00000  Uiso   1.00
C1289  C     0.57818   0.38184   0.89506   0.00000  Uiso   1.00
C1290  C     0.40166   0.50188   0.82155   0.00000  Uiso   1.00
C1291  C     0.59839   0.49845   0.84521   0.00000  Uiso   1.00
C1292  C     0.34728   0.50661   0.81581   0.00000  Uiso   1.00
C1293  C     0.65293   0.49490   0.85157   0.00000  Uiso   1.00
C1294  C     0.45878   0.35304   0.80809   0.00000  Uiso   1.00
C1295  C     0.54335   0.64696   0.85857   0.00000  Uiso   1.00
C1296  C     0.46405   0.64423   0.80243   0.00000  Uiso   1.00
Cu1297 Cu    0.50000   0.50001   0.88022   0.00000  Uiso   1.00
Cu1298 Cu    0.50000   0.49999   0.78645   0.00000  Uiso   1.00
H1299  H     0.44228   0.45322   0.70403   0.00000  Uiso   1.00
H1300  H     0.36498   0.49970   0.92082   0.00000  Uiso   1.00
H1301  H     0.35265   0.41900   0.81394   0.00000  Uiso   1.00
H1302  H     0.56744   0.62149   0.94872   0.00000  Uiso   1.00
H1303  H     0.45087   0.60465   0.74149   0.00000  Uiso   1.00
H1304  H     0.40462   0.59779   0.78296   0.00000  Uiso   1.00
H1305  H     0.40381   0.63974   0.74059   0.00000  Uiso   1.00
H1306  H     0.55873   0.39805   0.92079   0.00000  Uiso   1.00
H1307  H     0.60668   0.36421   0.91784   0.00000  Uiso   1.00
H1308  H     0.59858   0.40435   0.87391   0.00000  Uiso   1.00
H1309  H     0.55786   0.54673   0.96255   0.00000  Uiso   1.00
H1310  H     0.44316   0.45241   0.95049   0.00000  Uiso   1.00
H1311  H     0.55693   0.54756   0.71619   0.00000  Uiso   1.00
H1312  H     0.35466   0.53988   0.74886   0.00000  Uiso   1.00
H1313  H     0.63507   0.50455   0.74655   0.00000  Uiso   1.00
H1314  H     0.63559   0.55352   0.77689   0.00000  Uiso   1.00
H1315  H     0.64584   0.46395   0.92023   0.00000  Uiso   1.00
H1316  H     0.36506   0.44956   0.89361   0.00000  Uiso   1.00
N1317  N     0.50001   0.50001   0.95069   0.00000  Uiso   1.00
N1318  N     0.49999   0.49999   0.71597   0.00000  Uiso   1.00
O1319  O     0.50000   0.43989   0.87291   0.00000  Uiso   1.00
O1320  O     0.35622   0.34470   0.78884   0.00000  Uiso   1.00
O1321  O     0.38963   0.41471   0.82115   0.00000  Uiso   1.00
O1322  O     0.60546   0.58219   0.86294   0.00000  Uiso   1.00
O1323  O     0.64593   0.64969   0.87283   0.00000  Uiso   1.00
O1324  O     0.60291   0.61858   0.94248   0.00000  Uiso   1.00
O1325  O     0.50000   0.56011   0.79375   0.00000  Uiso   1.00
O1326  O     0.50000   0.43988   0.79372   0.00000  Uiso   1.00
O1327  O     0.50000   0.56012   0.87294   0.00000  Uiso   1.00
O1328  O     0.42495   0.50000   0.86379   0.00000  Uiso   1.00
O1329  O     0.57505   0.50000   0.80288   0.00000  Uiso   1.00
O1330  O     0.42494   0.49999   0.78460   0.00000  Uiso   1.00
O1331  O     0.57506   0.50001   0.88207   0.00000  Uiso   1.00
O1332  O     0.40008   0.39050   0.73705   0.00000  Uiso   1.00
S1333  S     0.39966   0.37558   0.78717   0.00000  Uiso   1.00
S1334  S     0.60084   0.62340   0.88338   0.00000  Uiso   1.00
C1335  C     0.83180   0.42069   0.83371   0.00000  Uiso   1.00
C1336  C     0.87280   0.35636   0.86226   0.00000  Uiso   1.00
C1337  C     0.83696   0.62421   0.83108   0.00000  Uiso   1.00
C1338  C     0.83162   0.37591   0.83531   0.00000  Uiso   1.00
C1339  C     0.80136   0.47390   0.68807   0.00000  Uiso   1.00
C1340  C     0.86536   0.52610   0.97857   0.00000  Uiso   1.00
C1341  C     0.80158   0.47371   0.97182   0.00000  Uiso   1.00
C1342  C     0.86512   0.52629   0.69484   0.00000  Uiso   1.00
C1343  C     0.99165   0.52717   0.76961   0.00000  Uiso   1.00
C1344  C     0.67534   0.47612   0.89893   0.00000  Uiso   1.00
C1345  C     0.76188   0.62039   0.76535   0.00000  Uiso   1.00
C1346  C     0.83514   0.57935   0.83291   0.00000  Uiso   1.00
C1347  C     0.91152   0.38184   0.89506   0.00000  Uiso   1.00
C1348  C     0.73499   0.50188   0.82155   0.00000  Uiso   1.00
C1349  C     0.93172   0.49845   0.84521   0.00000  Uiso   1.00
C1350  C     0.68061   0.50661   0.81581   0.00000  Uiso   1.00
C1351  C     0.98626   0.49490   0.85157   0.00000  Uiso   1.00
C1352  C     0.79212   0.35304   0.80809   0.00000  Uiso   1.00
C1353  C     0.87668   0.64696   0.85857   0.00000  Uiso   1.00
C1354  C     0.79738   0.64423   0.80243   0.00000  Uiso   1.00
Cu1355 Cu    0.83333   0.50001   0.88022   0.00000  Uiso   1.00
Cu1356 Cu    0.83333   0.49999   0.78645   0.00000  Uiso   1.00
H1357  H     0.77562   0.45322   0.70403   0.00000  Uiso   1.00
H1358  H     0.69831   0.49970   0.92082   0.00000  Uiso   1.00
H1359  H     0.68599   0.41900   0.81394   0.00000  Uiso   1.00
H1360  H     0.90077   0.62149   0.94872   0.00000  Uiso   1.00
H1361  H     0.78420   0.60465   0.74149   0.00000  Uiso   1.00
H1362  H     0.73796   0.59779   0.78296   0.00000  Uiso   1.00
H1363  H     0.73715   0.63974   0.74059   0.00000  Uiso   1.00
H1364  H     0.89206   0.39805   0.92079   0.00000  Uiso   1.00
H1365  H     0.94001   0.36421   0.91784   0.00000  Uiso   1.00
H1366  H     0.93191   0.40435   0.87391   0.00000  Uiso   1.00
H1367  H     0.89119   0.54673   0.96255   0.00000  Uiso   1.00
H1368  H     0.77649   0.45241   0.95049   0.00000  Uiso   1.00
H1369  H     0.89027   0.54756   0.71619   0.00000  Uiso   1.00
H1370  H     0.68799   0.53988   0.74886   0.00000  Uiso   1.00
H1371  H     0.96840   0.50455   0.74655   0.00000  Uiso   1.00
H1372  H     0.96892   0.55352   0.77689   0.00000  Uiso   1.00
H1373  H     0.97917   0.46395   0.92023   0.00000  Uiso   1.00
H1374  H     0.69839   0.44956   0.89361   0.00000  Uiso   1.00
N1375  N     0.83335   0.50001   0.95069   0.00000  Uiso   1.00
N1376  N     0.83332   0.49999   0.71597   0.00000  Uiso   1.00
O1377  O     0.83333   0.43989   0.87291   0.00000  Uiso   1.00
O1378  O     0.68956   0.34470   0.78884   0.00000  Uiso   1.00
O1379  O     0.72296   0.41471   0.82115   0.00000  Uiso   1.00
O1380  O     0.93879   0.58219   0.86294   0.00000  Uiso   1.00
O1381  O     0.97926   0.64969   0.87283   0.00000  Uiso   1.00
O1382  O     0.93624   0.61858   0.94248   0.00000  Uiso   1.00
O1383  O     0.83334   0.56011   0.79375   0.00000  Uiso   1.00
O1384  O     0.83333   0.43988   0.79372   0.00000  Uiso   1.00
O1385  O     0.83334   0.56012   0.87294   0.00000  Uiso   1.00
O1386  O     0.75828   0.50000   0.86379   0.00000  Uiso   1.00
O1387  O     0.90839   0.50000   0.80288   0.00000  Uiso   1.00
O1388  O     0.75828   0.49999   0.78460   0.00000  Uiso   1.00
O1389  O     0.90839   0.50001   0.88207   0.00000  Uiso   1.00
O1390  O     0.73341   0.39050   0.73705   0.00000  Uiso   1.00
S1391  S     0.73299   0.37558   0.78717   0.00000  Uiso   1.00
S1392  S     0.93417   0.62340   0.88338   0.00000  Uiso   1.00
C1393  C     0.16514   0.75402   0.83371   0.00000  Uiso   1.00
C1394  C     0.20613   0.68969   0.86226   0.00000  Uiso   1.00
C1395  C     0.17029   0.95754   0.83108   0.00000  Uiso   1.00
C1396  C     0.16495   0.70925   0.83531   0.00000  Uiso   1.00
C1397  C     0.13470   0.80723   0.68807   0.00000  Uiso   1.00
C1398  C     0.19869   0.85943   0.97857   0.00000  Uiso   1.00
C1399  C     0.13492   0.80705   0.97182   0.00000  Uiso   1.00
C1400  C     0.19845   0.85962   0.69484   0.00000  Uiso   1.00
C1401  C     0.32498   0.86050   0.76961   0.00000  Uiso   1.00
C1402  C     0.00867   0.80945   0.89893   0.00000  Uiso   1.00
C1403  C     0.09522   0.95372   0.76535   0.00000  Uiso   1.00
C1404  C     0.16847   0.91268   0.83291   0.00000  Uiso   1.00
C1405  C     0.24485   0.71517   0.89506   0.00000  Uiso   1.00
C1406  C     0.06833   0.83522   0.82155   0.00000  Uiso   1.00
C1407  C     0.26505   0.83178   0.84521   0.00000  Uiso   1.00
C1408  C     0.01394   0.83994   0.81581   0.00000  Uiso   1.00
C1409  C     0.31960   0.82823   0.85157   0.00000  Uiso   1.00
C1410  C     0.12545   0.68637   0.80809   0.00000  Uiso   1.00
C1411  C     0.21002   0.98029   0.85857   0.00000  Uiso   1.00
C1412  C     0.13072   0.97757   0.80243   0.00000  Uiso   1.00
Cu1413 Cu    0.16667   0.83334   0.88022   0.00000  Uiso   1.00
Cu1414 Cu    0.16667   0.83333   0.78645   0.00000  Uiso   1.00
H1415  H     0.10895   0.78656   0.70403   0.00000  Uiso   1.00
H1416  H     0.03164   0.83303   0.92082   0.00000  Uiso   1.00
H1417  H     0.01932   0.75233   0.81394   0.00000  Uiso   1.00
H1418  H     0.23410   0.95483   0.94872   0.00000  Uiso   1.00
H1419  H     0.11754   0.93798   0.74149   0.00000  Uiso   1.00
H1420  H     0.07129   0.93112   0.78296   0.00000  Uiso   1.00
H1421  H     0.07048   0.97307   0.74059   0.00000  Uiso   1.00
H1422  H     0.22539   0.73139   0.92079   0.00000  Uiso   1.00
H1423  H     0.27334   0.69754   0.91784   0.00000  Uiso   1.00
H1424  H     0.26525   0.73768   0.87391   0.00000  Uiso   1.00
H1425  H     0.22452   0.88007   0.96255   0.00000  Uiso   1.00
H1426  H     0.10982   0.78574   0.95049   0.00000  Uiso   1.00
H1427  H     0.22360   0.88089   0.71619   0.00000  Uiso   1.00
H1428  H     0.02133   0.87322   0.74886   0.00000  Uiso   1.00
H1429  H     0.30173   0.83789   0.74655   0.00000  Uiso   1.00
H1430  H     0.30226   0.88686   0.77689   0.00000  Uiso   1.00
H1431  H     0.31251   0.79728   0.92023   0.00000  Uiso   1.00
H1432  H     0.03173   0.78289   0.89361   0.00000  Uiso   1.00
N1433  N     0.16668   0.83334   0.95069   0.00000  Uiso   1.00
N1434  N     0.16665   0.83332   0.71597   0.00000  Uiso   1.00
O1435  O     0.16666   0.77322   0.87291   0.00000  Uiso   1.00
O1436  O     0.02289   0.67804   0.78884   0.00000  Uiso   1.00
O1437  O     0.05629   0.74805   0.82115   0.00000  Uiso   1.00
O1438  O     0.27213   0.91552   0.86294   0.00000  Uiso   1.00
O1439  O     0.31259   0.98302   0.87283   0.00000  Uiso   1.00
O1440  O     0.26957   0.95191   0.94248   0.00000  Uiso   1.00
O1441  O     0.16667   0.89345   0.79375   0.00000  Uiso   1.00
O1442  O     0.16666   0.77321   0.79372   0.00000  Uiso   1.00
O1443  O     0.16667   0.89346   0.87294   0.00000  Uiso   1.00
O1444  O     0.09161   0.83334   0.86379   0.00000  Uiso   1.00
O1445  O     0.24172   0.83333   0.80288   0.00000  Uiso   1.00
O1446  O     0.09161   0.83333   0.78460   0.00000  Uiso   1.00
O1447  O     0.24172   0.83334   0.88207   0.00000  Uiso   1.00
O1448  O     0.06674   0.72383   0.73705   0.00000  Uiso   1.00
S1449  S     0.06632   0.70892   0.78717   0.00000  Uiso   1.00
S1450  S     0.26751   0.95673   0.88338   0.00000  Uiso   1.00
C1451  C     0.49847   0.75402   0.83371   0.00000  Uiso   1.00
C1452  C     0.53946   0.68969   0.86226   0.00000  Uiso   1.00
C1453  C     0.50363   0.95754   0.83108   0.00000  Uiso   1.00
C1454  C     0.49828   0.70925   0.83531   0.00000  Uiso   1.00
C1455  C     0.46803   0.80723   0.68807   0.00000  Uiso   1.00
C1456  C     0.53202   0.85943   0.97857   0.00000  Uiso   1.00
C1457  C     0.46825   0.80705   0.97182   0.00000  Uiso   1.00
C1458  C     0.53178   0.85962   0.69484   0.00000  Uiso   1.00
C1459  C     0.65831   0.86050   0.76961   0.00000  Uiso   1.00
C1460  C     0.34200   0.80945   0.89893   0.00000  Uiso   1.00
C1461  C     0.42855   0.95372   0.76535   0.00000  Uiso   1.00
C1462  C     0.50180   0.91268   0.83291   0.00000  Uiso   1.00
C1463  C     0.57818   0.71517   0.89506   0.00000  Uiso   1.00
C1464  C     0.40166   0.83522   0.82155   0.00000  Uiso   1.00
C1465  C     0.59839   0.83178   0.84521   0.00000  Uiso   1.00
C1466  C     0.34728   0.83994   0.81581   0.00000  Uiso   1.00
C1467  C     0.65293   0.82823   0.85157   0.00000  Uiso   1.00
C1468  C     0.45878   0.68637   0.80809   0.00000  Uiso   1.00
C1469  C     0.54335   0.98029   0.85857   0.00000  Uiso   1.00
C1470  C     0.46405   0.97757   0.80243   0.00000  Uiso   1.00
Cu1471 Cu    0.50000   0.83334   0.88022   0.00000  Uiso   1.00
Cu1472 Cu    0.50000   0.83333   0.78645   0.00000  Uiso   1.00
H1473  H     0.44228   0.78656   0.70403   0.00000  Uiso   1.00
H1474  H     0.36498   0.83303   0.92082   0.00000  Uiso   1.00
H1475  H     0.35265   0.75233   0.81394   0.00000  Uiso   1.00
H1476  H     0.56744   0.95483   0.94872   0.00000  Uiso   1.00
H1477  H     0.45087   0.93798   0.74149   0.00000  Uiso   1.00
H1478  H     0.40462   0.93112   0.78296   0.00000  Uiso   1.00
H1479  H     0.40381   0.97307   0.74059   0.00000  Uiso   1.00
H1480  H     0.55873   0.73139   0.92079   0.00000  Uiso   1.00
H1481  H     0.60668   0.69754   0.91784   0.00000  Uiso   1.00
H1482  H     0.59858   0.73768   0.87391   0.00000  Uiso   1.00
H1483  H     0.55786   0.88007   0.96255   0.00000  Uiso   1.00
H1484  H     0.44316   0.78574   0.95049   0.00000  Uiso   1.00
H1485  H     0.55693   0.88089   0.71619   0.00000  Uiso   1.00
H1486  H     0.35466   0.87322   0.74886   0.00000  Uiso   1.00
H1487  H     0.63507   0.83789   0.74655   0.00000  Uiso   1.00
H1488  H     0.63559   0.88686   0.77689   0.00000  Uiso   1.00
H1489  H     0.64584   0.79728   0.92023   0.00000  Uiso   1.00
H1490  H     0.36506   0.78289   0.89361   0.00000  Uiso   1.00
N1491  N     0.50001   0.83334   0.95069   0.00000  Uiso   1.00
N1492  N     0.49999   0.83332   0.71597   0.00000  Uiso   1.00
O1493  O     0.50000   0.77322   0.87291   0.00000  Uiso   1.00
O1494  O     0.35622   0.67804   0.78884   0.00000  Uiso   1.00
O1495  O     0.38963   0.74805   0.82115   0.00000  Uiso   1.00
O1496  O     0.60546   0.91552   0.86294   0.00000  Uiso   1.00
O1497  O     0.64593   0.98302   0.87283   0.00000  Uiso   1.00
O1498  O     0.60291   0.95191   0.94248   0.00000  Uiso   1.00
O1499  O     0.50000   0.89345   0.79375   0.00000  Uiso   1.00
O1500  O     0.50000   0.77321   0.79372   0.00000  Uiso   1.00
O1501  O     0.50000   0.89346   0.87294   0.00000  Uiso   1.00
O1502  O     0.42495   0.83334   0.86379   0.00000  Uiso   1.00
O1503  O     0.57505   0.83333   0.80288   0.00000  Uiso   1.00
O1504  O     0.42494   0.83333   0.78460   0.00000  Uiso   1.00
O1505  O     0.57506   0.83334   0.88207   0.00000  Uiso   1.00
O1506  O     0.40008   0.72383   0.73705   0.00000  Uiso   1.00
S1507  S     0.39966   0.70892   0.78717   0.00000  Uiso   1.00
S1508  S     0.60084   0.95673   0.88338   0.00000  Uiso   1.00
C1509  C     0.83180   0.75402   0.83371   0.00000  Uiso   1.00
C1510  C     0.87280   0.68969   0.86226   0.00000  Uiso   1.00
C1511  C     0.83696   0.95754   0.83108   0.00000  Uiso   1.00
C1512  C     0.83162   0.70925   0.83531   0.00000  Uiso   1.00
C1513  C     0.80136   0.80723   0.68807   0.00000  Uiso   1.00
C1514  C     0.86536   0.85943   0.97857   0.00000  Uiso   1.00
C1515  C     0.80158   0.80705   0.97182   0.00000  Uiso   1.00
C1516  C     0.86512   0.85962   0.69484   0.00000  Uiso   1.00
C1517  C     0.99165   0.86050   0.76961   0.00000  Uiso   1.00
C1518  C     0.67534   0.80945   0.89893   0.00000  Uiso   1.00
C1519  C     0.76188   0.95372   0.76535   0.00000  Uiso   1.00
C1520  C     0.83514   0.91268   0.83291   0.00000  Uiso   1.00
C1521  C     0.91152   0.71517   0.89506   0.00000  Uiso   1.00
C1522  C     0.73499   0.83522   0.82155   0.00000  Uiso   1.00
C1523  C     0.93172   0.83178   0.84521   0.00000  Uiso   1.00
C1524  C     0.68061   0.83994   0.81581   0.00000  Uiso   1.00
C1525  C     0.98626   0.82823   0.85157   0.00000  Uiso   1.00
C1526  C     0.79212   0.68637   0.80809   0.00000  Uiso   1.00
C1527  C     0.87668   0.98029   0.85857   0.00000  Uiso   1.00
C1528  C     0.79738   0.97757   0.80243   0.00000  Uiso   1.00
Cu1529 Cu    0.83333   0.83334   0.88022   0.00000  Uiso   1.00
Cu1530 Cu    0.83333   0.83333   0.78645   0.00000  Uiso   1.00
H1531  H     0.77562   0.78656   0.70403   0.00000  Uiso   1.00
H1532  H     0.69831   0.83303   0.92082   0.00000  Uiso   1.00
H1533  H     0.68599   0.75233   0.81394   0.00000  Uiso   1.00
H1534  H     0.90077   0.95483   0.94872   0.00000  Uiso   1.00
H1535  H     0.78420   0.93798   0.74149   0.00000  Uiso   1.00
H1536  H     0.73796   0.93112   0.78296   0.00000  Uiso   1.00
H1537  H     0.73715   0.97307   0.74059   0.00000  Uiso   1.00
H1538  H     0.89206   0.73139   0.92079   0.00000  Uiso   1.00
H1539  H     0.94001   0.69754   0.91784   0.00000  Uiso   1.00
H1540  H     0.93191   0.73768   0.87391   0.00000  Uiso   1.00
H1541  H     0.89119   0.88007   0.96255   0.00000  Uiso   1.00
H1542  H     0.77649   0.78574   0.95049   0.00000  Uiso   1.00
H1543  H     0.89027   0.88089   0.71619   0.00000  Uiso   1.00
H1544  H     0.68799   0.87322   0.74886   0.00000  Uiso   1.00
H1545  H     0.96840   0.83789   0.74655   0.00000  Uiso   1.00
H1546  H     0.96892   0.88686   0.77689   0.00000  Uiso   1.00
H1547  H     0.97917   0.79728   0.92023   0.00000  Uiso   1.00
H1548  H     0.69839   0.78289   0.89361   0.00000  Uiso   1.00
N1549  N     0.83335   0.83334   0.95069   0.00000  Uiso   1.00
N1550  N     0.83332   0.83332   0.71597   0.00000  Uiso   1.00
O1551  O     0.83333   0.77322   0.87291   0.00000  Uiso   1.00
O1552  O     0.68956   0.67804   0.78884   0.00000  Uiso   1.00
O1553  O     0.72296   0.74805   0.82115   0.00000  Uiso   1.00
O1554  O     0.93879   0.91552   0.86294   0.00000  Uiso   1.00
O1555  O     0.97926   0.98302   0.87283   0.00000  Uiso   1.00
O1556  O     0.93624   0.95191   0.94248   0.00000  Uiso   1.00
O1557  O     0.83334   0.89345   0.79375   0.00000  Uiso   1.00
O1558  O     0.83333   0.77321   0.79372   0.00000  Uiso   1.00
O1559  O     0.83334   0.89346   0.87294   0.00000  Uiso   1.00
O1560  O     0.75828   0.83334   0.86379   0.00000  Uiso   1.00
O1561  O     0.90839   0.83333   0.80288   0.00000  Uiso   1.00
O1562  O     0.75828   0.83333   0.78460   0.00000  Uiso   1.00
O1563  O     0.90839   0.83334   0.88207   0.00000  Uiso   1.00
O1564  O     0.73341   0.72383   0.73705   0.00000  Uiso   1.00
S1565  S     0.73299   0.70892   0.78717   0.00000  Uiso   1.00
S1566  S     0.93417   0.95673   0.88338   0.00000  Uiso   1.00
loop_
_geom_bond_atom_site_label_1
_geom_bond_atom_site_label_2
_geom_bond_distance
_geom_bond_site_symmetry_2
_ccdc_geom_bond_type
C1     O50     1.294   .     A
C1     C4      1.462   .     S
C1     O43     1.288   .     A
C2     C4      1.416   .     A
C2     C13     1.525   .     S
C2     C367    1.411   1_545 S
C3     C20     1.415   .     A
C3     C19     1.419   .     A
C3     C12     1.464   .     S
C4     C18     1.414   .     A
C5     N42     1.365   .     A
C5     H23     1.078   .     S
C5     C1051   1.415   1_554 S
C6     H33     1.079   .     S
C6     N41     1.366   .     A
C6     C530    1.415   .     S
C7     N41     1.366   .     A
C7     H34     1.080   .     S
C7     C527    1.415   .     S
C8     H35     1.081   .     S
C8     N42     1.366   .     A
C8     C1050   1.415   1_554 S
C9     H37     1.110   .     S
C9     H38     1.111   .     S
C9     C74     1.523   .     S
C9     H94     1.109   .     S
C10    H40     1.107   .     S
C10    H24     1.110   .     S
C10    C133    1.527   1_455 S
C10    H155    1.110   1_455 S
C11    H27     1.108   .     S
C11    H28     1.109   .     S
C11    C20     1.522   .     S
C11    H29     1.104   .     S
C12    O49     1.287   .     A
C12    O51     1.296   .     A
C13    H30     1.108   .     S
C13    H32     1.110   .     S
C13    H31     1.102   .     S
C14    O54     1.295   .     A
C14    C16     1.445   .     S
C14    O52     1.279   .     A
C15    O53     1.281   .     A
C15    C17     1.444   .     S
C15    O55     1.293   .     A
C16    C125    1.523   1_455 S
C16    C133    1.374   1_455 S
C17    C68     1.527   .     S
C17    C74     1.374   .     S
C18    S57     1.785   .     S
C18    C368    1.404   1_545 S
C19    S58     1.791   .     S
C19    C176    1.411   .     S
C20    C192    1.404   .     S
Cu21   O43     1.979   .     S
Cu21   Cu22    2.674   .     S
Cu21   N41     2.009   .     S
Cu21   O51     1.970   .     S
Cu21   O55     1.986   .     S
Cu21   O52     1.984   .     S
Cu22   O50     1.970   .     S
Cu22   O54     1.986   .     S
Cu22   N42     2.009   .     S
Cu22   O49     1.979   .     S
Cu22   O53     1.984   .     S
H25    O45     0.991   .     S
H26    O48     0.991   .     S
H36    C125    1.109   1_455 S
H39    C68     1.110   .     S
O44    S57     1.504   .     D
O45    S57     1.672   .     S
O46    S58     1.494   .     D
O47    S58     1.503   .     D
O48    S58     1.682   .     S
O56    S57     1.501   .     D
C59    O108    1.294   .     A
C59    C62     1.462   .     S
C59    O101    1.288   .     A
C60    C62     1.416   .     A
C60    C71     1.525   .     S
C60    C425    1.411   1_545 S
C61    C78     1.415   .     A
C61    C77     1.419   .     A
C61    C70     1.464   .     S
C62    C76     1.414   .     A
C63    N100    1.365   .     A
C63    H81     1.078   .     S
C63    C1109   1.415   1_554 S
C64    H91     1.079   .     S
C64    N99     1.366   .     A
C64    C588    1.415   .     S
C65    N99     1.366   .     A
C65    H92     1.080   .     S
C65    C585    1.415   .     S
C66    H93     1.081   .     S
C66    N100    1.366   .     A
C66    C1108   1.415   1_554 S
C67    H95     1.110   .     S
C67    H96     1.111   .     S
C67    C132    1.523   .     S
C67    H152    1.109   .     S
C68    H98     1.107   .     S
C68    H82     1.110   .     S
C69    H85     1.108   .     S
C69    H86     1.109   .     S
C69    C78     1.522   .     S
C69    H87     1.104   .     S
C70    O107    1.287   .     A
C70    O109    1.296   .     A
C71    H88     1.108   .     S
C71    H90     1.110   .     S
C71    H89     1.102   .     S
C72    O112    1.295   .     A
C72    C74     1.445   .     S
C72    O110    1.279   .     A
C73    O111    1.281   .     A
C73    C75     1.444   .     S
C73    O113    1.293   .     A
C75    C126    1.527   .     S
C75    C132    1.374   .     S
C76    S115    1.785   .     S
C76    C426    1.404   1_545 S
C77    S116    1.791   .     S
C77    C234    1.411   .     S
C78    C250    1.404   .     S
Cu79   O101    1.979   .     S
Cu79   Cu80    2.674   .     S
Cu79   N99     2.009   .     S
Cu79   O109    1.970   .     S
Cu79   O113    1.986   .     S
Cu79   O110    1.984   .     S
Cu80   O108    1.970   .     S
Cu80   O112    1.986   .     S
Cu80   N100    2.009   .     S
Cu80   O107    1.979   .     S
Cu80   O111    1.984   .     S
H83    O103    0.991   .     S
H84    O106    0.991   .     S
H97    C126    1.110   .     S
O102   S115    1.504   .     D
O103   S115    1.672   .     S
O104   S116    1.494   .     D
O105   S116    1.503   .     D
O106   S116    1.682   .     S
O114   S115    1.501   .     D
C117   O166    1.294   .     A
C117   C120    1.462   .     S
C117   O159    1.288   .     A
C118   C120    1.416   .     A
C118   C129    1.525   .     S
C118   C483    1.411   1_545 S
C119   C136    1.415   .     A
C119   C135    1.419   .     A
C119   C128    1.464   .     S
C120   C134    1.414   .     A
C121   N158    1.365   .     A
C121   H139    1.078   .     S
C121   C1167   1.415   1_554 S
C122   H149    1.079   .     S
C122   N157    1.366   .     A
C122   C646    1.415   .     S
C123   N157    1.366   .     A
C123   H150    1.080   .     S
C123   C643    1.415   .     S
C124   H151    1.081   .     S
C124   N158    1.366   .     A
C124   C1166   1.415   1_554 S
C125   H153    1.110   .     S
C125   H154    1.111   .     S
C125   C16     1.523   1_655 S
C125   H36     1.109   1_655 S
C126   H156    1.107   .     S
C126   H140    1.110   .     S
C127   H143    1.108   .     S
C127   H144    1.109   .     S
C127   C136    1.522   .     S
C127   H145    1.104   .     S
C128   O165    1.287   .     A
C128   O167    1.296   .     A
C129   H146    1.108   .     S
C129   H148    1.110   .     S
C129   H147    1.102   .     S
C130   O170    1.295   .     A
C130   C132    1.445   .     S
C130   O168    1.279   .     A
C131   O169    1.281   .     A
C131   C133    1.444   .     S
C131   O171    1.293   .     A
C133   C10     1.527   1_655 S
C133   C16     1.374   1_655 S
C134   S173    1.785   .     S
C134   C484    1.404   1_545 S
C135   S174    1.791   .     S
C135   C292    1.411   .     S
C136   C308    1.404   .     S
Cu137  O159    1.979   .     S
Cu137  Cu138   2.674   .     S
Cu137  N157    2.009   .     S
Cu137  O167    1.970   .     S
Cu137  O171    1.986   .     S
Cu137  O168    1.984   .     S
Cu138  O166    1.970   .     S
Cu138  O170    1.986   .     S
Cu138  N158    2.009   .     S
Cu138  O165    1.979   .     S
Cu138  O169    1.984   .     S
H141   O161    0.991   .     S
H142   O164    0.991   .     S
H155   C10     1.110   1_655 S
O160   S173    1.504   .     D
O161   S173    1.672   .     S
O162   S174    1.494   .     D
O163   S174    1.503   .     D
O164   S174    1.682   .     S
O172   S173    1.501   .     D
C175   O224    1.294   .     A
C175   C178    1.462   .     S
C175   O217    1.288   .     A
C176   C178    1.416   .     A
C176   C187    1.525   .     S
C177   C194    1.415   .     A
C177   C193    1.419   .     A
C177   C186    1.464   .     S
C178   C192    1.414   .     A
C179   N216    1.365   .     A
C179   H197    1.078   .     S
C179   C1225   1.415   1_554 S
C180   H207    1.079   .     S
C180   N215    1.366   .     A
C180   C704    1.415   .     S
C181   N215    1.366   .     A
C181   H208    1.080   .     S
C181   C701    1.415   .     S
C182   H209    1.081   .     S
C182   N216    1.366   .     A
C182   C1224   1.415   1_554 S
C183   H211    1.110   .     S
C183   H212    1.111   .     S
C183   C248    1.523   .     S
C183   H268    1.109   .     S
C184   H214    1.107   .     S
C184   H198    1.110   .     S
C184   C307    1.527   1_455 S
C184   H329    1.110   1_455 S
C185   H201    1.108   .     S
C185   H202    1.109   .     S
C185   C194    1.522   .     S
C185   H203    1.104   .     S
C186   O223    1.287   .     A
C186   O225    1.296   .     A
C187   H204    1.108   .     S
C187   H206    1.110   .     S
C187   H205    1.102   .     S
C188   O228    1.295   .     A
C188   C190    1.445   .     S
C188   O226    1.279   .     A
C189   O227    1.281   .     A
C189   C191    1.444   .     S
C189   O229    1.293   .     A
C190   C299    1.523   1_455 S
C190   C307    1.374   1_455 S
C191   C242    1.527   .     S
C191   C248    1.374   .     S
C192   S231    1.785   .     S
C193   S232    1.791   .     S
C193   C350    1.411   .     S
C194   C366    1.404   .     S
Cu195  O217    1.979   .     S
Cu195  Cu196   2.674   .     S
Cu195  N215    2.009   .     S
Cu195  O225    1.970   .     S
Cu195  O229    1.986   .     S
Cu195  O226    1.984   .     S
Cu196  O224    1.970   .     S
Cu196  O228    1.986   .     S
Cu196  N216    2.009   .     S
Cu196  O223    1.979   .     S
Cu196  O227    1.984   .     S
H199   O219    0.991   .     S
H200   O222    0.991   .     S
H210   C299    1.109   1_455 S
H213   C242    1.110   .     S
O218   S231    1.504   .     D
O219   S231    1.672   .     S
O220   S232    1.494   .     D
O221   S232    1.503   .     D
O222   S232    1.682   .     S
O230   S231    1.501   .     D
C233   O282    1.294   .     A
C233   C236    1.462   .     S
C233   O275    1.288   .     A
C234   C236    1.416   .     A
C234   C245    1.525   .     S
C235   C252    1.415   .     A
C235   C251    1.419   .     A
C235   C244    1.464   .     S
C236   C250    1.414   .     A
C237   N274    1.365   .     A
C237   H255    1.078   .     S
C237   C1283   1.415   1_554 S
C238   H265    1.079   .     S
C238   N273    1.366   .     A
C238   C762    1.415   .     S
C239   N273    1.366   .     A
C239   H266    1.080   .     S
C239   C759    1.415   .     S
C240   H267    1.081   .     S
C240   N274    1.366   .     A
C240   C1282   1.415   1_554 S
C241   H269    1.110   .     S
C241   H270    1.111   .     S
C241   C306    1.523   .     S
C241   H326    1.109   .     S
C242   H272    1.107   .     S
C242   H256    1.110   .     S
C243   H259    1.108   .     S
C243   H260    1.109   .     S
C243   C252    1.522   .     S
C243   H261    1.104   .     S
C244   O281    1.287   .     A
C244   O283    1.296   .     A
C245   H262    1.108   .     S
C245   H264    1.110   .     S
C245   H263    1.102   .     S
C246   O286    1.295   .     A
C246   C248    1.445   .     S
C246   O284    1.279   .     A
C247   O285    1.281   .     A
C247   C249    1.444   .     S
C247   O287    1.293   .     A
C249   C300    1.527   .     S
C249   C306    1.374   .     S
C250   S289    1.785   .     S
C251   S290    1.791   .     S
C251   C408    1.411   .     S
C252   C424    1.404   .     S
Cu253  O275    1.979   .     S
Cu253  Cu254   2.674   .     S
Cu253  N273    2.009   .     S
Cu253  O283    1.970   .     S
Cu253  O287    1.986   .     S
Cu253  O284    1.984   .     S
Cu254  O282    1.970   .     S
Cu254  O286    1.986   .     S
Cu254  N274    2.009   .     S
Cu254  O281    1.979   .     S
Cu254  O285    1.984   .     S
H257   O277    0.991   .     S
H258   O280    0.991   .     S
H271   C300    1.110   .     S
O276   S289    1.504   .     D
O277   S289    1.672   .     S
O278   S290    1.494   .     D
O279   S290    1.503   .     D
O280   S290    1.682   .     S
O288   S289    1.501   .     D
C291   O340    1.294   .     A
C291   C294    1.462   .     S
C291   O333    1.288   .     A
C292   C294    1.416   .     A
C292   C303    1.525   .     S
C293   C310    1.415   .     A
C293   C309    1.419   .     A
C293   C302    1.464   .     S
C294   C308    1.414   .     A
C295   N332    1.365   .     A
C295   H313    1.078   .     S
C295   C1341   1.415   1_554 S
C296   H323    1.079   .     S
C296   N331    1.366   .     A
C296   C820    1.415   .     S
C297   N331    1.366   .     A
C297   H324    1.080   .     S
C297   C817    1.415   .     S
C298   H325    1.081   .     S
C298   N332    1.366   .     A
C298   C1340   1.415   1_554 S
C299   H327    1.110   .     S
C299   H328    1.111   .     S
C299   C190    1.523   1_655 S
C299   H210    1.109   1_655 S
C300   H330    1.107   .     S
C300   H314    1.110   .     S
C301   H317    1.108   .     S
C301   H318    1.109   .     S
C301   C310    1.522   .     S
C301   H319    1.104   .     S
C302   O339    1.287   .     A
C302   O341    1.296   .     A
C303   H320    1.108   .     S
C303   H322    1.110   .     S
C303   H321    1.102   .     S
C304   O344    1.295   .     A
C304   C306    1.445   .     S
C304   O342    1.279   .     A
C305   O343    1.281   .     A
C305   C307    1.444   .     S
C305   O345    1.293   .     A
C307   C184    1.527   1_655 S
C307   C190    1.374   1_655 S
C308   S347    1.785   .     S
C309   S348    1.791   .     S
C309   C466    1.411   .     S
C310   C482    1.404   .     S
Cu311  O333    1.979   .     S
Cu311  Cu312   2.674   .     S
Cu311  N331    2.009   .     S
Cu311  O341    1.970   .     S
Cu311  O345    1.986   .     S
Cu311  O342    1.984   .     S
Cu312  O340    1.970   .     S
Cu312  O344    1.986   .     S
Cu312  N332    2.009   .     S
Cu312  O339    1.979   .     S
Cu312  O343    1.984   .     S
H315   O335    0.991   .     S
H316   O338    0.991   .     S
H329   C184    1.110   1_655 S
O334   S347    1.504   .     D
O335   S347    1.672   .     S
O336   S348    1.494   .     D
O337   S348    1.503   .     D
O338   S348    1.682   .     S
O346   S347    1.501   .     D
C349   O398    1.294   .     A
C349   C352    1.462   .     S
C349   O391    1.288   .     A
C350   C352    1.416   .     A
C350   C361    1.525   .     S
C351   C368    1.415   .     A
C351   C367    1.419   .     A
C351   C360    1.464   .     S
C352   C366    1.414   .     A
C353   N390    1.365   .     A
C353   H371    1.078   .     S
C353   C1399   1.415   1_554 S
C354   H381    1.079   .     S
C354   N389    1.366   .     A
C354   C878    1.415   .     S
C355   N389    1.366   .     A
C355   H382    1.080   .     S
C355   C875    1.415   .     S
C356   H383    1.081   .     S
C356   N390    1.366   .     A
C356   C1398   1.415   1_554 S
C357   H385    1.110   .     S
C357   H386    1.111   .     S
C357   C422    1.523   .     S
C357   H442    1.109   .     S
C358   H388    1.107   .     S
C358   H372    1.110   .     S
C358   C481    1.527   1_455 S
C358   H503    1.110   1_455 S
C359   H375    1.108   .     S
C359   H376    1.109   .     S
C359   C368    1.522   .     S
C359   H377    1.104   .     S
C360   O397    1.287   .     A
C360   O399    1.296   .     A
C361   H378    1.108   .     S
C361   H380    1.110   .     S
C361   H379    1.102   .     S
C362   O402    1.295   .     A
C362   C364    1.445   .     S
C362   O400    1.279   .     A
C363   O401    1.281   .     A
C363   C365    1.444   .     S
C363   O403    1.293   .     A
C364   C473    1.523   1_455 S
C364   C481    1.374   1_455 S
C365   C416    1.527   .     S
C365   C422    1.374   .     S
C366   S405    1.785   .     S
C367   S406    1.791   .     S
C367   C2      1.411   1_565 S
C368   C18     1.404   1_565 S
Cu369  O391    1.979   .     S
Cu369  Cu370   2.674   .     S
Cu369  N389    2.009   .     S
Cu369  O399    1.970   .     S
Cu369  O403    1.986   .     S
Cu369  O400    1.984   .     S
Cu370  O398    1.970   .     S
Cu370  O402    1.986   .     S
Cu370  N390    2.009   .     S
Cu370  O397    1.979   .     S
Cu370  O401    1.984   .     S
H373   O393    0.991   .     S
H374   O396    0.991   .     S
H384   C473    1.109   1_455 S
H387   C416    1.110   .     S
O392   S405    1.504   .     D
O393   S405    1.672   .     S
O394   S406    1.494   .     D
O395   S406    1.503   .     D
O396   S406    1.682   .     S
O404   S405    1.501   .     D
C407   O456    1.294   .     A
C407   C410    1.462   .     S
C407   O449    1.288   .     A
C408   C410    1.416   .     A
C408   C419    1.525   .     S
C409   C426    1.415   .     A
C409   C425    1.419   .     A
C409   C418    1.464   .     S
C410   C424    1.414   .     A
C411   N448    1.365   .     A
C411   H429    1.078   .     S
C411   C1457   1.415   1_554 S
C412   H439    1.079   .     S
C412   N447    1.366   .     A
C412   C936    1.415   .     S
C413   N447    1.366   .     A
C413   H440    1.080   .     S
C413   C933    1.415   .     S
C414   H441    1.081   .     S
C414   N448    1.366   .     A
C414   C1456   1.415   1_554 S
C415   H443    1.110   .     S
C415   H444    1.111   .     S
C415   C480    1.523   .     S
C415   H500    1.109   .     S
C416   H446    1.107   .     S
C416   H430    1.110   .     S
C417   H433    1.108   .     S
C417   H434    1.109   .     S
C417   C426    1.522   .     S
C417   H435    1.104   .     S
C418   O455    1.287   .     A
C418   O457    1.296   .     A
C419   H436    1.108   .     S
C419   H438    1.110   .     S
C419   H437    1.102   .     S
C420   O460    1.295   .     A
C420   C422    1.445   .     S
C420   O458    1.279   .     A
C421   O459    1.281   .     A
C421   C423    1.444   .     S
C421   O461    1.293   .     A
C423   C474    1.527   .     S
C423   C480    1.374   .     S
C424   S463    1.785   .     S
C425   S464    1.791   .     S
C425   C60     1.411   1_565 S
C426   C76     1.404   1_565 S
Cu427  O449    1.979   .     S
Cu427  Cu428   2.674   .     S
Cu427  N447    2.009   .     S
Cu427  O457    1.970   .     S
Cu427  O461    1.986   .     S
Cu427  O458    1.984   .     S
Cu428  O456    1.970   .     S
Cu428  O460    1.986   .     S
Cu428  N448    2.009   .     S
Cu428  O455    1.979   .     S
Cu428  O459    1.984   .     S
H431   O451    0.991   .     S
H432   O454    0.991   .     S
H445   C474    1.110   .     S
O450   S463    1.504   .     D
O451   S463    1.672   .     S
O452   S464    1.494   .     D
O453   S464    1.503   .     D
O454   S464    1.682   .     S
O462   S463    1.501   .     D
C465   O514    1.294   .     A
C465   C468    1.462   .     S
C465   O507    1.288   .     A
C466   C468    1.416   .     A
C466   C477    1.525   .     S
C467   C484    1.415   .     A
C467   C483    1.419   .     A
C467   C476    1.464   .     S
C468   C482    1.414   .     A
C469   N506    1.365   .     A
C469   H487    1.078   .     S
C469   C1515   1.415   1_554 S
C470   H497    1.079   .     S
C470   N505    1.366   .     A
C470   C994    1.415   .     S
C471   N505    1.366   .     A
C471   H498    1.080   .     S
C471   C991    1.415   .     S
C472   H499    1.081   .     S
C472   N506    1.366   .     A
C472   C1514   1.415   1_554 S
C473   H501    1.110   .     S
C473   H502    1.111   .     S
C473   C364    1.523   1_655 S
C473   H384    1.109   1_655 S
C474   H504    1.107   .     S
C474   H488    1.110   .     S
C475   H491    1.108   .     S
C475   H492    1.109   .     S
C475   C484    1.522   .     S
C475   H493    1.104   .     S
C476   O513    1.287   .     A
C476   O515    1.296   .     A
C477   H494    1.108   .     S
C477   H496    1.110   .     S
C477   H495    1.102   .     S
C478   O518    1.295   .     A
C478   C480    1.445   .     S
C478   O516    1.279   .     A
C479   O517    1.281   .     A
C479   C481    1.444   .     S
C479   O519    1.293   .     A
C481   C358    1.527   1_655 S
C481   C364    1.374   1_655 S
C482   S521    1.785   .     S
C483   S522    1.791   .     S
C483   C118    1.411   1_565 S
C484   C134    1.404   1_565 S
Cu485  O507    1.979   .     S
Cu485  Cu486   2.674   .     S
Cu485  N505    2.009   .     S
Cu485  O515    1.970   .     S
Cu485  O519    1.986   .     S
Cu485  O516    1.984   .     S
Cu486  O514    1.970   .     S
Cu486  O518    1.986   .     S
Cu486  N506    2.009   .     S
Cu486  O513    1.979   .     S
Cu486  O517    1.984   .     S
H489   O509    0.991   .     S
H490   O512    0.991   .     S
H503   C358    1.110   1_655 S
O508   S521    1.504   .     D
O509   S521    1.672   .     S
O510   S522    1.494   .     D
O511   S522    1.503   .     D
O512   S522    1.682   .     S
O520   S521    1.501   .     D
C523   O572    1.294   .     A
C523   C526    1.462   .     S
C523   O565    1.288   .     A
C524   C526    1.416   .     A
C524   C535    1.525   .     S
C524   C889    1.411   1_545 S
C525   C542    1.415   .     A
C525   C541    1.419   .     A
C525   C534    1.464   .     S
C526   C540    1.414   .     A
C527   N564    1.365   .     A
C527   H545    1.078   .     S
C528   H555    1.079   .     S
C528   N563    1.366   .     A
C528   C1052   1.415   .     S
C529   N563    1.366   .     A
C529   H556    1.080   .     S
C529   C1049   1.415   .     S
C530   H557    1.081   .     S
C530   N564    1.366   .     A
C531   H559    1.110   .     S
C531   H560    1.111   .     S
C531   C596    1.523   .     S
C531   H616    1.109   .     S
C532   H562    1.107   .     S
C532   H546    1.110   .     S
C532   C655    1.527   1_455 S
C532   H677    1.110   1_455 S
C533   H549    1.108   .     S
C533   H550    1.109   .     S
C533   C542    1.522   .     S
C533   H551    1.104   .     S
C534   O571    1.287   .     A
C534   O573    1.296   .     A
C535   H552    1.108   .     S
C535   H554    1.110   .     S
C535   H553    1.102   .     S
C536   O576    1.295   .     A
C536   C538    1.445   .     S
C536   O574    1.279   .     A
C537   O575    1.281   .     A
C537   C539    1.444   .     S
C537   O577    1.293   .     A
C538   C647    1.523   1_455 S
C538   C655    1.374   1_455 S
C539   C590    1.527   .     S
C539   C596    1.374   .     S
C540   S579    1.785   .     S
C540   C890    1.404   1_545 S
C541   S580    1.791   .     S
C541   C698    1.411   .     S
C542   C714    1.404   .     S
Cu543  O565    1.979   .     S
Cu543  Cu544   2.674   .     S
Cu543  N563    2.009   .     S
Cu543  O573    1.970   .     S
Cu543  O577    1.986   .     S
Cu543  O574    1.984   .     S
Cu544  O572    1.970   .     S
Cu544  O576    1.986   .     S
Cu544  N564    2.009   .     S
Cu544  O571    1.979   .     S
Cu544  O575    1.984   .     S
H547   O567    0.991   .     S
H548   O570    0.991   .     S
H558   C647    1.109   1_455 S
H561   C590    1.110   .     S
O566   S579    1.504   .     D
O567   S579    1.672   .     S
O568   S580    1.494   .     D
O569   S580    1.503   .     D
O570   S580    1.682   .     S
O578   S579    1.501   .     D
C581   O630    1.294   .     A
C581   C584    1.462   .     S
C581   O623    1.288   .     A
C582   C584    1.416   .     A
C582   C593    1.525   .     S
C582   C947    1.411   1_545 S
C583   C600    1.415   .     A
C583   C599    1.419   .     A
C583   C592    1.464   .     S
C584   C598    1.414   .     A
C585   N622    1.365   .     A
C585   H603    1.078   .     S
C586   H613    1.079   .     S
C586   N621    1.366   .     A
C586   C1110   1.415   .     S
C587   N621    1.366   .     A
C587   H614    1.080   .     S
C587   C1107   1.415   .     S
C588   H615    1.081   .     S
C588   N622    1.366   .     A
C589   H617    1.110   .     S
C589   H618    1.111   .     S
C589   C654    1.523   .     S
C589   H674    1.109   .     S
C590   H620    1.107   .     S
C590   H604    1.110   .     S
C591   H607    1.108   .     S
C591   H608    1.109   .     S
C591   C600    1.522   .     S
C591   H609    1.104   .     S
C592   O629    1.287   .     A
C592   O631    1.296   .     A
C593   H610    1.108   .     S
C593   H612    1.110   .     S
C593   H611    1.102   .     S
C594   O634    1.295   .     A
C594   C596    1.445   .     S
C594   O632    1.279   .     A
C595   O633    1.281   .     A
C595   C597    1.444   .     S
C595   O635    1.293   .     A
C597   C648    1.527   .     S
C597   C654    1.374   .     S
C598   S637    1.785   .     S
C598   C948    1.404   1_545 S
C599   S638    1.791   .     S
C599   C756    1.411   .     S
C600   C772    1.404   .     S
Cu601  O623    1.979   .     S
Cu601  Cu602   2.674   .     S
Cu601  N621    2.009   .     S
Cu601  O631    1.970   .     S
Cu601  O635    1.986   .     S
Cu601  O632    1.984   .     S
Cu602  O630    1.970   .     S
Cu602  O634    1.986   .     S
Cu602  N622    2.009   .     S
Cu602  O629    1.979   .     S
Cu602  O633    1.984   .     S
H605   O625    0.991   .     S
H606   O628    0.991   .     S
H619   C648    1.110   .     S
O624   S637    1.504   .     D
O625   S637    1.672   .     S
O626   S638    1.494   .     D
O627   S638    1.503   .     D
O628   S638    1.682   .     S
O636   S637    1.501   .     D
C639   O688    1.294   .     A
C639   C642    1.462   .     S
C639   O681    1.288   .     A
C640   C642    1.416   .     A
C640   C651    1.525   .     S
C640   C1005   1.411   1_545 S
C641   C658    1.415   .     A
C641   C657    1.419   .     A
C641   C650    1.464   .     S
C642   C656    1.414   .     A
C643   N680    1.365   .     A
C643   H661    1.078   .     S
C644   H671    1.079   .     S
C644   N679    1.366   .     A
C644   C1168   1.415   .     S
C645   N679    1.366   .     A
C645   H672    1.080   .     S
C645   C1165   1.415   .     S
C646   H673    1.081   .     S
C646   N680    1.366   .     A
C647   H675    1.110   .     S
C647   H676    1.111   .     S
C647   C538    1.523   1_655 S
C647   H558    1.109   1_655 S
C648   H678    1.107   .     S
C648   H662    1.110   .     S
C649   H665    1.108   .     S
C649   H666    1.109   .     S
C649   C658    1.522   .     S
C649   H667    1.104   .     S
C650   O687    1.287   .     A
C650   O689    1.296   .     A
C651   H668    1.108   .     S
C651   H670    1.110   .     S
C651   H669    1.102   .     S
C652   O692    1.295   .     A
C652   C654    1.445   .     S
C652   O690    1.279   .     A
C653   O691    1.281   .     A
C653   C655    1.444   .     S
C653   O693    1.293   .     A
C655   C532    1.527   1_655 S
C655   C538    1.374   1_655 S
C656   S695    1.785   .     S
C656   C1006   1.404   1_545 S
C657   S696    1.791   .     S
C657   C814    1.411   .     S
C658   C830    1.404   .     S
Cu659  O681    1.979   .     S
Cu659  Cu660   2.674   .     S
Cu659  N679    2.009   .     S
Cu659  O689    1.970   .     S
Cu659  O693    1.986   .     S
Cu659  O690    1.984   .     S
Cu660  O688    1.970   .     S
Cu660  O692    1.986   .     S
Cu660  N680    2.009   .     S
Cu660  O687    1.979   .     S
Cu660  O691    1.984   .     S
H663   O683    0.991   .     S
H664   O686    0.991   .     S
H677   C532    1.110   1_655 S
O682   S695    1.504   .     D
O683   S695    1.672   .     S
O684   S696    1.494   .     D
O685   S696    1.503   .     D
O686   S696    1.682   .     S
O694   S695    1.501   .     D
C697   O746    1.294   .     A
C697   C700    1.462   .     S
C697   O739    1.288   .     A
C698   C700    1.416   .     A
C698   C709    1.525   .     S
C699   C716    1.415   .     A
C699   C715    1.419   .     A
C699   C708    1.464   .     S
C700   C714    1.414   .     A
C701   N738    1.365   .     A
C701   H719    1.078   .     S
C702   H729    1.079   .     S
C702   N737    1.366   .     A
C702   C1226   1.415   .     S
C703   N737    1.366   .     A
C703   H730    1.080   .     S
C703   C1223   1.415   .     S
C704   H731    1.081   .     S
C704   N738    1.366   .     A
C705   H733    1.110   .     S
C705   H734    1.111   .     S
C705   C770    1.523   .     S
C705   H790    1.109   .     S
C706   H736    1.107   .     S
C706   H720    1.110   .     S
C706   C829    1.527   1_455 S
C706   H851    1.110   1_455 S
C707   H723    1.108   .     S
C707   H724    1.109   .     S
C707   C716    1.522   .     S
C707   H725    1.104   .     S
C708   O745    1.287   .     A
C708   O747    1.296   .     A
C709   H726    1.108   .     S
C709   H728    1.110   .     S
C709   H727    1.102   .     S
C710   O750    1.295   .     A
C710   C712    1.445   .     S
C710   O748    1.279   .     A
C711   O749    1.281   .     A
C711   C713    1.444   .     S
C711   O751    1.293   .     A
C712   C821    1.523   1_455 S
C712   C829    1.374   1_455 S
C713   C764    1.527   .     S
C713   C770    1.374   .     S
C714   S753    1.785   .     S
C715   S754    1.791   .     S
C715   C872    1.411   .     S
C716   C888    1.404   .     S
Cu717  O739    1.979   .     S
Cu717  Cu718   2.674   .     S
Cu717  N737    2.009   .     S
Cu717  O747    1.970   .     S
Cu717  O751    1.986   .     S
Cu717  O748    1.984   .     S
Cu718  O746    1.970   .     S
Cu718  O750    1.986   .     S
Cu718  N738    2.009   .     S
Cu718  O745    1.979   .     S
Cu718  O749    1.984   .     S
H721   O741    0.991   .     S
H722   O744    0.991   .     S
H732   C821    1.109   1_455 S
H735   C764    1.110   .     S
O740   S753    1.504   .     D
O741   S753    1.672   .     S
O742   S754    1.494   .     D
O743   S754    1.503   .     D
O744   S754    1.682   .     S
O752   S753    1.501   .     D
C755   O804    1.294   .     A
C755   C758    1.462   .     S
C755   O797    1.288   .     A
C756   C758    1.416   .     A
C756   C767    1.525   .     S
C757   C774    1.415   .     A
C757   C773    1.419   .     A
C757   C766    1.464   .     S
C758   C772    1.414   .     A
C759   N796    1.365   .     A
C759   H777    1.078   .     S
C760   H787    1.079   .     S
C760   N795    1.366   .     A
C760   C1284   1.415   .     S
C761   N795    1.366   .     A
C761   H788    1.080   .     S
C761   C1281   1.415   .     S
C762   H789    1.081   .     S
C762   N796    1.366   .     A
C763   H791    1.110   .     S
C763   H792    1.111   .     S
C763   C828    1.523   .     S
C763   H848    1.109   .     S
C764   H794    1.107   .     S
C764   H778    1.110   .     S
C765   H781    1.108   .     S
C765   H782    1.109   .     S
C765   C774    1.522   .     S
C765   H783    1.104   .     S
C766   O803    1.287   .     A
C766   O805    1.296   .     A
C767   H784    1.108   .     S
C767   H786    1.110   .     S
C767   H785    1.102   .     S
C768   O808    1.295   .     A
C768   C770    1.445   .     S
C768   O806    1.279   .     A
C769   O807    1.281   .     A
C769   C771    1.444   .     S
C769   O809    1.293   .     A
C771   C822    1.527   .     S
C771   C828    1.374   .     S
C772   S811    1.785   .     S
C773   S812    1.791   .     S
C773   C930    1.411   .     S
C774   C946    1.404   .     S
Cu775  O797    1.979   .     S
Cu775  Cu776   2.674   .     S
Cu775  N795    2.009   .     S
Cu775  O805    1.970   .     S
Cu775  O809    1.986   .     S
Cu775  O806    1.984   .     S
Cu776  O804    1.970   .     S
Cu776  O808    1.986   .     S
Cu776  N796    2.009   .     S
Cu776  O803    1.979   .     S
Cu776  O807    1.984   .     S
H779   O799    0.991   .     S
H780   O802    0.991   .     S
H793   C822    1.110   .     S
O798   S811    1.504   .     D
O799   S811    1.672   .     S
O800   S812    1.494   .     D
O801   S812    1.503   .     D
O802   S812    1.682   .     S
O810   S811    1.501   .     D
C813   O862    1.294   .     A
C813   C816    1.462   .     S
C813   O855    1.288   .     A
C814   C816    1.416   .     A
C814   C825    1.525   .     S
C815   C832    1.415   .     A
C815   C831    1.419   .     A
C815   C824    1.464   .     S
C816   C830    1.414   .     A
C817   N854    1.365   .     A
C817   H835    1.078   .     S
C818   H845    1.079   .     S
C818   N853    1.366   .     A
C818   C1342   1.415   .     S
C819   N853    1.366   .     A
C819   H846    1.080   .     S
C819   C1339   1.415   .     S
C820   H847    1.081   .     S
C820   N854    1.366   .     A
C821   H849    1.110   .     S
C821   H850    1.111   .     S
C821   C712    1.523   1_655 S
C821   H732    1.109   1_655 S
C822   H852    1.107   .     S
C822   H836    1.110   .     S
C823   H839    1.108   .     S
C823   H840    1.109   .     S
C823   C832    1.522   .     S
C823   H841    1.104   .     S
C824   O861    1.287   .     A
C824   O863    1.296   .     A
C825   H842    1.108   .     S
C825   H844    1.110   .     S
C825   H843    1.102   .     S
C826   O866    1.295   .     A
C826   C828    1.445   .     S
C826   O864    1.279   .     A
C827   O865    1.281   .     A
C827   C829    1.444   .     S
C827   O867    1.293   .     A
C829   C706    1.527   1_655 S
C829   C712    1.374   1_655 S
C830   S869    1.785   .     S
C831   S870    1.791   .     S
C831   C988    1.411   .     S
C832   C1004   1.404   .     S
Cu833  O855    1.979   .     S
Cu833  Cu834   2.674   .     S
Cu833  N853    2.009   .     S
Cu833  O863    1.970   .     S
Cu833  O867    1.986   .     S
Cu833  O864    1.984   .     S
Cu834  O862    1.970   .     S
Cu834  O866    1.986   .     S
Cu834  N854    2.009   .     S
Cu834  O861    1.979   .     S
Cu834  O865    1.984   .     S
H837   O857    0.991   .     S
H838   O860    0.991   .     S
H851   C706    1.110   1_655 S
O856   S869    1.504   .     D
O857   S869    1.672   .     S
O858   S870    1.494   .     D
O859   S870    1.503   .     D
O860   S870    1.682   .     S
O868   S869    1.501   .     D
C871   O920    1.294   .     A
C871   C874    1.462   .     S
C871   O913    1.288   .     A
C872   C874    1.416   .     A
C872   C883    1.525   .     S
C873   C890    1.415   .     A
C873   C889    1.419   .     A
C873   C882    1.464   .     S
C874   C888    1.414   .     A
C875   N912    1.365   .     A
C875   H893    1.078   .     S
C876   H903    1.079   .     S
C876   N911    1.366   .     A
C876   C1400   1.415   .     S
C877   N911    1.366   .     A
C877   H904    1.080   .     S
C877   C1397   1.415   .     S
C878   H905    1.081   .     S
C878   N912    1.366   .     A
C879   H907    1.110   .     S
C879   H908    1.111   .     S
C879   C944    1.523   .     S
C879   H964    1.109   .     S
C880   H910    1.107   .     S
C880   H894    1.110   .     S
C880   C1003   1.527   1_455 S
C880   H1025   1.110   1_455 S
C881   H897    1.108   .     S
C881   H898    1.109   .     S
C881   C890    1.522   .     S
C881   H899    1.104   .     S
C882   O919    1.287   .     A
C882   O921    1.296   .     A
C883   H900    1.108   .     S
C883   H902    1.110   .     S
C883   H901    1.102   .     S
C884   O924    1.295   .     A
C884   C886    1.445   .     S
C884   O922    1.279   .     A
C885   O923    1.281   .     A
C885   C887    1.444   .     S
C885   O925    1.293   .     A
C886   C995    1.523   1_455 S
C886   C1003   1.374   1_455 S
C887   C938    1.527   .     S
C887   C944    1.374   .     S
C888   S927    1.785   .     S
C889   S928    1.791   .     S
C889   C524    1.411   1_565 S
C890   C540    1.404   1_565 S
Cu891  O913    1.979   .     S
Cu891  Cu892   2.674   .     S
Cu891  N911    2.009   .     S
Cu891  O921    1.970   .     S
Cu891  O925    1.986   .     S
Cu891  O922    1.984   .     S
Cu892  O920    1.970   .     S
Cu892  O924    1.986   .     S
Cu892  N912    2.009   .     S
Cu892  O919    1.979   .     S
Cu892  O923    1.984   .     S
H895   O915    0.991   .     S
H896   O918    0.991   .     S
H906   C995    1.109   1_455 S
H909   C938    1.110   .     S
O914   S927    1.504   .     D
O915   S927    1.672   .     S
O916   S928    1.494   .     D
O917   S928    1.503   .     D
O918   S928    1.682   .     S
O926   S927    1.501   .     D
C929   O978    1.294   .     A
C929   C932    1.462   .     S
C929   O971    1.288   .     A
C930   C932    1.416   .     A
C930   C941    1.525   .     S
C931   C948    1.415   .     A
C931   C947    1.419   .     A
C931   C940    1.464   .     S
C932   C946    1.414   .     A
C933   N970    1.365   .     A
C933   H951    1.078   .     S
C934   H961    1.079   .     S
C934   N969    1.366   .     A
C934   C1458   1.415   .     S
C935   N969    1.366   .     A
C935   H962    1.080   .     S
C935   C1455   1.415   .     S
C936   H963    1.081   .     S
C936   N970    1.366   .     A
C937   H965    1.110   .     S
C937   H966    1.111   .     S
C937   C1002   1.523   .     S
C937   H1022   1.109   .     S
C938   H968    1.107   .     S
C938   H952    1.110   .     S
C939   H955    1.108   .     S
C939   H956    1.109   .     S
C939   C948    1.522   .     S
C939   H957    1.104   .     S
C940   O977    1.287   .     A
C940   O979    1.296   .     A
C941   H958    1.108   .     S
C941   H960    1.110   .     S
C941   H959    1.102   .     S
C942   O982    1.295   .     A
C942   C944    1.445   .     S
C942   O980    1.279   .     A
C943   O981    1.281   .     A
C943   C945    1.444   .     S
C943   O983    1.293   .     A
C945   C996    1.527   .     S
C945   C1002   1.374   .     S
C946   S985    1.785   .     S
C947   S986    1.791   .     S
C947   C582    1.411   1_565 S
C948   C598    1.404   1_565 S
Cu949  O971    1.979   .     S
Cu949  Cu950   2.674   .     S
Cu949  N969    2.009   .     S
Cu949  O979    1.970   .     S
Cu949  O983    1.986   .     S
Cu949  O980    1.984   .     S
Cu950  O978    1.970   .     S
Cu950  O982    1.986   .     S
Cu950  N970    2.009   .     S
Cu950  O977    1.979   .     S
Cu950  O981    1.984   .     S
H953   O973    0.991   .     S
H954   O976    0.991   .     S
H967   C996    1.110   .     S
O972   S985    1.504   .     D
O973   S985    1.672   .     S
O974   S986    1.494   .     D
O975   S986    1.503   .     D
O976   S986    1.682   .     S
O984   S985    1.501   .     D
C987   O1036   1.294   .     A
C987   C990    1.462   .     S
C987   O1029   1.288   .     A
C988   C990    1.416   .     A
C988   C999    1.525   .     S
C989   C1006   1.415   .     A
C989   C1005   1.419   .     A
C989   C998    1.464   .     S
C990   C1004   1.414   .     A
C991   N1028   1.365   .     A
C991   H1009   1.078   .     S
C992   H1019   1.079   .     S
C992   N1027   1.366   .     A
C992   C1516   1.415   .     S
C993   N1027   1.366   .     A
C993   H1020   1.080   .     S
C993   C1513   1.415   .     S
C994   H1021   1.081   .     S
C994   N1028   1.366   .     A
C995   H1023   1.110   .     S
C995   H1024   1.111   .     S
C995   C886    1.523   1_655 S
C995   H906    1.109   1_655 S
C996   H1026   1.107   .     S
C996   H1010   1.110   .     S
C997   H1013   1.108   .     S
C997   H1014   1.109   .     S
C997   C1006   1.522   .     S
C997   H1015   1.104   .     S
C998   O1035   1.287   .     A
C998   O1037   1.296   .     A
C999   H1016   1.108   .     S
C999   H1018   1.110   .     S
C999   H1017   1.102   .     S
C1000  O1040   1.295   .     A
C1000  C1002   1.445   .     S
C1000  O1038   1.279   .     A
C1001  O1039   1.281   .     A
C1001  C1003   1.444   .     S
C1001  O1041   1.293   .     A
C1003  C880    1.527   1_655 S
C1003  C886    1.374   1_655 S
C1004  S1043   1.785   .     S
C1005  S1044   1.791   .     S
C1005  C640    1.411   1_565 S
C1006  C656    1.404   1_565 S
Cu1007 O1029   1.979   .     S
Cu1007 Cu1008  2.674   .     S
Cu1007 N1027   2.009   .     S
Cu1007 O1037   1.970   .     S
Cu1007 O1041   1.986   .     S
Cu1007 O1038   1.984   .     S
Cu1008 O1036   1.970   .     S
Cu1008 O1040   1.986   .     S
Cu1008 N1028   2.009   .     S
Cu1008 O1035   1.979   .     S
Cu1008 O1039   1.984   .     S
H1011  O1031   0.991   .     S
H1012  O1034   0.991   .     S
H1025  C880    1.110   1_655 S
O1030  S1043   1.504   .     D
O1031  S1043   1.672   .     S
O1032  S1044   1.494   .     D
O1033  S1044   1.503   .     D
O1034  S1044   1.682   .     S
O1042  S1043   1.501   .     D
C1045  O1094   1.294   .     A
C1045  C1048   1.462   .     S
C1045  O1087   1.288   .     A
C1046  C1048   1.416   .     A
C1046  C1057   1.525   .     S
C1046  C1411   1.411   1_545 S
C1047  C1064   1.415   .     A
C1047  C1063   1.419   .     A
C1047  C1056   1.464   .     S
C1048  C1062   1.414   .     A
C1049  N1086   1.365   .     A
C1049  H1067   1.078   .     S
C1050  H1077   1.079   .     S
C1050  N1085   1.366   .     A
C1050  C8      1.415   1_556 S
C1051  N1085   1.366   .     A
C1051  H1078   1.080   .     S
C1051  C5      1.415   1_556 S
C1052  H1079   1.081   .     S
C1052  N1086   1.366   .     A
C1053  H1081   1.110   .     S
C1053  H1082   1.111   .     S
C1053  C1118   1.523   .     S
C1053  H1138   1.109   .     S
C1054  H1084   1.107   .     S
C1054  H1068   1.110   .     S
C1054  C1177   1.527   1_455 S
C1054  H1199   1.110   1_455 S
C1055  H1071   1.108   .     S
C1055  H1072   1.109   .     S
C1055  C1064   1.522   .     S
C1055  H1073   1.104   .     S
C1056  O1093   1.287   .     A
C1056  O1095   1.296   .     A
C1057  H1074   1.108   .     S
C1057  H1076   1.110   .     S
C1057  H1075   1.102   .     S
C1058  O1098   1.295   .     A
C1058  C1060   1.445   .     S
C1058  O1096   1.279   .     A
C1059  O1097   1.281   .     A
C1059  C1061   1.444   .     S
C1059  O1099   1.293   .     A
C1060  C1169   1.523   1_455 S
C1060  C1177   1.374   1_455 S
C1061  C1112   1.527   .     S
C1061  C1118   1.374   .     S
C1062  S1101   1.785   .     S
C1062  C1412   1.404   1_545 S
C1063  S1102   1.791   .     S
C1063  C1220   1.411   .     S
C1064  C1236   1.404   .     S
Cu1065 O1087   1.979   .     S
Cu1065 Cu1066  2.674   .     S
Cu1065 N1085   2.009   .     S
Cu1065 O1095   1.970   .     S
Cu1065 O1099   1.986   .     S
Cu1065 O1096   1.984   .     S
Cu1066 O1094   1.970   .     S
Cu1066 O1098   1.986   .     S
Cu1066 N1086   2.009   .     S
Cu1066 O1093   1.979   .     S
Cu1066 O1097   1.984   .     S
H1069  O1089   0.991   .     S
H1070  O1092   0.991   .     S
H1080  C1169   1.109   1_455 S
H1083  C1112   1.110   .     S
O1088  S1101   1.504   .     D
O1089  S1101   1.672   .     S
O1090  S1102   1.494   .     D
O1091  S1102   1.503   .     D
O1092  S1102   1.682   .     S
O1100  S1101   1.501   .     D
C1103  O1152   1.294   .     A
C1103  C1106   1.462   .     S
C1103  O1145   1.288   .     A
C1104  C1106   1.416   .     A
C1104  C1115   1.525   .     S
C1104  C1469   1.411   1_545 S
C1105  C1122   1.415   .     A
C1105  C1121   1.419   .     A
C1105  C1114   1.464   .     S
C1106  C1120   1.414   .     A
C1107  N1144   1.365   .     A
C1107  H1125   1.078   .     S
C1108  H1135   1.079   .     S
C1108  N1143   1.366   .     A
C1108  C66     1.415   1_556 S
C1109  N1143   1.366   .     A
C1109  H1136   1.080   .     S
C1109  C63     1.415   1_556 S
C1110  H1137   1.081   .     S
C1110  N1144   1.366   .     A
C1111  H1139   1.110   .     S
C1111  H1140   1.111   .     S
C1111  C1176   1.523   .     S
C1111  H1196   1.109   .     S
C1112  H1142   1.107   .     S
C1112  H1126   1.110   .     S
C1113  H1129   1.108   .     S
C1113  H1130   1.109   .     S
C1113  C1122   1.522   .     S
C1113  H1131   1.104   .     S
C1114  O1151   1.287   .     A
C1114  O1153   1.296   .     A
C1115  H1132   1.108   .     S
C1115  H1134   1.110   .     S
C1115  H1133   1.102   .     S
C1116  O1156   1.295   .     A
C1116  C1118   1.445   .     S
C1116  O1154   1.279   .     A
C1117  O1155   1.281   .     A
C1117  C1119   1.444   .     S
C1117  O1157   1.293   .     A
C1119  C1170   1.527   .     S
C1119  C1176   1.374   .     S
C1120  S1159   1.785   .     S
C1120  C1470   1.404   1_545 S
C1121  S1160   1.791   .     S
C1121  C1278   1.411   .     S
C1122  C1294   1.404   .     S
Cu1123 O1145   1.979   .     S
Cu1123 Cu1124  2.674   .     S
Cu1123 N1143   2.009   .     S
Cu1123 O1153   1.970   .     S
Cu1123 O1157   1.986   .     S
Cu1123 O1154   1.984   .     S
Cu1124 O1152   1.970   .     S
Cu1124 O1156   1.986   .     S
Cu1124 N1144   2.009   .     S
Cu1124 O1151   1.979   .     S
Cu1124 O1155   1.984   .     S
H1127  O1147   0.991   .     S
H1128  O1150   0.991   .     S
H1141  C1170   1.110   .     S
O1146  S1159   1.504   .     D
O1147  S1159   1.672   .     S
O1148  S1160   1.494   .     D
O1149  S1160   1.503   .     D
O1150  S1160   1.682   .     S
O1158  S1159   1.501   .     D
C1161  O1210   1.294   .     A
C1161  C1164   1.462   .     S
C1161  O1203   1.288   .     A
C1162  C1164   1.416   .     A
C1162  C1173   1.525   .     S
C1162  C1527   1.411   1_545 S
C1163  C1180   1.415   .     A
C1163  C1179   1.419   .     A
C1163  C1172   1.464   .     S
C1164  C1178   1.414   .     A
C1165  N1202   1.365   .     A
C1165  H1183   1.078   .     S
C1166  H1193   1.079   .     S
C1166  N1201   1.366   .     A
C1166  C124    1.415   1_556 S
C1167  N1201   1.366   .     A
C1167  H1194   1.080   .     S
C1167  C121    1.415   1_556 S
C1168  H1195   1.081   .     S
C1168  N1202   1.366   .     A
C1169  H1197   1.110   .     S
C1169  H1198   1.111   .     S
C1169  C1060   1.523   1_655 S
C1169  H1080   1.109   1_655 S
C1170  H1200   1.107   .     S
C1170  H1184   1.110   .     S
C1171  H1187   1.108   .     S
C1171  H1188   1.109   .     S
C1171  C1180   1.522   .     S
C1171  H1189   1.104   .     S
C1172  O1209   1.287   .     A
C1172  O1211   1.296   .     A
C1173  H1190   1.108   .     S
C1173  H1192   1.110   .     S
C1173  H1191   1.102   .     S
C1174  O1214   1.295   .     A
C1174  C1176   1.445   .     S
C1174  O1212   1.279   .     A
C1175  O1213   1.281   .     A
C1175  C1177   1.444   .     S
C1175  O1215   1.293   .     A
C1177  C1054   1.527   1_655 S
C1177  C1060   1.374   1_655 S
C1178  S1217   1.785   .     S
C1178  C1528   1.404   1_545 S
C1179  S1218   1.791   .     S
C1179  C1336   1.411   .     S
C1180  C1352   1.404   .     S
Cu1181 O1203   1.979   .     S
Cu1181 Cu1182  2.674   .     S
Cu1181 N1201   2.009   .     S
Cu1181 O1211   1.970   .     S
Cu1181 O1215   1.986   .     S
Cu1181 O1212   1.984   .     S
Cu1182 O1210   1.970   .     S
Cu1182 O1214   1.986   .     S
Cu1182 N1202   2.009   .     S
Cu1182 O1209   1.979   .     S
Cu1182 O1213   1.984   .     S
H1185  O1205   0.991   .     S
H1186  O1208   0.991   .     S
H1199  C1054   1.110   1_655 S
O1204  S1217   1.504   .     D
O1205  S1217   1.672   .     S
O1206  S1218   1.494   .     D
O1207  S1218   1.503   .     D
O1208  S1218   1.682   .     S
O1216  S1217   1.501   .     D
C1219  O1268   1.294   .     A
C1219  C1222   1.462   .     S
C1219  O1261   1.288   .     A
C1220  C1222   1.416   .     A
C1220  C1231   1.525   .     S
C1221  C1238   1.415   .     A
C1221  C1237   1.419   .     A
C1221  C1230   1.464   .     S
C1222  C1236   1.414   .     A
C1223  N1260   1.365   .     A
C1223  H1241   1.078   .     S
C1224  H1251   1.079   .     S
C1224  N1259   1.366   .     A
C1224  C182    1.415   1_556 S
C1225  N1259   1.366   .     A
C1225  H1252   1.080   .     S
C1225  C179    1.415   1_556 S
C1226  H1253   1.081   .     S
C1226  N1260   1.366   .     A
C1227  H1255   1.110   .     S
C1227  H1256   1.111   .     S
C1227  C1292   1.523   .     S
C1227  H1312   1.109   .     S
C1228  H1258   1.107   .     S
C1228  H1242   1.110   .     S
C1228  C1351   1.527   1_455 S
C1228  H1373   1.110   1_455 S
C1229  H1245   1.108   .     S
C1229  H1246   1.109   .     S
C1229  C1238   1.522   .     S
C1229  H1247   1.104   .     S
C1230  O1267   1.287   .     A
C1230  O1269   1.296   .     A
C1231  H1248   1.108   .     S
C1231  H1250   1.110   .     S
C1231  H1249   1.102   .     S
C1232  O1272   1.295   .     A
C1232  C1234   1.445   .     S
C1232  O1270   1.279   .     A
C1233  O1271   1.281   .     A
C1233  C1235   1.444   .     S
C1233  O1273   1.293   .     A
C1234  C1343   1.523   1_455 S
C1234  C1351   1.374   1_455 S
C1235  C1286   1.527   .     S
C1235  C1292   1.374   .     S
C1236  S1275   1.785   .     S
C1237  S1276   1.791   .     S
C1237  C1394   1.411   .     S
C1238  C1410   1.404   .     S
Cu1239 O1261   1.979   .     S
Cu1239 Cu1240  2.674   .     S
Cu1239 N1259   2.009   .     S
Cu1239 O1269   1.970   .     S
Cu1239 O1273   1.986   .     S
Cu1239 O1270   1.984   .     S
Cu1240 O1268   1.970   .     S
Cu1240 O1272   1.986   .     S
Cu1240 N1260   2.009   .     S
Cu1240 O1267   1.979   .     S
Cu1240 O1271   1.984   .     S
H1243  O1263   0.991   .     S
H1244  O1266   0.991   .     S
H1254  C1343   1.109   1_455 S
H1257  C1286   1.110   .     S
O1262  S1275   1.504   .     D
O1263  S1275   1.672   .     S
O1264  S1276   1.494   .     D
O1265  S1276   1.503   .     D
O1266  S1276   1.682   .     S
O1274  S1275   1.501   .     D
C1277  O1326   1.294   .     A
C1277  C1280   1.462   .     S
C1277  O1319   1.288   .     A
C1278  C1280   1.416   .     A
C1278  C1289   1.525   .     S
C1279  C1296   1.415   .     A
C1279  C1295   1.419   .     A
C1279  C1288   1.464   .     S
C1280  C1294   1.414   .     A
C1281  N1318   1.365   .     A
C1281  H1299   1.078   .     S
C1282  H1309   1.079   .     S
C1282  N1317   1.366   .     A
C1282  C240    1.415   1_556 S
C1283  N1317   1.366   .     A
C1283  H1310   1.080   .     S
C1283  C237    1.415   1_556 S
C1284  H1311   1.081   .     S
C1284  N1318   1.366   .     A
C1285  H1313   1.110   .     S
C1285  H1314   1.111   .     S
C1285  C1350   1.523   .     S
C1285  H1370   1.109   .     S
C1286  H1316   1.107   .     S
C1286  H1300   1.110   .     S
C1287  H1303   1.108   .     S
C1287  H1304   1.109   .     S
C1287  C1296   1.522   .     S
C1287  H1305   1.104   .     S
C1288  O1325   1.287   .     A
C1288  O1327   1.296   .     A
C1289  H1306   1.108   .     S
C1289  H1308   1.110   .     S
C1289  H1307   1.102   .     S
C1290  O1330   1.295   .     A
C1290  C1292   1.445   .     S
C1290  O1328   1.279   .     A
C1291  O1329   1.281   .     A
C1291  C1293   1.444   .     S
C1291  O1331   1.293   .     A
C1293  C1344   1.527   .     S
C1293  C1350   1.374   .     S
C1294  S1333   1.785   .     S
C1295  S1334   1.791   .     S
C1295  C1452   1.411   .     S
C1296  C1468   1.404   .     S
Cu1297 O1319   1.979   .     S
Cu1297 Cu1298  2.674   .     S
Cu1297 N1317   2.009   .     S
Cu1297 O1327   1.970   .     S
Cu1297 O1331   1.986   .     S
Cu1297 O1328   1.984   .     S
Cu1298 O1326   1.970   .     S
Cu1298 O1330   1.986   .     S
Cu1298 N1318   2.009   .     S
Cu1298 O1325   1.979   .     S
Cu1298 O1329   1.984   .     S
H1301  O1321   0.991   .     S
H1302  O1324   0.991   .     S
H1315  C1344   1.110   .     S
O1320  S1333   1.504   .     D
O1321  S1333   1.672   .     S
O1322  S1334   1.494   .     D
O1323  S1334   1.503   .     D
O1324  S1334   1.682   .     S
O1332  S1333   1.501   .     D
C1335  O1384   1.294   .     A
C1335  C1338   1.462   .     S
C1335  O1377   1.288   .     A
C1336  C1338   1.416   .     A
C1336  C1347   1.525   .     S
C1337  C1354   1.415   .     A
C1337  C1353   1.419   .     A
C1337  C1346   1.464   .     S
C1338  C1352   1.414   .     A
C1339  N1376   1.365   .     A
C1339  H1357   1.078   .     S
C1340  H1367   1.079   .     S
C1340  N1375   1.366   .     A
C1340  C298    1.415   1_556 S
C1341  N1375   1.366   .     A
C1341  H1368   1.080   .     S
C1341  C295    1.415   1_556 S
C1342  H1369   1.081   .     S
C1342  N1376   1.366   .     A
C1343  H1371   1.110   .     S
C1343  H1372   1.111   .     S
C1343  C1234   1.523   1_655 S
C1343  H1254   1.109   1_655 S
C1344  H1374   1.107   .     S
C1344  H1358   1.110   .     S
C1345  H1361   1.108   .     S
C1345  H1362   1.109   .     S
C1345  C1354   1.522   .     S
C1345  H1363   1.104   .     S
C1346  O1383   1.287   .     A
C1346  O1385   1.296   .     A
C1347  H1364   1.108   .     S
C1347  H1366   1.110   .     S
C1347  H1365   1.102   .     S
C1348  O1388   1.295   .     A
C1348  C1350   1.445   .     S
C1348  O1386   1.279   .     A
C1349  O1387   1.281   .     A
C1349  C1351   1.444   .     S
C1349  O1389   1.293   .     A
C1351  C1228   1.527   1_655 S
C1351  C1234   1.374   1_655 S
C1352  S1391   1.785   .     S
C1353  S1392   1.791   .     S
C1353  C1510   1.411   .     S
C1354  C1526   1.404   .     S
Cu1355 O1377   1.979   .     S
Cu1355 Cu1356  2.674   .     S
Cu1355 N1375   2.009   .     S
Cu1355 O1385   1.970   .     S
Cu1355 O1389   1.986   .     S
Cu1355 O1386   1.984   .     S
Cu1356 O1384   1.970   .     S
Cu1356 O1388   1.986   .     S
Cu1356 N1376   2.009   .     S
Cu1356 O1383   1.979   .     S
Cu1356 O1387   1.984   .     S
H1359  O1379   0.991   .     S
H1360  O1382   0.991   .     S
H1373  C1228   1.110   1_655 S
O1378  S1391   1.504   .     D
O1379  S1391   1.672   .     S
O1380  S1392   1.494   .     D
O1381  S1392   1.503   .     D
O1382  S1392   1.682   .     S
O1390  S1391   1.501   .     D
C1393  O1442   1.294   .     A
C1393  C1396   1.462   .     S
C1393  O1435   1.288   .     A
C1394  C1396   1.416   .     A
C1394  C1405   1.525   .     S
C1395  C1412   1.415   .     A
C1395  C1411   1.419   .     A
C1395  C1404   1.464   .     S
C1396  C1410   1.414   .     A
C1397  N1434   1.365   .     A
C1397  H1415   1.078   .     S
C1398  H1425   1.079   .     S
C1398  N1433   1.366   .     A
C1398  C356    1.415   1_556 S
C1399  N1433   1.366   .     A
C1399  H1426   1.080   .     S
C1399  C353    1.415   1_556 S
C1400  H1427   1.081   .     S
C1400  N1434   1.366   .     A
C1401  H1429   1.110   .     S
C1401  H1430   1.111   .     S
C1401  C1466   1.523   .     S
C1401  H1486   1.109   .     S
C1402  H1432   1.107   .     S
C1402  H1416   1.110   .     S
C1402  C1525   1.527   1_455 S
C1402  H1547   1.110   1_455 S
C1403  H1419   1.108   .     S
C1403  H1420   1.109   .     S
C1403  C1412   1.522   .     S
C1403  H1421   1.104   .     S
C1404  O1441   1.287   .     A
C1404  O1443   1.296   .     A
C1405  H1422   1.108   .     S
C1405  H1424   1.110   .     S
C1405  H1423   1.102   .     S
C1406  O1446   1.295   .     A
C1406  C1408   1.445   .     S
C1406  O1444   1.279   .     A
C1407  O1445   1.281   .     A
C1407  C1409   1.444   .     S
C1407  O1447   1.293   .     A
C1408  C1517   1.523   1_455 S
C1408  C1525   1.374   1_455 S
C1409  C1460   1.527   .     S
C1409  C1466   1.374   .     S
C1410  S1449   1.785   .     S
C1411  S1450   1.791   .     S
C1411  C1046   1.411   1_565 S
C1412  C1062   1.404   1_565 S
Cu1413 O1435   1.979   .     S
Cu1413 Cu1414  2.674   .     S
Cu1413 N1433   2.009   .     S
Cu1413 O1443   1.970   .     S
Cu1413 O1447   1.986   .     S
Cu1413 O1444   1.984   .     S
Cu1414 O1442   1.970   .     S
Cu1414 O1446   1.986   .     S
Cu1414 N1434   2.009   .     S
Cu1414 O1441   1.979   .     S
Cu1414 O1445   1.984   .     S
H1417  O1437   0.991   .     S
H1418  O1440   0.991   .     S
H1428  C1517   1.109   1_455 S
H1431  C1460   1.110   .     S
O1436  S1449   1.504   .     D
O1437  S1449   1.672   .     S
O1438  S1450   1.494   .     D
O1439  S1450   1.503   .     D
O1440  S1450   1.682   .     S
O1448  S1449   1.501   .     D
C1451  O1500   1.294   .     A
C1451  C1454   1.462   .     S
C1451  O1493   1.288   .     A
C1452  C1454   1.416   .     A
C1452  C1463   1.525   .     S
C1453  C1470   1.415   .     A
C1453  C1469   1.419   .     A
C1453  C1462   1.464   .     S
C1454  C1468   1.414   .     A
C1455  N1492   1.365   .     A
C1455  H1473   1.078   .     S
C1456  H1483   1.079   .     S
C1456  N1491   1.366   .     A
C1456  C414    1.415   1_556 S
C1457  N1491   1.366   .     A
C1457  H1484   1.080   .     S
C1457  C411    1.415   1_556 S
C1458  H1485   1.081   .     S
C1458  N1492   1.366   .     A
C1459  H1487   1.110   .     S
C1459  H1488   1.111   .     S
C1459  C1524   1.523   .     S
C1459  H1544   1.109   .     S
C1460  H1490   1.107   .     S
C1460  H1474   1.110   .     S
C1461  H1477   1.108   .     S
C1461  H1478   1.109   .     S
C1461  C1470   1.522   .     S
C1461  H1479   1.104   .     S
C1462  O1499   1.287   .     A
C1462  O1501   1.296   .     A
C1463  H1480   1.108   .     S
C1463  H1482   1.110   .     S
C1463  H1481   1.102   .     S
C1464  O1504   1.295   .     A
C1464  C1466   1.445   .     S
C1464  O1502   1.279   .     A
C1465  O1503   1.281   .     A
C1465  C1467   1.444   .     S
C1465  O1505   1.293   .     A
C1467  C1518   1.527   .     S
C1467  C1524   1.374   .     S
C1468  S1507   1.785   .     S
C1469  S1508   1.791   .     S
C1469  C1104   1.411   1_565 S
C1470  C1120   1.404   1_565 S
Cu1471 O1493   1.979   .     S
Cu1471 Cu1472  2.674   .     S
Cu1471 N1491   2.009   .     S
Cu1471 O1501   1.970   .     S
Cu1471 O1505   1.986   .     S
Cu1471 O1502   1.984   .     S
Cu1472 O1500   1.970   .     S
Cu1472 O1504   1.986   .     S
Cu1472 N1492   2.009   .     S
Cu1472 O1499   1.979   .     S
Cu1472 O1503   1.984   .     S
H1475  O1495   0.991   .     S
H1476  O1498   0.991   .     S
H1489  C1518   1.110   .     S
O1494  S1507   1.504   .     D
O1495  S1507   1.672   .     S
O1496  S1508   1.494   .     D
O1497  S1508   1.503   .     D
O1498  S1508   1.682   .     S
O1506  S1507   1.501   .     D
C1509  O1558   1.294   .     A
C1509  C1512   1.462   .     S
C1509  O1551   1.288   .     A
C1510  C1512   1.416   .     A
C1510  C1521   1.525   .     S
C1511  C1528   1.415   .     A
C1511  C1527   1.419   .     A
C1511  C1520   1.464   .     S
C1512  C1526   1.414   .     A
C1513  N1550   1.365   .     A
C1513  H1531   1.078   .     S
C1514  H1541   1.079   .     S
C1514  N1549   1.366   .     A
C1514  C472    1.415   1_556 S
C1515  N1549   1.366   .     A
C1515  H1542   1.080   .     S
C1515  C469    1.415   1_556 S
C1516  H1543   1.081   .     S
C1516  N1550   1.366   .     A
C1517  H1545   1.110   .     S
C1517  H1546   1.111   .     S
C1517  C1408   1.523   1_655 S
C1517  H1428   1.109   1_655 S
C1518  H1548   1.107   .     S
C1518  H1532   1.110   .     S
C1519  H1535   1.108   .     S
C1519  H1536   1.109   .     S
C1519  C1528   1.522   .     S
C1519  H1537   1.104   .     S
C1520  O1557   1.287   .     A
C1520  O1559   1.296   .     A
C1521  H1538   1.108   .     S
C1521  H1540   1.110   .     S
C1521  H1539   1.102   .     S
C1522  O1562   1.295   .     A
C1522  C1524   1.445   .     S
C1522  O1560   1.279   .     A
C1523  O1561   1.281   .     A
C1523  C1525   1.444   .     S
C1523  O1563   1.293   .     A
C1525  C1402   1.527   1_655 S
C1525  C1408   1.374   1_655 S
C1526  S1565   1.785   .     S
C1527  S1566   1.791   .     S
C1527  C1162   1.411   1_565 S
C1528  C1178   1.404   1_565 S
Cu1529 O1551   1.979   .     S
Cu1529 Cu1530  2.674   .     S
Cu1529 N1549   2.009   .     S
Cu1529 O1559   1.970   .     S
Cu1529 O1563   1.986   .     S
Cu1529 O1560   1.984   .     S
Cu1530 O1558   1.970   .     S
Cu1530 O1562   1.986   .     S
Cu1530 N1550   2.009   .     S
Cu1530 O1557   1.979   .     S
Cu1530 O1561   1.984   .     S
H1533  O1553   0.991   .     S
H1534  O1556   0.991   .     S
H1547  C1402   1.110   1_655 S
O1552  S1565   1.504   .     D
O1553  S1565   1.672   .     S
O1554  S1566   1.494   .     D
O1555  S1566   1.503   .     D
O1556  S1566   1.682   .     S
O1564  S1565   1.501   .     D
