data_str_m3_o1_o18_pcu_sym.210
_audit_creation_date              2020-01-03
_audit_creation_method            'Materials Studio'
_symmetry_space_group_name_H-M    'P1'
_symmetry_Int_Tables_number       1
_symmetry_cell_setting            triclinic
loop_
_symmetry_equiv_pos_as_xyz
  x,y,z
_cell_length_a                    29.6280
_cell_length_b                    32.1421
_cell_length_c                    30.7706
_cell_angle_alpha                 90.4071
_cell_angle_beta                  67.6957
_cell_angle_gamma                 90.1896
loop_
_atom_site_label
_atom_site_type_symbol
_atom_site_fract_x
_atom_site_fract_y
_atom_site_fract_z
_atom_site_U_iso_or_equiv
_atom_site_adp_type
_atom_site_occupancy
C1     C     0.16670   0.24668   0.25008   0.00000  Uiso   1.00
C2     C     0.16666   0.08666   0.24986   0.00000  Uiso   1.00
C3     C     0.10666   0.16763   0.05600   0.00000  Uiso   1.00
C4     C     0.20341   0.11461   0.45858   0.00000  Uiso   1.00
C5     C     0.07221   0.17731   0.03703   0.00000  Uiso   1.00
C6     C     0.23761   0.10488   0.47801   0.00000  Uiso   1.00
C7     C     0.21039   0.31211   0.24161   0.00000  Uiso   1.00
C8     C     0.12302   0.02123   0.25814   0.00000  Uiso   1.00
C9     C     0.21039   0.02139   0.24139   0.00000  Uiso   1.00
C10    C     0.12302   0.31195   0.25835   0.00000  Uiso   1.00
C11    C     0.16669   0.04249   0.24972   0.00000  Uiso   1.00
C12    C     0.16671   0.29084   0.25008   0.00000  Uiso   1.00
C13    C     0.32036   0.14032   0.22128   0.00000  Uiso   1.00
C14    C     0.01300   0.19307   0.27864   0.00000  Uiso   1.00
C15    C     0.03491   0.14022   0.22121   0.00000  Uiso   1.00
C16    C     0.29846   0.19320   0.27867   0.00000  Uiso   1.00
C17    C     0.13606   0.16666   0.33818   0.00000  Uiso   1.00
C18    C     0.19719   0.16568   0.16189   0.00000  Uiso   1.00
C19    C     0.11610   0.16603   0.38942   0.00000  Uiso   1.00
C20    C     0.21553   0.15653   0.11177   0.00000  Uiso   1.00
C21    C     0.05273   0.18388   0.46434   0.00000  Uiso   1.00
C22    C     0.26533   0.11387   0.04578   0.00000  Uiso   1.00
C23    C     0.06926   0.18029   0.41552   0.00000  Uiso   1.00
C24    C     0.25535   0.13043   0.09064   0.00000  Uiso   1.00
C25    C     0.14556   0.15221   0.41199   0.00000  Uiso   1.00
C26    C     0.18591   0.16677   0.08814   0.00000  Uiso   1.00
C27    C     0.13004   0.15326   0.46089   0.00000  Uiso   1.00
C28    C     0.19008   0.14638   0.04663   0.00000  Uiso   1.00
C29    C     0.08374   0.17164   0.48816   0.00000  Uiso   1.00
C30    C     0.23214   0.12121   0.02275   0.00000  Uiso   1.00
C31    C     0.16225   0.13971   0.48224   0.00000  Uiso   1.00
C32    C     0.15310   0.15166   0.02850   0.00000  Uiso   1.00
H33    H     0.15808   0.18994   0.10414   0.00000  Uiso   1.00
H34    H     0.18217   0.14287   0.39026   0.00000  Uiso   1.00
H35    H     0.27810   0.12195   0.10967   0.00000  Uiso   1.00
H36    H     0.04611   0.19057   0.39760   0.00000  Uiso   1.00
H37    H     0.09550   0.17169   0.09350   0.00000  Uiso   1.00
H38    H     0.20872   0.10031   0.42515   0.00000  Uiso   1.00
H39    H     0.24446   0.29596   0.23489   0.00000  Uiso   1.00
H40    H     0.08895   0.03737   0.26486   0.00000  Uiso   1.00
H41    H     0.24448   0.03767   0.23452   0.00000  Uiso   1.00
H42    H     0.08893   0.29568   0.26522   0.00000  Uiso   1.00
H43    H     0.31082   0.11937   0.19838   0.00000  Uiso   1.00
H44    H     0.02257   0.21409   0.30145   0.00000  Uiso   1.00
N45    N     0.04759   0.16668   0.25001   0.00000  Uiso   1.00
N46    N     0.28574   0.16666   0.24999   0.00000  Uiso   1.00
O47    O     0.12846   0.22775   0.25001   0.00000  Uiso   1.00
O48    O     0.20488   0.10558   0.25000   0.00000  Uiso   1.00
O49    O     0.20490   0.22774   0.25000   0.00000  Uiso   1.00
O50    O     0.12843   0.10559   0.25000   0.00000  Uiso   1.00
O51    O     0.10661   0.16667   0.31613   0.00000  Uiso   1.00
O52    O     0.22672   0.16666   0.18388   0.00000  Uiso   1.00
O53    O     0.18305   0.16666   0.31612   0.00000  Uiso   1.00
O54    O     0.15028   0.16667   0.18388   0.00000  Uiso   1.00
Zn55   Zn    0.11562   0.16667   0.25000   0.00000  Uiso   1.00
Zn56   Zn    0.21771   0.16666   0.25000   0.00000  Uiso   1.00
Br57   Br    0.01351   0.20089   0.08249   0.00000  Uiso   1.00
Br58   Br    0.28978   0.07013   0.43793   0.00000  Uiso   1.00
Br59   Br    0.32176   0.20750   0.49178   0.00000  Uiso   1.00
Br60   Br    0.32391   0.08102   0.02294   0.00000  Uiso   1.00
C61    C     0.07013   0.11183   0.19025   0.00000  Uiso   1.00
N62    N     0.09830   0.08894   0.16520   0.00000  Uiso   1.00
C63    C     0.26335   0.22181   0.30935   0.00000  Uiso   1.00
N64    N     0.23525   0.24490   0.33414   0.00000  Uiso   1.00
C65    C     0.50003   0.24668   0.25008   0.00000  Uiso   1.00
C66    C     0.50000   0.08666   0.24986   0.00000  Uiso   1.00
C67    C     0.43999   0.16763   0.05600   0.00000  Uiso   1.00
C68    C     0.53674   0.11461   0.45858   0.00000  Uiso   1.00
C69    C     0.40554   0.17731   0.03703   0.00000  Uiso   1.00
C70    C     0.57094   0.10488   0.47801   0.00000  Uiso   1.00
C71    C     0.54372   0.31211   0.24161   0.00000  Uiso   1.00
C72    C     0.45635   0.02123   0.25814   0.00000  Uiso   1.00
C73    C     0.54372   0.02139   0.24139   0.00000  Uiso   1.00
C74    C     0.45636   0.31195   0.25835   0.00000  Uiso   1.00
C75    C     0.50002   0.04249   0.24972   0.00000  Uiso   1.00
C76    C     0.50005   0.29084   0.25008   0.00000  Uiso   1.00
C77    C     0.65369   0.14032   0.22128   0.00000  Uiso   1.00
C78    C     0.34633   0.19307   0.27864   0.00000  Uiso   1.00
C79    C     0.36825   0.14022   0.22121   0.00000  Uiso   1.00
C80    C     0.63180   0.19320   0.27867   0.00000  Uiso   1.00
C81    C     0.46939   0.16666   0.33818   0.00000  Uiso   1.00
C82    C     0.53052   0.16568   0.16189   0.00000  Uiso   1.00
C83    C     0.44943   0.16603   0.38942   0.00000  Uiso   1.00
C84    C     0.54886   0.15653   0.11177   0.00000  Uiso   1.00
C85    C     0.38606   0.18388   0.46434   0.00000  Uiso   1.00
C86    C     0.59866   0.11387   0.04578   0.00000  Uiso   1.00
C87    C     0.40259   0.18029   0.41552   0.00000  Uiso   1.00
C88    C     0.58868   0.13043   0.09064   0.00000  Uiso   1.00
C89    C     0.47890   0.15221   0.41199   0.00000  Uiso   1.00
C90    C     0.51924   0.16677   0.08814   0.00000  Uiso   1.00
C91    C     0.46337   0.15326   0.46089   0.00000  Uiso   1.00
C92    C     0.52341   0.14638   0.04663   0.00000  Uiso   1.00
C93    C     0.41707   0.17164   0.48816   0.00000  Uiso   1.00
C94    C     0.56547   0.12121   0.02275   0.00000  Uiso   1.00
C95    C     0.49559   0.13971   0.48224   0.00000  Uiso   1.00
C96    C     0.48643   0.15166   0.02850   0.00000  Uiso   1.00
H97    H     0.49141   0.18994   0.10414   0.00000  Uiso   1.00
H98    H     0.51551   0.14287   0.39026   0.00000  Uiso   1.00
H99    H     0.61144   0.12195   0.10967   0.00000  Uiso   1.00
H100   H     0.37945   0.19057   0.39760   0.00000  Uiso   1.00
H101   H     0.42883   0.17169   0.09350   0.00000  Uiso   1.00
H102   H     0.54206   0.10031   0.42515   0.00000  Uiso   1.00
H103   H     0.57779   0.29596   0.23489   0.00000  Uiso   1.00
H104   H     0.42229   0.03737   0.26486   0.00000  Uiso   1.00
H105   H     0.57781   0.03767   0.23452   0.00000  Uiso   1.00
H106   H     0.42227   0.29568   0.26522   0.00000  Uiso   1.00
H107   H     0.64415   0.11937   0.19838   0.00000  Uiso   1.00
H108   H     0.35590   0.21409   0.30145   0.00000  Uiso   1.00
N109   N     0.38093   0.16668   0.25001   0.00000  Uiso   1.00
N110   N     0.61907   0.16666   0.24999   0.00000  Uiso   1.00
O111   O     0.46179   0.22775   0.25001   0.00000  Uiso   1.00
O112   O     0.53821   0.10558   0.25000   0.00000  Uiso   1.00
O113   O     0.53823   0.22774   0.25000   0.00000  Uiso   1.00
O114   O     0.46177   0.10559   0.25000   0.00000  Uiso   1.00
O115   O     0.43994   0.16667   0.31613   0.00000  Uiso   1.00
O116   O     0.56006   0.16666   0.18388   0.00000  Uiso   1.00
O117   O     0.51639   0.16666   0.31612   0.00000  Uiso   1.00
O118   O     0.48361   0.16667   0.18388   0.00000  Uiso   1.00
Zn119  Zn    0.44896   0.16667   0.25000   0.00000  Uiso   1.00
Zn120  Zn    0.55104   0.16666   0.25000   0.00000  Uiso   1.00
Br121  Br    0.34685   0.20089   0.08249   0.00000  Uiso   1.00
Br122  Br    0.62312   0.07013   0.43793   0.00000  Uiso   1.00
Br123  Br    0.65510   0.20750   0.49178   0.00000  Uiso   1.00
Br124  Br    0.65724   0.08102   0.02294   0.00000  Uiso   1.00
C125   C     0.40346   0.11183   0.19025   0.00000  Uiso   1.00
N126   N     0.43163   0.08894   0.16520   0.00000  Uiso   1.00
C127   C     0.59668   0.22181   0.30935   0.00000  Uiso   1.00
N128   N     0.56858   0.24490   0.33414   0.00000  Uiso   1.00
C129   C     0.83336   0.24668   0.25008   0.00000  Uiso   1.00
C130   C     0.83333   0.08666   0.24986   0.00000  Uiso   1.00
C131   C     0.77333   0.16763   0.05600   0.00000  Uiso   1.00
C132   C     0.87007   0.11461   0.45858   0.00000  Uiso   1.00
C133   C     0.73888   0.17731   0.03703   0.00000  Uiso   1.00
C134   C     0.90428   0.10488   0.47801   0.00000  Uiso   1.00
C135   C     0.87706   0.31211   0.24161   0.00000  Uiso   1.00
C136   C     0.78969   0.02123   0.25814   0.00000  Uiso   1.00
C137   C     0.87706   0.02139   0.24139   0.00000  Uiso   1.00
C138   C     0.78969   0.31195   0.25835   0.00000  Uiso   1.00
C139   C     0.83335   0.04249   0.24972   0.00000  Uiso   1.00
C140   C     0.83338   0.29084   0.25008   0.00000  Uiso   1.00
C141   C     0.98703   0.14032   0.22128   0.00000  Uiso   1.00
C142   C     0.67967   0.19307   0.27864   0.00000  Uiso   1.00
C143   C     0.70158   0.14022   0.22121   0.00000  Uiso   1.00
C144   C     0.96513   0.19320   0.27867   0.00000  Uiso   1.00
C145   C     0.80272   0.16666   0.33818   0.00000  Uiso   1.00
C146   C     0.86385   0.16568   0.16189   0.00000  Uiso   1.00
C147   C     0.78277   0.16603   0.38942   0.00000  Uiso   1.00
C148   C     0.88219   0.15653   0.11177   0.00000  Uiso   1.00
C149   C     0.71939   0.18388   0.46434   0.00000  Uiso   1.00
C150   C     0.93200   0.11387   0.04578   0.00000  Uiso   1.00
C151   C     0.73593   0.18029   0.41552   0.00000  Uiso   1.00
C152   C     0.92202   0.13043   0.09064   0.00000  Uiso   1.00
C153   C     0.81223   0.15221   0.41199   0.00000  Uiso   1.00
C154   C     0.85257   0.16677   0.08814   0.00000  Uiso   1.00
C155   C     0.79670   0.15326   0.46089   0.00000  Uiso   1.00
C156   C     0.85675   0.14638   0.04663   0.00000  Uiso   1.00
C157   C     0.75040   0.17164   0.48816   0.00000  Uiso   1.00
C158   C     0.89881   0.12121   0.02275   0.00000  Uiso   1.00
C159   C     0.82892   0.13971   0.48224   0.00000  Uiso   1.00
C160   C     0.81977   0.15166   0.02850   0.00000  Uiso   1.00
H161   H     0.82474   0.18994   0.10414   0.00000  Uiso   1.00
H162   H     0.84884   0.14287   0.39026   0.00000  Uiso   1.00
H163   H     0.94477   0.12195   0.10967   0.00000  Uiso   1.00
H164   H     0.71278   0.19057   0.39760   0.00000  Uiso   1.00
H165   H     0.76216   0.17169   0.09350   0.00000  Uiso   1.00
H166   H     0.87539   0.10031   0.42515   0.00000  Uiso   1.00
H167   H     0.91112   0.29596   0.23489   0.00000  Uiso   1.00
H168   H     0.75562   0.03737   0.26486   0.00000  Uiso   1.00
H169   H     0.91115   0.03767   0.23452   0.00000  Uiso   1.00
H170   H     0.75560   0.29568   0.26522   0.00000  Uiso   1.00
H171   H     0.97749   0.11937   0.19838   0.00000  Uiso   1.00
H172   H     0.68924   0.21409   0.30145   0.00000  Uiso   1.00
N173   N     0.71426   0.16668   0.25001   0.00000  Uiso   1.00
N174   N     0.95241   0.16666   0.24999   0.00000  Uiso   1.00
O175   O     0.79512   0.22775   0.25001   0.00000  Uiso   1.00
O176   O     0.87154   0.10558   0.25000   0.00000  Uiso   1.00
O177   O     0.87157   0.22774   0.25000   0.00000  Uiso   1.00
O178   O     0.79510   0.10559   0.25000   0.00000  Uiso   1.00
O179   O     0.77328   0.16667   0.31613   0.00000  Uiso   1.00
O180   O     0.89339   0.16666   0.18388   0.00000  Uiso   1.00
O181   O     0.84972   0.16666   0.31612   0.00000  Uiso   1.00
O182   O     0.81695   0.16667   0.18388   0.00000  Uiso   1.00
Zn183  Zn    0.78229   0.16667   0.25000   0.00000  Uiso   1.00
Zn184  Zn    0.88438   0.16666   0.25000   0.00000  Uiso   1.00
Br185  Br    0.68018   0.20089   0.08249   0.00000  Uiso   1.00
Br186  Br    0.95645   0.07013   0.43793   0.00000  Uiso   1.00
Br187  Br    0.98843   0.20750   0.49178   0.00000  Uiso   1.00
Br188  Br    0.99058   0.08102   0.02294   0.00000  Uiso   1.00
C189   C     0.73679   0.11183   0.19025   0.00000  Uiso   1.00
N190   N     0.76496   0.08894   0.16520   0.00000  Uiso   1.00
C191   C     0.93001   0.22181   0.30935   0.00000  Uiso   1.00
N192   N     0.90191   0.24490   0.33414   0.00000  Uiso   1.00
C193   C     0.16670   0.58001   0.25008   0.00000  Uiso   1.00
C194   C     0.16666   0.41999   0.24986   0.00000  Uiso   1.00
C195   C     0.10666   0.50096   0.05600   0.00000  Uiso   1.00
C196   C     0.20341   0.44794   0.45858   0.00000  Uiso   1.00
C197   C     0.07221   0.51065   0.03703   0.00000  Uiso   1.00
C198   C     0.23761   0.43821   0.47801   0.00000  Uiso   1.00
C199   C     0.21039   0.64544   0.24161   0.00000  Uiso   1.00
C200   C     0.12302   0.35456   0.25814   0.00000  Uiso   1.00
C201   C     0.21039   0.35473   0.24139   0.00000  Uiso   1.00
C202   C     0.12302   0.64528   0.25835   0.00000  Uiso   1.00
C203   C     0.16669   0.37583   0.24972   0.00000  Uiso   1.00
C204   C     0.16671   0.62418   0.25008   0.00000  Uiso   1.00
C205   C     0.32036   0.47366   0.22128   0.00000  Uiso   1.00
C206   C     0.01300   0.52640   0.27864   0.00000  Uiso   1.00
C207   C     0.03491   0.47355   0.22121   0.00000  Uiso   1.00
C208   C     0.29846   0.52653   0.27867   0.00000  Uiso   1.00
C209   C     0.13606   0.49999   0.33818   0.00000  Uiso   1.00
C210   C     0.19719   0.49901   0.16189   0.00000  Uiso   1.00
C211   C     0.11610   0.49937   0.38942   0.00000  Uiso   1.00
C212   C     0.21553   0.48986   0.11177   0.00000  Uiso   1.00
C213   C     0.05273   0.51721   0.46434   0.00000  Uiso   1.00
C214   C     0.26533   0.44721   0.04578   0.00000  Uiso   1.00
C215   C     0.06926   0.51363   0.41552   0.00000  Uiso   1.00
C216   C     0.25535   0.46376   0.09064   0.00000  Uiso   1.00
C217   C     0.14556   0.48555   0.41199   0.00000  Uiso   1.00
C218   C     0.18591   0.50010   0.08814   0.00000  Uiso   1.00
C219   C     0.13004   0.48659   0.46089   0.00000  Uiso   1.00
C220   C     0.19008   0.47971   0.04663   0.00000  Uiso   1.00
C221   C     0.08374   0.50497   0.48816   0.00000  Uiso   1.00
C222   C     0.23214   0.45455   0.02275   0.00000  Uiso   1.00
C223   C     0.16225   0.47305   0.48224   0.00000  Uiso   1.00
C224   C     0.15310   0.48499   0.02850   0.00000  Uiso   1.00
H225   H     0.15808   0.52327   0.10414   0.00000  Uiso   1.00
H226   H     0.18217   0.47620   0.39026   0.00000  Uiso   1.00
H227   H     0.27810   0.45528   0.10967   0.00000  Uiso   1.00
H228   H     0.04611   0.52391   0.39760   0.00000  Uiso   1.00
H229   H     0.09550   0.50502   0.09350   0.00000  Uiso   1.00
H230   H     0.20872   0.43365   0.42515   0.00000  Uiso   1.00
H231   H     0.24446   0.62929   0.23489   0.00000  Uiso   1.00
H232   H     0.08895   0.37071   0.26486   0.00000  Uiso   1.00
H233   H     0.24448   0.37100   0.23452   0.00000  Uiso   1.00
H234   H     0.08893   0.62901   0.26522   0.00000  Uiso   1.00
H235   H     0.31082   0.45271   0.19838   0.00000  Uiso   1.00
H236   H     0.02257   0.54743   0.30145   0.00000  Uiso   1.00
N237   N     0.04759   0.50001   0.25001   0.00000  Uiso   1.00
N238   N     0.28574   0.49999   0.24999   0.00000  Uiso   1.00
O239   O     0.12846   0.56108   0.25001   0.00000  Uiso   1.00
O240   O     0.20488   0.43892   0.25000   0.00000  Uiso   1.00
O241   O     0.20490   0.56107   0.25000   0.00000  Uiso   1.00
O242   O     0.12843   0.43893   0.25000   0.00000  Uiso   1.00
O243   O     0.10661   0.50001   0.31613   0.00000  Uiso   1.00
O244   O     0.22672   0.49999   0.18388   0.00000  Uiso   1.00
O245   O     0.18305   0.50000   0.31612   0.00000  Uiso   1.00
O246   O     0.15028   0.50000   0.18388   0.00000  Uiso   1.00
Zn247  Zn    0.11562   0.50001   0.25000   0.00000  Uiso   1.00
Zn248  Zn    0.21771   0.49999   0.25000   0.00000  Uiso   1.00
Br249  Br    0.01351   0.53422   0.08249   0.00000  Uiso   1.00
Br250  Br    0.28978   0.40347   0.43793   0.00000  Uiso   1.00
Br251  Br    0.32176   0.54083   0.49178   0.00000  Uiso   1.00
Br252  Br    0.32391   0.41436   0.02294   0.00000  Uiso   1.00
C253   C     0.07013   0.44517   0.19025   0.00000  Uiso   1.00
N254   N     0.09830   0.42227   0.16520   0.00000  Uiso   1.00
C255   C     0.26335   0.55514   0.30935   0.00000  Uiso   1.00
N256   N     0.23525   0.57823   0.33414   0.00000  Uiso   1.00
C257   C     0.50003   0.58001   0.25008   0.00000  Uiso   1.00
C258   C     0.50000   0.41999   0.24986   0.00000  Uiso   1.00
C259   C     0.43999   0.50096   0.05600   0.00000  Uiso   1.00
C260   C     0.53674   0.44794   0.45858   0.00000  Uiso   1.00
C261   C     0.40554   0.51065   0.03703   0.00000  Uiso   1.00
C262   C     0.57094   0.43821   0.47801   0.00000  Uiso   1.00
C263   C     0.54372   0.64544   0.24161   0.00000  Uiso   1.00
C264   C     0.45635   0.35456   0.25814   0.00000  Uiso   1.00
C265   C     0.54372   0.35473   0.24139   0.00000  Uiso   1.00
C266   C     0.45636   0.64528   0.25835   0.00000  Uiso   1.00
C267   C     0.50002   0.37583   0.24972   0.00000  Uiso   1.00
C268   C     0.50005   0.62418   0.25008   0.00000  Uiso   1.00
C269   C     0.65369   0.47366   0.22128   0.00000  Uiso   1.00
C270   C     0.34633   0.52640   0.27864   0.00000  Uiso   1.00
C271   C     0.36825   0.47355   0.22121   0.00000  Uiso   1.00
C272   C     0.63180   0.52653   0.27867   0.00000  Uiso   1.00
C273   C     0.46939   0.49999   0.33818   0.00000  Uiso   1.00
C274   C     0.53052   0.49901   0.16189   0.00000  Uiso   1.00
C275   C     0.44943   0.49937   0.38942   0.00000  Uiso   1.00
C276   C     0.54886   0.48986   0.11177   0.00000  Uiso   1.00
C277   C     0.38606   0.51721   0.46434   0.00000  Uiso   1.00
C278   C     0.59866   0.44721   0.04578   0.00000  Uiso   1.00
C279   C     0.40259   0.51363   0.41552   0.00000  Uiso   1.00
C280   C     0.58868   0.46376   0.09064   0.00000  Uiso   1.00
C281   C     0.47890   0.48555   0.41199   0.00000  Uiso   1.00
C282   C     0.51924   0.50010   0.08814   0.00000  Uiso   1.00
C283   C     0.46337   0.48659   0.46089   0.00000  Uiso   1.00
C284   C     0.52341   0.47971   0.04663   0.00000  Uiso   1.00
C285   C     0.41707   0.50497   0.48816   0.00000  Uiso   1.00
C286   C     0.56547   0.45455   0.02275   0.00000  Uiso   1.00
C287   C     0.49559   0.47305   0.48224   0.00000  Uiso   1.00
C288   C     0.48643   0.48499   0.02850   0.00000  Uiso   1.00
H289   H     0.49141   0.52327   0.10414   0.00000  Uiso   1.00
H290   H     0.51551   0.47620   0.39026   0.00000  Uiso   1.00
H291   H     0.61144   0.45528   0.10967   0.00000  Uiso   1.00
H292   H     0.37945   0.52391   0.39760   0.00000  Uiso   1.00
H293   H     0.42883   0.50502   0.09350   0.00000  Uiso   1.00
H294   H     0.54206   0.43365   0.42515   0.00000  Uiso   1.00
H295   H     0.57779   0.62929   0.23489   0.00000  Uiso   1.00
H296   H     0.42229   0.37071   0.26486   0.00000  Uiso   1.00
H297   H     0.57781   0.37100   0.23452   0.00000  Uiso   1.00
H298   H     0.42227   0.62901   0.26522   0.00000  Uiso   1.00
H299   H     0.64415   0.45271   0.19838   0.00000  Uiso   1.00
H300   H     0.35590   0.54743   0.30145   0.00000  Uiso   1.00
N301   N     0.38093   0.50001   0.25001   0.00000  Uiso   1.00
N302   N     0.61907   0.49999   0.24999   0.00000  Uiso   1.00
O303   O     0.46179   0.56108   0.25001   0.00000  Uiso   1.00
O304   O     0.53821   0.43892   0.25000   0.00000  Uiso   1.00
O305   O     0.53823   0.56107   0.25000   0.00000  Uiso   1.00
O306   O     0.46177   0.43893   0.25000   0.00000  Uiso   1.00
O307   O     0.43994   0.50001   0.31613   0.00000  Uiso   1.00
O308   O     0.56006   0.49999   0.18388   0.00000  Uiso   1.00
O309   O     0.51639   0.50000   0.31612   0.00000  Uiso   1.00
O310   O     0.48361   0.50000   0.18388   0.00000  Uiso   1.00
Zn311  Zn    0.44896   0.50001   0.25000   0.00000  Uiso   1.00
Zn312  Zn    0.55104   0.49999   0.25000   0.00000  Uiso   1.00
Br313  Br    0.34685   0.53422   0.08249   0.00000  Uiso   1.00
Br314  Br    0.62312   0.40347   0.43793   0.00000  Uiso   1.00
Br315  Br    0.65510   0.54083   0.49178   0.00000  Uiso   1.00
Br316  Br    0.65724   0.41436   0.02294   0.00000  Uiso   1.00
C317   C     0.40346   0.44517   0.19025   0.00000  Uiso   1.00
N318   N     0.43163   0.42227   0.16520   0.00000  Uiso   1.00
C319   C     0.59668   0.55514   0.30935   0.00000  Uiso   1.00
N320   N     0.56858   0.57823   0.33414   0.00000  Uiso   1.00
C321   C     0.83336   0.58001   0.25008   0.00000  Uiso   1.00
C322   C     0.83333   0.41999   0.24986   0.00000  Uiso   1.00
C323   C     0.77333   0.50096   0.05600   0.00000  Uiso   1.00
C324   C     0.87007   0.44794   0.45858   0.00000  Uiso   1.00
C325   C     0.73888   0.51065   0.03703   0.00000  Uiso   1.00
C326   C     0.90428   0.43821   0.47801   0.00000  Uiso   1.00
C327   C     0.87706   0.64544   0.24161   0.00000  Uiso   1.00
C328   C     0.78969   0.35456   0.25814   0.00000  Uiso   1.00
C329   C     0.87706   0.35473   0.24139   0.00000  Uiso   1.00
C330   C     0.78969   0.64528   0.25835   0.00000  Uiso   1.00
C331   C     0.83335   0.37583   0.24972   0.00000  Uiso   1.00
C332   C     0.83338   0.62418   0.25008   0.00000  Uiso   1.00
C333   C     0.98703   0.47366   0.22128   0.00000  Uiso   1.00
C334   C     0.67967   0.52640   0.27864   0.00000  Uiso   1.00
C335   C     0.70158   0.47355   0.22121   0.00000  Uiso   1.00
C336   C     0.96513   0.52653   0.27867   0.00000  Uiso   1.00
C337   C     0.80272   0.49999   0.33818   0.00000  Uiso   1.00
C338   C     0.86385   0.49901   0.16189   0.00000  Uiso   1.00
C339   C     0.78277   0.49937   0.38942   0.00000  Uiso   1.00
C340   C     0.88219   0.48986   0.11177   0.00000  Uiso   1.00
C341   C     0.71939   0.51721   0.46434   0.00000  Uiso   1.00
C342   C     0.93200   0.44721   0.04578   0.00000  Uiso   1.00
C343   C     0.73593   0.51363   0.41552   0.00000  Uiso   1.00
C344   C     0.92202   0.46376   0.09064   0.00000  Uiso   1.00
C345   C     0.81223   0.48555   0.41199   0.00000  Uiso   1.00
C346   C     0.85257   0.50010   0.08814   0.00000  Uiso   1.00
C347   C     0.79670   0.48659   0.46089   0.00000  Uiso   1.00
C348   C     0.85675   0.47971   0.04663   0.00000  Uiso   1.00
C349   C     0.75040   0.50497   0.48816   0.00000  Uiso   1.00
C350   C     0.89881   0.45455   0.02275   0.00000  Uiso   1.00
C351   C     0.82892   0.47305   0.48224   0.00000  Uiso   1.00
C352   C     0.81977   0.48499   0.02850   0.00000  Uiso   1.00
H353   H     0.82474   0.52327   0.10414   0.00000  Uiso   1.00
H354   H     0.84884   0.47620   0.39026   0.00000  Uiso   1.00
H355   H     0.94477   0.45528   0.10967   0.00000  Uiso   1.00
H356   H     0.71278   0.52391   0.39760   0.00000  Uiso   1.00
H357   H     0.76216   0.50502   0.09350   0.00000  Uiso   1.00
H358   H     0.87539   0.43365   0.42515   0.00000  Uiso   1.00
H359   H     0.91112   0.62929   0.23489   0.00000  Uiso   1.00
H360   H     0.75562   0.37071   0.26486   0.00000  Uiso   1.00
H361   H     0.91115   0.37100   0.23452   0.00000  Uiso   1.00
H362   H     0.75560   0.62901   0.26522   0.00000  Uiso   1.00
H363   H     0.97749   0.45271   0.19838   0.00000  Uiso   1.00
H364   H     0.68924   0.54743   0.30145   0.00000  Uiso   1.00
N365   N     0.71426   0.50001   0.25001   0.00000  Uiso   1.00
N366   N     0.95241   0.49999   0.24999   0.00000  Uiso   1.00
O367   O     0.79512   0.56108   0.25001   0.00000  Uiso   1.00
O368   O     0.87154   0.43892   0.25000   0.00000  Uiso   1.00
O369   O     0.87157   0.56107   0.25000   0.00000  Uiso   1.00
O370   O     0.79510   0.43893   0.25000   0.00000  Uiso   1.00
O371   O     0.77328   0.50001   0.31613   0.00000  Uiso   1.00
O372   O     0.89339   0.49999   0.18388   0.00000  Uiso   1.00
O373   O     0.84972   0.50000   0.31612   0.00000  Uiso   1.00
O374   O     0.81695   0.50000   0.18388   0.00000  Uiso   1.00
Zn375  Zn    0.78229   0.50001   0.25000   0.00000  Uiso   1.00
Zn376  Zn    0.88438   0.49999   0.25000   0.00000  Uiso   1.00
Br377  Br    0.68018   0.53422   0.08249   0.00000  Uiso   1.00
Br378  Br    0.95645   0.40347   0.43793   0.00000  Uiso   1.00
Br379  Br    0.98843   0.54083   0.49178   0.00000  Uiso   1.00
Br380  Br    0.99058   0.41436   0.02294   0.00000  Uiso   1.00
C381   C     0.73679   0.44517   0.19025   0.00000  Uiso   1.00
N382   N     0.76496   0.42227   0.16520   0.00000  Uiso   1.00
C383   C     0.93001   0.55514   0.30935   0.00000  Uiso   1.00
N384   N     0.90191   0.57823   0.33414   0.00000  Uiso   1.00
C385   C     0.16670   0.91334   0.25008   0.00000  Uiso   1.00
C386   C     0.16666   0.75332   0.24986   0.00000  Uiso   1.00
C387   C     0.10666   0.83429   0.05600   0.00000  Uiso   1.00
C388   C     0.20341   0.78127   0.45858   0.00000  Uiso   1.00
C389   C     0.07221   0.84398   0.03703   0.00000  Uiso   1.00
C390   C     0.23761   0.77155   0.47801   0.00000  Uiso   1.00
C391   C     0.21039   0.97878   0.24161   0.00000  Uiso   1.00
C392   C     0.12302   0.68789   0.25814   0.00000  Uiso   1.00
C393   C     0.21039   0.68806   0.24139   0.00000  Uiso   1.00
C394   C     0.12302   0.97862   0.25835   0.00000  Uiso   1.00
C395   C     0.16669   0.70916   0.24972   0.00000  Uiso   1.00
C396   C     0.16671   0.95751   0.25008   0.00000  Uiso   1.00
C397   C     0.32036   0.80699   0.22128   0.00000  Uiso   1.00
C398   C     0.01300   0.85974   0.27864   0.00000  Uiso   1.00
C399   C     0.03491   0.80689   0.22121   0.00000  Uiso   1.00
C400   C     0.29846   0.85987   0.27867   0.00000  Uiso   1.00
C401   C     0.13606   0.83332   0.33818   0.00000  Uiso   1.00
C402   C     0.19719   0.83235   0.16189   0.00000  Uiso   1.00
C403   C     0.11610   0.83270   0.38942   0.00000  Uiso   1.00
C404   C     0.21553   0.82319   0.11177   0.00000  Uiso   1.00
C405   C     0.05273   0.85054   0.46434   0.00000  Uiso   1.00
C406   C     0.26533   0.78054   0.04578   0.00000  Uiso   1.00
C407   C     0.06926   0.84696   0.41552   0.00000  Uiso   1.00
C408   C     0.25535   0.79709   0.09064   0.00000  Uiso   1.00
C409   C     0.14556   0.81888   0.41199   0.00000  Uiso   1.00
C410   C     0.18591   0.83344   0.08814   0.00000  Uiso   1.00
C411   C     0.13004   0.81993   0.46089   0.00000  Uiso   1.00
C412   C     0.19008   0.81304   0.04663   0.00000  Uiso   1.00
C413   C     0.08374   0.83831   0.48816   0.00000  Uiso   1.00
C414   C     0.23214   0.78788   0.02275   0.00000  Uiso   1.00
C415   C     0.16225   0.80638   0.48224   0.00000  Uiso   1.00
C416   C     0.15310   0.81832   0.02850   0.00000  Uiso   1.00
H417   H     0.15808   0.85660   0.10414   0.00000  Uiso   1.00
H418   H     0.18217   0.80953   0.39026   0.00000  Uiso   1.00
H419   H     0.27810   0.78861   0.10967   0.00000  Uiso   1.00
H420   H     0.04611   0.85724   0.39760   0.00000  Uiso   1.00
H421   H     0.09550   0.83836   0.09350   0.00000  Uiso   1.00
H422   H     0.20872   0.76698   0.42515   0.00000  Uiso   1.00
H423   H     0.24446   0.96263   0.23489   0.00000  Uiso   1.00
H424   H     0.08895   0.70404   0.26486   0.00000  Uiso   1.00
H425   H     0.24448   0.70433   0.23452   0.00000  Uiso   1.00
H426   H     0.08893   0.96235   0.26522   0.00000  Uiso   1.00
H427   H     0.31082   0.78604   0.19838   0.00000  Uiso   1.00
H428   H     0.02257   0.88076   0.30145   0.00000  Uiso   1.00
N429   N     0.04759   0.83334   0.25001   0.00000  Uiso   1.00
N430   N     0.28574   0.83332   0.24999   0.00000  Uiso   1.00
O431   O     0.12846   0.89442   0.25001   0.00000  Uiso   1.00
O432   O     0.20488   0.77225   0.25000   0.00000  Uiso   1.00
O433   O     0.20490   0.89441   0.25000   0.00000  Uiso   1.00
O434   O     0.12843   0.77226   0.25000   0.00000  Uiso   1.00
O435   O     0.10661   0.83334   0.31613   0.00000  Uiso   1.00
O436   O     0.22672   0.83333   0.18388   0.00000  Uiso   1.00
O437   O     0.18305   0.83333   0.31612   0.00000  Uiso   1.00
O438   O     0.15028   0.83334   0.18388   0.00000  Uiso   1.00
Zn439  Zn    0.11562   0.83334   0.25000   0.00000  Uiso   1.00
Zn440  Zn    0.21771   0.83333   0.25000   0.00000  Uiso   1.00
Br441  Br    0.01351   0.86756   0.08249   0.00000  Uiso   1.00
Br442  Br    0.28978   0.73680   0.43793   0.00000  Uiso   1.00
Br443  Br    0.32176   0.87417   0.49178   0.00000  Uiso   1.00
Br444  Br    0.32391   0.74769   0.02294   0.00000  Uiso   1.00
C445   C     0.07013   0.77850   0.19025   0.00000  Uiso   1.00
N446   N     0.09830   0.75561   0.16520   0.00000  Uiso   1.00
C447   C     0.26335   0.88848   0.30935   0.00000  Uiso   1.00
N448   N     0.23525   0.91156   0.33414   0.00000  Uiso   1.00
C449   C     0.50003   0.91334   0.25008   0.00000  Uiso   1.00
C450   C     0.50000   0.75332   0.24986   0.00000  Uiso   1.00
C451   C     0.43999   0.83429   0.05600   0.00000  Uiso   1.00
C452   C     0.53674   0.78127   0.45858   0.00000  Uiso   1.00
C453   C     0.40554   0.84398   0.03703   0.00000  Uiso   1.00
C454   C     0.57094   0.77155   0.47801   0.00000  Uiso   1.00
C455   C     0.54372   0.97878   0.24161   0.00000  Uiso   1.00
C456   C     0.45635   0.68789   0.25814   0.00000  Uiso   1.00
C457   C     0.54372   0.68806   0.24139   0.00000  Uiso   1.00
C458   C     0.45636   0.97862   0.25835   0.00000  Uiso   1.00
C459   C     0.50002   0.70916   0.24972   0.00000  Uiso   1.00
C460   C     0.50005   0.95751   0.25008   0.00000  Uiso   1.00
C461   C     0.65369   0.80699   0.22128   0.00000  Uiso   1.00
C462   C     0.34633   0.85974   0.27864   0.00000  Uiso   1.00
C463   C     0.36825   0.80689   0.22121   0.00000  Uiso   1.00
C464   C     0.63180   0.85987   0.27867   0.00000  Uiso   1.00
C465   C     0.46939   0.83332   0.33818   0.00000  Uiso   1.00
C466   C     0.53052   0.83235   0.16189   0.00000  Uiso   1.00
C467   C     0.44943   0.83270   0.38942   0.00000  Uiso   1.00
C468   C     0.54886   0.82319   0.11177   0.00000  Uiso   1.00
C469   C     0.38606   0.85054   0.46434   0.00000  Uiso   1.00
C470   C     0.59866   0.78054   0.04578   0.00000  Uiso   1.00
C471   C     0.40259   0.84696   0.41552   0.00000  Uiso   1.00
C472   C     0.58868   0.79709   0.09064   0.00000  Uiso   1.00
C473   C     0.47890   0.81888   0.41199   0.00000  Uiso   1.00
C474   C     0.51924   0.83344   0.08814   0.00000  Uiso   1.00
C475   C     0.46337   0.81993   0.46089   0.00000  Uiso   1.00
C476   C     0.52341   0.81304   0.04663   0.00000  Uiso   1.00
C477   C     0.41707   0.83831   0.48816   0.00000  Uiso   1.00
C478   C     0.56547   0.78788   0.02275   0.00000  Uiso   1.00
C479   C     0.49559   0.80638   0.48224   0.00000  Uiso   1.00
C480   C     0.48643   0.81832   0.02850   0.00000  Uiso   1.00
H481   H     0.49141   0.85660   0.10414   0.00000  Uiso   1.00
H482   H     0.51551   0.80953   0.39026   0.00000  Uiso   1.00
H483   H     0.61144   0.78861   0.10967   0.00000  Uiso   1.00
H484   H     0.37945   0.85724   0.39760   0.00000  Uiso   1.00
H485   H     0.42883   0.83836   0.09350   0.00000  Uiso   1.00
H486   H     0.54206   0.76698   0.42515   0.00000  Uiso   1.00
H487   H     0.57779   0.96263   0.23489   0.00000  Uiso   1.00
H488   H     0.42229   0.70404   0.26486   0.00000  Uiso   1.00
H489   H     0.57781   0.70433   0.23452   0.00000  Uiso   1.00
H490   H     0.42227   0.96235   0.26522   0.00000  Uiso   1.00
H491   H     0.64415   0.78604   0.19838   0.00000  Uiso   1.00
H492   H     0.35590   0.88076   0.30145   0.00000  Uiso   1.00
N493   N     0.38093   0.83334   0.25001   0.00000  Uiso   1.00
N494   N     0.61907   0.83332   0.24999   0.00000  Uiso   1.00
O495   O     0.46179   0.89442   0.25001   0.00000  Uiso   1.00
O496   O     0.53821   0.77225   0.25000   0.00000  Uiso   1.00
O497   O     0.53823   0.89441   0.25000   0.00000  Uiso   1.00
O498   O     0.46177   0.77226   0.25000   0.00000  Uiso   1.00
O499   O     0.43994   0.83334   0.31613   0.00000  Uiso   1.00
O500   O     0.56006   0.83333   0.18388   0.00000  Uiso   1.00
O501   O     0.51639   0.83333   0.31612   0.00000  Uiso   1.00
O502   O     0.48361   0.83334   0.18388   0.00000  Uiso   1.00
Zn503  Zn    0.44896   0.83334   0.25000   0.00000  Uiso   1.00
Zn504  Zn    0.55104   0.83333   0.25000   0.00000  Uiso   1.00
Br505  Br    0.34685   0.86756   0.08249   0.00000  Uiso   1.00
Br506  Br    0.62312   0.73680   0.43793   0.00000  Uiso   1.00
Br507  Br    0.65510   0.87417   0.49178   0.00000  Uiso   1.00
Br508  Br    0.65724   0.74769   0.02294   0.00000  Uiso   1.00
C509   C     0.40346   0.77850   0.19025   0.00000  Uiso   1.00
N510   N     0.43163   0.75561   0.16520   0.00000  Uiso   1.00
C511   C     0.59668   0.88848   0.30935   0.00000  Uiso   1.00
N512   N     0.56858   0.91156   0.33414   0.00000  Uiso   1.00
C513   C     0.83336   0.91334   0.25008   0.00000  Uiso   1.00
C514   C     0.83333   0.75332   0.24986   0.00000  Uiso   1.00
C515   C     0.77333   0.83429   0.05600   0.00000  Uiso   1.00
C516   C     0.87007   0.78127   0.45858   0.00000  Uiso   1.00
C517   C     0.73888   0.84398   0.03703   0.00000  Uiso   1.00
C518   C     0.90428   0.77155   0.47801   0.00000  Uiso   1.00
C519   C     0.87706   0.97878   0.24161   0.00000  Uiso   1.00
C520   C     0.78969   0.68789   0.25814   0.00000  Uiso   1.00
C521   C     0.87706   0.68806   0.24139   0.00000  Uiso   1.00
C522   C     0.78969   0.97862   0.25835   0.00000  Uiso   1.00
C523   C     0.83335   0.70916   0.24972   0.00000  Uiso   1.00
C524   C     0.83338   0.95751   0.25008   0.00000  Uiso   1.00
C525   C     0.98703   0.80699   0.22128   0.00000  Uiso   1.00
C526   C     0.67967   0.85974   0.27864   0.00000  Uiso   1.00
C527   C     0.70158   0.80689   0.22121   0.00000  Uiso   1.00
C528   C     0.96513   0.85987   0.27867   0.00000  Uiso   1.00
C529   C     0.80272   0.83332   0.33818   0.00000  Uiso   1.00
C530   C     0.86385   0.83235   0.16189   0.00000  Uiso   1.00
C531   C     0.78277   0.83270   0.38942   0.00000  Uiso   1.00
C532   C     0.88219   0.82319   0.11177   0.00000  Uiso   1.00
C533   C     0.71939   0.85054   0.46434   0.00000  Uiso   1.00
C534   C     0.93200   0.78054   0.04578   0.00000  Uiso   1.00
C535   C     0.73593   0.84696   0.41552   0.00000  Uiso   1.00
C536   C     0.92202   0.79709   0.09064   0.00000  Uiso   1.00
C537   C     0.81223   0.81888   0.41199   0.00000  Uiso   1.00
C538   C     0.85257   0.83344   0.08814   0.00000  Uiso   1.00
C539   C     0.79670   0.81993   0.46089   0.00000  Uiso   1.00
C540   C     0.85675   0.81304   0.04663   0.00000  Uiso   1.00
C541   C     0.75040   0.83831   0.48816   0.00000  Uiso   1.00
C542   C     0.89881   0.78788   0.02275   0.00000  Uiso   1.00
C543   C     0.82892   0.80638   0.48224   0.00000  Uiso   1.00
C544   C     0.81977   0.81832   0.02850   0.00000  Uiso   1.00
H545   H     0.82474   0.85660   0.10414   0.00000  Uiso   1.00
H546   H     0.84884   0.80953   0.39026   0.00000  Uiso   1.00
H547   H     0.94477   0.78861   0.10967   0.00000  Uiso   1.00
H548   H     0.71278   0.85724   0.39760   0.00000  Uiso   1.00
H549   H     0.76216   0.83836   0.09350   0.00000  Uiso   1.00
H550   H     0.87539   0.76698   0.42515   0.00000  Uiso   1.00
H551   H     0.91112   0.96263   0.23489   0.00000  Uiso   1.00
H552   H     0.75562   0.70404   0.26486   0.00000  Uiso   1.00
H553   H     0.91115   0.70433   0.23452   0.00000  Uiso   1.00
H554   H     0.75560   0.96235   0.26522   0.00000  Uiso   1.00
H555   H     0.97749   0.78604   0.19838   0.00000  Uiso   1.00
H556   H     0.68924   0.88076   0.30145   0.00000  Uiso   1.00
N557   N     0.71426   0.83334   0.25001   0.00000  Uiso   1.00
N558   N     0.95241   0.83332   0.24999   0.00000  Uiso   1.00
O559   O     0.79512   0.89442   0.25001   0.00000  Uiso   1.00
O560   O     0.87154   0.77225   0.25000   0.00000  Uiso   1.00
O561   O     0.87157   0.89441   0.25000   0.00000  Uiso   1.00
O562   O     0.79510   0.77226   0.25000   0.00000  Uiso   1.00
O563   O     0.77328   0.83334   0.31613   0.00000  Uiso   1.00
O564   O     0.89339   0.83333   0.18388   0.00000  Uiso   1.00
O565   O     0.84972   0.83333   0.31612   0.00000  Uiso   1.00
O566   O     0.81695   0.83334   0.18388   0.00000  Uiso   1.00
Zn567  Zn    0.78229   0.83334   0.25000   0.00000  Uiso   1.00
Zn568  Zn    0.88438   0.83333   0.25000   0.00000  Uiso   1.00
Br569  Br    0.68018   0.86756   0.08249   0.00000  Uiso   1.00
Br570  Br    0.95645   0.73680   0.43793   0.00000  Uiso   1.00
Br571  Br    0.98843   0.87417   0.49178   0.00000  Uiso   1.00
Br572  Br    0.99058   0.74769   0.02294   0.00000  Uiso   1.00
C573   C     0.73679   0.77850   0.19025   0.00000  Uiso   1.00
N574   N     0.76496   0.75561   0.16520   0.00000  Uiso   1.00
C575   C     0.93001   0.88848   0.30935   0.00000  Uiso   1.00
N576   N     0.90191   0.91156   0.33414   0.00000  Uiso   1.00
C577   C     0.16670   0.24668   0.75008   0.00000  Uiso   1.00
C578   C     0.16666   0.08666   0.74986   0.00000  Uiso   1.00
C579   C     0.10666   0.16763   0.55600   0.00000  Uiso   1.00
C580   C     0.20341   0.11461   0.95858   0.00000  Uiso   1.00
C581   C     0.07221   0.17731   0.53703   0.00000  Uiso   1.00
C582   C     0.23761   0.10488   0.97801   0.00000  Uiso   1.00
C583   C     0.21039   0.31211   0.74161   0.00000  Uiso   1.00
C584   C     0.12302   0.02123   0.75814   0.00000  Uiso   1.00
C585   C     0.21039   0.02139   0.74139   0.00000  Uiso   1.00
C586   C     0.12302   0.31195   0.75835   0.00000  Uiso   1.00
C587   C     0.16669   0.04249   0.74972   0.00000  Uiso   1.00
C588   C     0.16671   0.29084   0.75008   0.00000  Uiso   1.00
C589   C     0.32036   0.14032   0.72128   0.00000  Uiso   1.00
C590   C     0.01300   0.19307   0.77864   0.00000  Uiso   1.00
C591   C     0.03491   0.14022   0.72121   0.00000  Uiso   1.00
C592   C     0.29846   0.19320   0.77867   0.00000  Uiso   1.00
C593   C     0.13606   0.16666   0.83818   0.00000  Uiso   1.00
C594   C     0.19719   0.16568   0.66189   0.00000  Uiso   1.00
C595   C     0.11610   0.16603   0.88942   0.00000  Uiso   1.00
C596   C     0.21553   0.15653   0.61177   0.00000  Uiso   1.00
C597   C     0.05273   0.18388   0.96434   0.00000  Uiso   1.00
C598   C     0.26533   0.11387   0.54578   0.00000  Uiso   1.00
C599   C     0.06926   0.18029   0.91552   0.00000  Uiso   1.00
C600   C     0.25535   0.13043   0.59064   0.00000  Uiso   1.00
C601   C     0.14556   0.15221   0.91199   0.00000  Uiso   1.00
C602   C     0.18591   0.16677   0.58814   0.00000  Uiso   1.00
C603   C     0.13004   0.15326   0.96089   0.00000  Uiso   1.00
C604   C     0.19008   0.14638   0.54663   0.00000  Uiso   1.00
C605   C     0.08374   0.17164   0.98816   0.00000  Uiso   1.00
C606   C     0.23214   0.12121   0.52275   0.00000  Uiso   1.00
C607   C     0.16225   0.13971   0.98224   0.00000  Uiso   1.00
C608   C     0.15310   0.15166   0.52850   0.00000  Uiso   1.00
H609   H     0.15808   0.18994   0.60414   0.00000  Uiso   1.00
H610   H     0.18217   0.14287   0.89026   0.00000  Uiso   1.00
H611   H     0.27810   0.12195   0.60967   0.00000  Uiso   1.00
H612   H     0.04611   0.19057   0.89760   0.00000  Uiso   1.00
H613   H     0.09550   0.17169   0.59350   0.00000  Uiso   1.00
H614   H     0.20872   0.10031   0.92515   0.00000  Uiso   1.00
H615   H     0.24446   0.29596   0.73489   0.00000  Uiso   1.00
H616   H     0.08895   0.03737   0.76486   0.00000  Uiso   1.00
H617   H     0.24448   0.03767   0.73452   0.00000  Uiso   1.00
H618   H     0.08893   0.29568   0.76522   0.00000  Uiso   1.00
H619   H     0.31082   0.11937   0.69838   0.00000  Uiso   1.00
H620   H     0.02257   0.21409   0.80145   0.00000  Uiso   1.00
N621   N     0.04759   0.16668   0.75001   0.00000  Uiso   1.00
N622   N     0.28574   0.16666   0.74999   0.00000  Uiso   1.00
O623   O     0.12846   0.22775   0.75001   0.00000  Uiso   1.00
O624   O     0.20488   0.10558   0.75000   0.00000  Uiso   1.00
O625   O     0.20490   0.22774   0.75000   0.00000  Uiso   1.00
O626   O     0.12843   0.10559   0.75000   0.00000  Uiso   1.00
O627   O     0.10661   0.16667   0.81613   0.00000  Uiso   1.00
O628   O     0.22672   0.16666   0.68388   0.00000  Uiso   1.00
O629   O     0.18305   0.16666   0.81612   0.00000  Uiso   1.00
O630   O     0.15028   0.16667   0.68388   0.00000  Uiso   1.00
Zn631  Zn    0.11562   0.16667   0.75000   0.00000  Uiso   1.00
Zn632  Zn    0.21771   0.16666   0.75000   0.00000  Uiso   1.00
Br633  Br    0.01351   0.20089   0.58249   0.00000  Uiso   1.00
Br634  Br    0.28978   0.07013   0.93793   0.00000  Uiso   1.00
Br635  Br    0.32176   0.20750   0.99178   0.00000  Uiso   1.00
Br636  Br    0.32391   0.08102   0.52294   0.00000  Uiso   1.00
C637   C     0.07013   0.11183   0.69025   0.00000  Uiso   1.00
N638   N     0.09830   0.08894   0.66520   0.00000  Uiso   1.00
C639   C     0.26335   0.22181   0.80935   0.00000  Uiso   1.00
N640   N     0.23525   0.24490   0.83414   0.00000  Uiso   1.00
C641   C     0.50003   0.24668   0.75008   0.00000  Uiso   1.00
C642   C     0.50000   0.08666   0.74986   0.00000  Uiso   1.00
C643   C     0.43999   0.16763   0.55600   0.00000  Uiso   1.00
C644   C     0.53674   0.11461   0.95858   0.00000  Uiso   1.00
C645   C     0.40554   0.17731   0.53703   0.00000  Uiso   1.00
C646   C     0.57094   0.10488   0.97801   0.00000  Uiso   1.00
C647   C     0.54372   0.31211   0.74161   0.00000  Uiso   1.00
C648   C     0.45635   0.02123   0.75814   0.00000  Uiso   1.00
C649   C     0.54372   0.02139   0.74139   0.00000  Uiso   1.00
C650   C     0.45636   0.31195   0.75835   0.00000  Uiso   1.00
C651   C     0.50002   0.04249   0.74972   0.00000  Uiso   1.00
C652   C     0.50005   0.29084   0.75008   0.00000  Uiso   1.00
C653   C     0.65369   0.14032   0.72128   0.00000  Uiso   1.00
C654   C     0.34633   0.19307   0.77864   0.00000  Uiso   1.00
C655   C     0.36825   0.14022   0.72121   0.00000  Uiso   1.00
C656   C     0.63180   0.19320   0.77867   0.00000  Uiso   1.00
C657   C     0.46939   0.16666   0.83818   0.00000  Uiso   1.00
C658   C     0.53052   0.16568   0.66189   0.00000  Uiso   1.00
C659   C     0.44943   0.16603   0.88942   0.00000  Uiso   1.00
C660   C     0.54886   0.15653   0.61177   0.00000  Uiso   1.00
C661   C     0.38606   0.18388   0.96434   0.00000  Uiso   1.00
C662   C     0.59866   0.11387   0.54578   0.00000  Uiso   1.00
C663   C     0.40259   0.18029   0.91552   0.00000  Uiso   1.00
C664   C     0.58868   0.13043   0.59064   0.00000  Uiso   1.00
C665   C     0.47890   0.15221   0.91199   0.00000  Uiso   1.00
C666   C     0.51924   0.16677   0.58814   0.00000  Uiso   1.00
C667   C     0.46337   0.15326   0.96089   0.00000  Uiso   1.00
C668   C     0.52341   0.14638   0.54663   0.00000  Uiso   1.00
C669   C     0.41707   0.17164   0.98816   0.00000  Uiso   1.00
C670   C     0.56547   0.12121   0.52275   0.00000  Uiso   1.00
C671   C     0.49559   0.13971   0.98224   0.00000  Uiso   1.00
C672   C     0.48643   0.15166   0.52850   0.00000  Uiso   1.00
H673   H     0.49141   0.18994   0.60414   0.00000  Uiso   1.00
H674   H     0.51551   0.14287   0.89026   0.00000  Uiso   1.00
H675   H     0.61144   0.12195   0.60967   0.00000  Uiso   1.00
H676   H     0.37945   0.19057   0.89760   0.00000  Uiso   1.00
H677   H     0.42883   0.17169   0.59350   0.00000  Uiso   1.00
H678   H     0.54206   0.10031   0.92515   0.00000  Uiso   1.00
H679   H     0.57779   0.29596   0.73489   0.00000  Uiso   1.00
H680   H     0.42229   0.03737   0.76486   0.00000  Uiso   1.00
H681   H     0.57781   0.03767   0.73452   0.00000  Uiso   1.00
H682   H     0.42227   0.29568   0.76522   0.00000  Uiso   1.00
H683   H     0.64415   0.11937   0.69838   0.00000  Uiso   1.00
H684   H     0.35590   0.21409   0.80145   0.00000  Uiso   1.00
N685   N     0.38093   0.16668   0.75001   0.00000  Uiso   1.00
N686   N     0.61907   0.16666   0.74999   0.00000  Uiso   1.00
O687   O     0.46179   0.22775   0.75001   0.00000  Uiso   1.00
O688   O     0.53821   0.10558   0.75000   0.00000  Uiso   1.00
O689   O     0.53823   0.22774   0.75000   0.00000  Uiso   1.00
O690   O     0.46177   0.10559   0.75000   0.00000  Uiso   1.00
O691   O     0.43994   0.16667   0.81613   0.00000  Uiso   1.00
O692   O     0.56006   0.16666   0.68388   0.00000  Uiso   1.00
O693   O     0.51639   0.16666   0.81612   0.00000  Uiso   1.00
O694   O     0.48361   0.16667   0.68388   0.00000  Uiso   1.00
Zn695  Zn    0.44896   0.16667   0.75000   0.00000  Uiso   1.00
Zn696  Zn    0.55104   0.16666   0.75000   0.00000  Uiso   1.00
Br697  Br    0.34685   0.20089   0.58249   0.00000  Uiso   1.00
Br698  Br    0.62312   0.07013   0.93793   0.00000  Uiso   1.00
Br699  Br    0.65510   0.20750   0.99178   0.00000  Uiso   1.00
Br700  Br    0.65724   0.08102   0.52294   0.00000  Uiso   1.00
C701   C     0.40346   0.11183   0.69025   0.00000  Uiso   1.00
N702   N     0.43163   0.08894   0.66520   0.00000  Uiso   1.00
C703   C     0.59668   0.22181   0.80935   0.00000  Uiso   1.00
N704   N     0.56858   0.24490   0.83414   0.00000  Uiso   1.00
C705   C     0.83336   0.24668   0.75008   0.00000  Uiso   1.00
C706   C     0.83333   0.08666   0.74986   0.00000  Uiso   1.00
C707   C     0.77333   0.16763   0.55600   0.00000  Uiso   1.00
C708   C     0.87007   0.11461   0.95858   0.00000  Uiso   1.00
C709   C     0.73888   0.17731   0.53703   0.00000  Uiso   1.00
C710   C     0.90428   0.10488   0.97801   0.00000  Uiso   1.00
C711   C     0.87706   0.31211   0.74161   0.00000  Uiso   1.00
C712   C     0.78969   0.02123   0.75814   0.00000  Uiso   1.00
C713   C     0.87706   0.02139   0.74139   0.00000  Uiso   1.00
C714   C     0.78969   0.31195   0.75835   0.00000  Uiso   1.00
C715   C     0.83335   0.04249   0.74972   0.00000  Uiso   1.00
C716   C     0.83338   0.29084   0.75008   0.00000  Uiso   1.00
C717   C     0.98703   0.14032   0.72128   0.00000  Uiso   1.00
C718   C     0.67967   0.19307   0.77864   0.00000  Uiso   1.00
C719   C     0.70158   0.14022   0.72121   0.00000  Uiso   1.00
C720   C     0.96513   0.19320   0.77867   0.00000  Uiso   1.00
C721   C     0.80272   0.16666   0.83818   0.00000  Uiso   1.00
C722   C     0.86385   0.16568   0.66189   0.00000  Uiso   1.00
C723   C     0.78277   0.16603   0.88942   0.00000  Uiso   1.00
C724   C     0.88219   0.15653   0.61177   0.00000  Uiso   1.00
C725   C     0.71939   0.18388   0.96434   0.00000  Uiso   1.00
C726   C     0.93200   0.11387   0.54578   0.00000  Uiso   1.00
C727   C     0.73593   0.18029   0.91552   0.00000  Uiso   1.00
C728   C     0.92202   0.13043   0.59064   0.00000  Uiso   1.00
C729   C     0.81223   0.15221   0.91199   0.00000  Uiso   1.00
C730   C     0.85257   0.16677   0.58814   0.00000  Uiso   1.00
C731   C     0.79670   0.15326   0.96089   0.00000  Uiso   1.00
C732   C     0.85675   0.14638   0.54663   0.00000  Uiso   1.00
C733   C     0.75040   0.17164   0.98816   0.00000  Uiso   1.00
C734   C     0.89881   0.12121   0.52275   0.00000  Uiso   1.00
C735   C     0.82892   0.13971   0.98224   0.00000  Uiso   1.00
C736   C     0.81977   0.15166   0.52850   0.00000  Uiso   1.00
H737   H     0.82474   0.18994   0.60414   0.00000  Uiso   1.00
H738   H     0.84884   0.14287   0.89026   0.00000  Uiso   1.00
H739   H     0.94477   0.12195   0.60967   0.00000  Uiso   1.00
H740   H     0.71278   0.19057   0.89760   0.00000  Uiso   1.00
H741   H     0.76216   0.17169   0.59350   0.00000  Uiso   1.00
H742   H     0.87539   0.10031   0.92515   0.00000  Uiso   1.00
H743   H     0.91112   0.29596   0.73489   0.00000  Uiso   1.00
H744   H     0.75562   0.03737   0.76486   0.00000  Uiso   1.00
H745   H     0.91115   0.03767   0.73452   0.00000  Uiso   1.00
H746   H     0.75560   0.29568   0.76522   0.00000  Uiso   1.00
H747   H     0.97749   0.11937   0.69838   0.00000  Uiso   1.00
H748   H     0.68924   0.21409   0.80145   0.00000  Uiso   1.00
N749   N     0.71426   0.16668   0.75001   0.00000  Uiso   1.00
N750   N     0.95241   0.16666   0.74999   0.00000  Uiso   1.00
O751   O     0.79512   0.22775   0.75001   0.00000  Uiso   1.00
O752   O     0.87154   0.10558   0.75000   0.00000  Uiso   1.00
O753   O     0.87157   0.22774   0.75000   0.00000  Uiso   1.00
O754   O     0.79510   0.10559   0.75000   0.00000  Uiso   1.00
O755   O     0.77328   0.16667   0.81613   0.00000  Uiso   1.00
O756   O     0.89339   0.16666   0.68388   0.00000  Uiso   1.00
O757   O     0.84972   0.16666   0.81612   0.00000  Uiso   1.00
O758   O     0.81695   0.16667   0.68388   0.00000  Uiso   1.00
Zn759  Zn    0.78229   0.16667   0.75000   0.00000  Uiso   1.00
Zn760  Zn    0.88438   0.16666   0.75000   0.00000  Uiso   1.00
Br761  Br    0.68018   0.20089   0.58249   0.00000  Uiso   1.00
Br762  Br    0.95645   0.07013   0.93793   0.00000  Uiso   1.00
Br763  Br    0.98843   0.20750   0.99178   0.00000  Uiso   1.00
Br764  Br    0.99058   0.08102   0.52294   0.00000  Uiso   1.00
C765   C     0.73679   0.11183   0.69025   0.00000  Uiso   1.00
N766   N     0.76496   0.08894   0.66520   0.00000  Uiso   1.00
C767   C     0.93001   0.22181   0.80935   0.00000  Uiso   1.00
N768   N     0.90191   0.24490   0.83414   0.00000  Uiso   1.00
C769   C     0.16670   0.58001   0.75008   0.00000  Uiso   1.00
C770   C     0.16666   0.41999   0.74986   0.00000  Uiso   1.00
C771   C     0.10666   0.50096   0.55600   0.00000  Uiso   1.00
C772   C     0.20341   0.44794   0.95858   0.00000  Uiso   1.00
C773   C     0.07221   0.51065   0.53703   0.00000  Uiso   1.00
C774   C     0.23761   0.43821   0.97801   0.00000  Uiso   1.00
C775   C     0.21039   0.64544   0.74161   0.00000  Uiso   1.00
C776   C     0.12302   0.35456   0.75814   0.00000  Uiso   1.00
C777   C     0.21039   0.35473   0.74139   0.00000  Uiso   1.00
C778   C     0.12302   0.64528   0.75835   0.00000  Uiso   1.00
C779   C     0.16669   0.37583   0.74972   0.00000  Uiso   1.00
C780   C     0.16671   0.62418   0.75008   0.00000  Uiso   1.00
C781   C     0.32036   0.47366   0.72128   0.00000  Uiso   1.00
C782   C     0.01300   0.52640   0.77864   0.00000  Uiso   1.00
C783   C     0.03491   0.47355   0.72121   0.00000  Uiso   1.00
C784   C     0.29846   0.52653   0.77867   0.00000  Uiso   1.00
C785   C     0.13606   0.49999   0.83818   0.00000  Uiso   1.00
C786   C     0.19719   0.49901   0.66189   0.00000  Uiso   1.00
C787   C     0.11610   0.49937   0.88942   0.00000  Uiso   1.00
C788   C     0.21553   0.48986   0.61177   0.00000  Uiso   1.00
C789   C     0.05273   0.51721   0.96434   0.00000  Uiso   1.00
C790   C     0.26533   0.44721   0.54578   0.00000  Uiso   1.00
C791   C     0.06926   0.51363   0.91552   0.00000  Uiso   1.00
C792   C     0.25535   0.46376   0.59064   0.00000  Uiso   1.00
C793   C     0.14556   0.48555   0.91199   0.00000  Uiso   1.00
C794   C     0.18591   0.50010   0.58814   0.00000  Uiso   1.00
C795   C     0.13004   0.48659   0.96089   0.00000  Uiso   1.00
C796   C     0.19008   0.47971   0.54663   0.00000  Uiso   1.00
C797   C     0.08374   0.50497   0.98816   0.00000  Uiso   1.00
C798   C     0.23214   0.45455   0.52275   0.00000  Uiso   1.00
C799   C     0.16225   0.47305   0.98224   0.00000  Uiso   1.00
C800   C     0.15310   0.48499   0.52850   0.00000  Uiso   1.00
H801   H     0.15808   0.52327   0.60414   0.00000  Uiso   1.00
H802   H     0.18217   0.47620   0.89026   0.00000  Uiso   1.00
H803   H     0.27810   0.45528   0.60967   0.00000  Uiso   1.00
H804   H     0.04611   0.52391   0.89760   0.00000  Uiso   1.00
H805   H     0.09550   0.50502   0.59350   0.00000  Uiso   1.00
H806   H     0.20872   0.43365   0.92515   0.00000  Uiso   1.00
H807   H     0.24446   0.62929   0.73489   0.00000  Uiso   1.00
H808   H     0.08895   0.37071   0.76486   0.00000  Uiso   1.00
H809   H     0.24448   0.37100   0.73452   0.00000  Uiso   1.00
H810   H     0.08893   0.62901   0.76522   0.00000  Uiso   1.00
H811   H     0.31082   0.45271   0.69838   0.00000  Uiso   1.00
H812   H     0.02257   0.54743   0.80145   0.00000  Uiso   1.00
N813   N     0.04759   0.50001   0.75001   0.00000  Uiso   1.00
N814   N     0.28574   0.49999   0.74999   0.00000  Uiso   1.00
O815   O     0.12846   0.56108   0.75001   0.00000  Uiso   1.00
O816   O     0.20488   0.43892   0.75000   0.00000  Uiso   1.00
O817   O     0.20490   0.56107   0.75000   0.00000  Uiso   1.00
O818   O     0.12843   0.43893   0.75000   0.00000  Uiso   1.00
O819   O     0.10661   0.50001   0.81613   0.00000  Uiso   1.00
O820   O     0.22672   0.49999   0.68388   0.00000  Uiso   1.00
O821   O     0.18305   0.50000   0.81612   0.00000  Uiso   1.00
O822   O     0.15028   0.50000   0.68388   0.00000  Uiso   1.00
Zn823  Zn    0.11562   0.50001   0.75000   0.00000  Uiso   1.00
Zn824  Zn    0.21771   0.49999   0.75000   0.00000  Uiso   1.00
Br825  Br    0.01351   0.53422   0.58249   0.00000  Uiso   1.00
Br826  Br    0.28978   0.40347   0.93793   0.00000  Uiso   1.00
Br827  Br    0.32176   0.54083   0.99178   0.00000  Uiso   1.00
Br828  Br    0.32391   0.41436   0.52294   0.00000  Uiso   1.00
C829   C     0.07013   0.44517   0.69025   0.00000  Uiso   1.00
N830   N     0.09830   0.42227   0.66520   0.00000  Uiso   1.00
C831   C     0.26335   0.55514   0.80935   0.00000  Uiso   1.00
N832   N     0.23525   0.57823   0.83414   0.00000  Uiso   1.00
C833   C     0.50003   0.58001   0.75008   0.00000  Uiso   1.00
C834   C     0.50000   0.41999   0.74986   0.00000  Uiso   1.00
C835   C     0.43999   0.50096   0.55600   0.00000  Uiso   1.00
C836   C     0.53674   0.44794   0.95858   0.00000  Uiso   1.00
C837   C     0.40554   0.51065   0.53703   0.00000  Uiso   1.00
C838   C     0.57094   0.43821   0.97801   0.00000  Uiso   1.00
C839   C     0.54372   0.64544   0.74161   0.00000  Uiso   1.00
C840   C     0.45635   0.35456   0.75814   0.00000  Uiso   1.00
C841   C     0.54372   0.35473   0.74139   0.00000  Uiso   1.00
C842   C     0.45636   0.64528   0.75835   0.00000  Uiso   1.00
C843   C     0.50002   0.37583   0.74972   0.00000  Uiso   1.00
C844   C     0.50005   0.62418   0.75008   0.00000  Uiso   1.00
C845   C     0.65369   0.47366   0.72128   0.00000  Uiso   1.00
C846   C     0.34633   0.52640   0.77864   0.00000  Uiso   1.00
C847   C     0.36825   0.47355   0.72121   0.00000  Uiso   1.00
C848   C     0.63180   0.52653   0.77867   0.00000  Uiso   1.00
C849   C     0.46939   0.49999   0.83818   0.00000  Uiso   1.00
C850   C     0.53052   0.49901   0.66189   0.00000  Uiso   1.00
C851   C     0.44943   0.49937   0.88942   0.00000  Uiso   1.00
C852   C     0.54886   0.48986   0.61177   0.00000  Uiso   1.00
C853   C     0.38606   0.51721   0.96434   0.00000  Uiso   1.00
C854   C     0.59866   0.44721   0.54578   0.00000  Uiso   1.00
C855   C     0.40259   0.51363   0.91552   0.00000  Uiso   1.00
C856   C     0.58868   0.46376   0.59064   0.00000  Uiso   1.00
C857   C     0.47890   0.48555   0.91199   0.00000  Uiso   1.00
C858   C     0.51924   0.50010   0.58814   0.00000  Uiso   1.00
C859   C     0.46337   0.48659   0.96089   0.00000  Uiso   1.00
C860   C     0.52341   0.47971   0.54663   0.00000  Uiso   1.00
C861   C     0.41707   0.50497   0.98816   0.00000  Uiso   1.00
C862   C     0.56547   0.45455   0.52275   0.00000  Uiso   1.00
C863   C     0.49559   0.47305   0.98224   0.00000  Uiso   1.00
C864   C     0.48643   0.48499   0.52850   0.00000  Uiso   1.00
H865   H     0.49141   0.52327   0.60414   0.00000  Uiso   1.00
H866   H     0.51551   0.47620   0.89026   0.00000  Uiso   1.00
H867   H     0.61144   0.45528   0.60967   0.00000  Uiso   1.00
H868   H     0.37945   0.52391   0.89760   0.00000  Uiso   1.00
H869   H     0.42883   0.50502   0.59350   0.00000  Uiso   1.00
H870   H     0.54206   0.43365   0.92515   0.00000  Uiso   1.00
H871   H     0.57779   0.62929   0.73489   0.00000  Uiso   1.00
H872   H     0.42229   0.37071   0.76486   0.00000  Uiso   1.00
H873   H     0.57781   0.37100   0.73452   0.00000  Uiso   1.00
H874   H     0.42227   0.62901   0.76522   0.00000  Uiso   1.00
H875   H     0.64415   0.45271   0.69838   0.00000  Uiso   1.00
H876   H     0.35590   0.54743   0.80145   0.00000  Uiso   1.00
N877   N     0.38093   0.50001   0.75001   0.00000  Uiso   1.00
N878   N     0.61907   0.49999   0.74999   0.00000  Uiso   1.00
O879   O     0.46179   0.56108   0.75001   0.00000  Uiso   1.00
O880   O     0.53821   0.43892   0.75000   0.00000  Uiso   1.00
O881   O     0.53823   0.56107   0.75000   0.00000  Uiso   1.00
O882   O     0.46177   0.43893   0.75000   0.00000  Uiso   1.00
O883   O     0.43994   0.50001   0.81613   0.00000  Uiso   1.00
O884   O     0.56006   0.49999   0.68388   0.00000  Uiso   1.00
O885   O     0.51639   0.50000   0.81612   0.00000  Uiso   1.00
O886   O     0.48361   0.50000   0.68388   0.00000  Uiso   1.00
Zn887  Zn    0.44896   0.50001   0.75000   0.00000  Uiso   1.00
Zn888  Zn    0.55104   0.49999   0.75000   0.00000  Uiso   1.00
Br889  Br    0.34685   0.53422   0.58249   0.00000  Uiso   1.00
Br890  Br    0.62312   0.40347   0.93793   0.00000  Uiso   1.00
Br891  Br    0.65510   0.54083   0.99178   0.00000  Uiso   1.00
Br892  Br    0.65724   0.41436   0.52294   0.00000  Uiso   1.00
C893   C     0.40346   0.44517   0.69025   0.00000  Uiso   1.00
N894   N     0.43163   0.42227   0.66520   0.00000  Uiso   1.00
C895   C     0.59668   0.55514   0.80935   0.00000  Uiso   1.00
N896   N     0.56858   0.57823   0.83414   0.00000  Uiso   1.00
C897   C     0.83336   0.58001   0.75008   0.00000  Uiso   1.00
C898   C     0.83333   0.41999   0.74986   0.00000  Uiso   1.00
C899   C     0.77333   0.50096   0.55600   0.00000  Uiso   1.00
C900   C     0.87007   0.44794   0.95858   0.00000  Uiso   1.00
C901   C     0.73888   0.51065   0.53703   0.00000  Uiso   1.00
C902   C     0.90428   0.43821   0.97801   0.00000  Uiso   1.00
C903   C     0.87706   0.64544   0.74161   0.00000  Uiso   1.00
C904   C     0.78969   0.35456   0.75814   0.00000  Uiso   1.00
C905   C     0.87706   0.35473   0.74139   0.00000  Uiso   1.00
C906   C     0.78969   0.64528   0.75835   0.00000  Uiso   1.00
C907   C     0.83335   0.37583   0.74972   0.00000  Uiso   1.00
C908   C     0.83338   0.62418   0.75008   0.00000  Uiso   1.00
C909   C     0.98703   0.47366   0.72128   0.00000  Uiso   1.00
C910   C     0.67967   0.52640   0.77864   0.00000  Uiso   1.00
C911   C     0.70158   0.47355   0.72121   0.00000  Uiso   1.00
C912   C     0.96513   0.52653   0.77867   0.00000  Uiso   1.00
C913   C     0.80272   0.49999   0.83818   0.00000  Uiso   1.00
C914   C     0.86385   0.49901   0.66189   0.00000  Uiso   1.00
C915   C     0.78277   0.49937   0.88942   0.00000  Uiso   1.00
C916   C     0.88219   0.48986   0.61177   0.00000  Uiso   1.00
C917   C     0.71939   0.51721   0.96434   0.00000  Uiso   1.00
C918   C     0.93200   0.44721   0.54578   0.00000  Uiso   1.00
C919   C     0.73593   0.51363   0.91552   0.00000  Uiso   1.00
C920   C     0.92202   0.46376   0.59064   0.00000  Uiso   1.00
C921   C     0.81223   0.48555   0.91199   0.00000  Uiso   1.00
C922   C     0.85257   0.50010   0.58814   0.00000  Uiso   1.00
C923   C     0.79670   0.48659   0.96089   0.00000  Uiso   1.00
C924   C     0.85675   0.47971   0.54663   0.00000  Uiso   1.00
C925   C     0.75040   0.50497   0.98816   0.00000  Uiso   1.00
C926   C     0.89881   0.45455   0.52275   0.00000  Uiso   1.00
C927   C     0.82892   0.47305   0.98224   0.00000  Uiso   1.00
C928   C     0.81977   0.48499   0.52850   0.00000  Uiso   1.00
H929   H     0.82474   0.52327   0.60414   0.00000  Uiso   1.00
H930   H     0.84884   0.47620   0.89026   0.00000  Uiso   1.00
H931   H     0.94477   0.45528   0.60967   0.00000  Uiso   1.00
H932   H     0.71278   0.52391   0.89760   0.00000  Uiso   1.00
H933   H     0.76216   0.50502   0.59350   0.00000  Uiso   1.00
H934   H     0.87539   0.43365   0.92515   0.00000  Uiso   1.00
H935   H     0.91112   0.62929   0.73489   0.00000  Uiso   1.00
H936   H     0.75562   0.37071   0.76486   0.00000  Uiso   1.00
H937   H     0.91115   0.37100   0.73452   0.00000  Uiso   1.00
H938   H     0.75560   0.62901   0.76522   0.00000  Uiso   1.00
H939   H     0.97749   0.45271   0.69838   0.00000  Uiso   1.00
H940   H     0.68924   0.54743   0.80145   0.00000  Uiso   1.00
N941   N     0.71426   0.50001   0.75001   0.00000  Uiso   1.00
N942   N     0.95241   0.49999   0.74999   0.00000  Uiso   1.00
O943   O     0.79512   0.56108   0.75001   0.00000  Uiso   1.00
O944   O     0.87154   0.43892   0.75000   0.00000  Uiso   1.00
O945   O     0.87157   0.56107   0.75000   0.00000  Uiso   1.00
O946   O     0.79510   0.43893   0.75000   0.00000  Uiso   1.00
O947   O     0.77328   0.50001   0.81613   0.00000  Uiso   1.00
O948   O     0.89339   0.49999   0.68388   0.00000  Uiso   1.00
O949   O     0.84972   0.50000   0.81612   0.00000  Uiso   1.00
O950   O     0.81695   0.50000   0.68388   0.00000  Uiso   1.00
Zn951  Zn    0.78229   0.50001   0.75000   0.00000  Uiso   1.00
Zn952  Zn    0.88438   0.49999   0.75000   0.00000  Uiso   1.00
Br953  Br    0.68018   0.53422   0.58249   0.00000  Uiso   1.00
Br954  Br    0.95645   0.40347   0.93793   0.00000  Uiso   1.00
Br955  Br    0.98843   0.54083   0.99178   0.00000  Uiso   1.00
Br956  Br    0.99058   0.41436   0.52294   0.00000  Uiso   1.00
C957   C     0.73679   0.44517   0.69025   0.00000  Uiso   1.00
N958   N     0.76496   0.42227   0.66520   0.00000  Uiso   1.00
C959   C     0.93001   0.55514   0.80935   0.00000  Uiso   1.00
N960   N     0.90191   0.57823   0.83414   0.00000  Uiso   1.00
C961   C     0.16670   0.91334   0.75008   0.00000  Uiso   1.00
C962   C     0.16666   0.75332   0.74986   0.00000  Uiso   1.00
C963   C     0.10666   0.83429   0.55600   0.00000  Uiso   1.00
C964   C     0.20341   0.78127   0.95858   0.00000  Uiso   1.00
C965   C     0.07221   0.84398   0.53703   0.00000  Uiso   1.00
C966   C     0.23761   0.77155   0.97801   0.00000  Uiso   1.00
C967   C     0.21039   0.97878   0.74161   0.00000  Uiso   1.00
C968   C     0.12302   0.68789   0.75814   0.00000  Uiso   1.00
C969   C     0.21039   0.68806   0.74139   0.00000  Uiso   1.00
C970   C     0.12302   0.97862   0.75835   0.00000  Uiso   1.00
C971   C     0.16669   0.70916   0.74972   0.00000  Uiso   1.00
C972   C     0.16671   0.95751   0.75008   0.00000  Uiso   1.00
C973   C     0.32036   0.80699   0.72128   0.00000  Uiso   1.00
C974   C     0.01300   0.85974   0.77864   0.00000  Uiso   1.00
C975   C     0.03491   0.80689   0.72121   0.00000  Uiso   1.00
C976   C     0.29846   0.85987   0.77867   0.00000  Uiso   1.00
C977   C     0.13606   0.83332   0.83818   0.00000  Uiso   1.00
C978   C     0.19719   0.83235   0.66189   0.00000  Uiso   1.00
C979   C     0.11610   0.83270   0.88942   0.00000  Uiso   1.00
C980   C     0.21553   0.82319   0.61177   0.00000  Uiso   1.00
C981   C     0.05273   0.85054   0.96434   0.00000  Uiso   1.00
C982   C     0.26533   0.78054   0.54578   0.00000  Uiso   1.00
C983   C     0.06926   0.84696   0.91552   0.00000  Uiso   1.00
C984   C     0.25535   0.79709   0.59064   0.00000  Uiso   1.00
C985   C     0.14556   0.81888   0.91199   0.00000  Uiso   1.00
C986   C     0.18591   0.83344   0.58814   0.00000  Uiso   1.00
C987   C     0.13004   0.81993   0.96089   0.00000  Uiso   1.00
C988   C     0.19008   0.81304   0.54663   0.00000  Uiso   1.00
C989   C     0.08374   0.83831   0.98816   0.00000  Uiso   1.00
C990   C     0.23214   0.78788   0.52275   0.00000  Uiso   1.00
C991   C     0.16225   0.80638   0.98224   0.00000  Uiso   1.00
C992   C     0.15310   0.81832   0.52850   0.00000  Uiso   1.00
H993   H     0.15808   0.85660   0.60414   0.00000  Uiso   1.00
H994   H     0.18217   0.80953   0.89026   0.00000  Uiso   1.00
H995   H     0.27810   0.78861   0.60967   0.00000  Uiso   1.00
H996   H     0.04611   0.85724   0.89760   0.00000  Uiso   1.00
H997   H     0.09550   0.83836   0.59350   0.00000  Uiso   1.00
H998   H     0.20872   0.76698   0.92515   0.00000  Uiso   1.00
H999   H     0.24446   0.96263   0.73489   0.00000  Uiso   1.00
H1000  H     0.08895   0.70404   0.76486   0.00000  Uiso   1.00
H1001  H     0.24448   0.70433   0.73452   0.00000  Uiso   1.00
H1002  H     0.08893   0.96235   0.76522   0.00000  Uiso   1.00
H1003  H     0.31082   0.78604   0.69838   0.00000  Uiso   1.00
H1004  H     0.02257   0.88076   0.80145   0.00000  Uiso   1.00
N1005  N     0.04759   0.83334   0.75001   0.00000  Uiso   1.00
N1006  N     0.28574   0.83332   0.74999   0.00000  Uiso   1.00
O1007  O     0.12846   0.89442   0.75001   0.00000  Uiso   1.00
O1008  O     0.20488   0.77225   0.75000   0.00000  Uiso   1.00
O1009  O     0.20490   0.89441   0.75000   0.00000  Uiso   1.00
O1010  O     0.12843   0.77226   0.75000   0.00000  Uiso   1.00
O1011  O     0.10661   0.83334   0.81613   0.00000  Uiso   1.00
O1012  O     0.22672   0.83333   0.68388   0.00000  Uiso   1.00
O1013  O     0.18305   0.83333   0.81612   0.00000  Uiso   1.00
O1014  O     0.15028   0.83334   0.68388   0.00000  Uiso   1.00
Zn1015 Zn    0.11562   0.83334   0.75000   0.00000  Uiso   1.00
Zn1016 Zn    0.21771   0.83333   0.75000   0.00000  Uiso   1.00
Br1017 Br    0.01351   0.86756   0.58249   0.00000  Uiso   1.00
Br1018 Br    0.28978   0.73680   0.93793   0.00000  Uiso   1.00
Br1019 Br    0.32176   0.87417   0.99178   0.00000  Uiso   1.00
Br1020 Br    0.32391   0.74769   0.52294   0.00000  Uiso   1.00
C1021  C     0.07013   0.77850   0.69025   0.00000  Uiso   1.00
N1022  N     0.09830   0.75561   0.66520   0.00000  Uiso   1.00
C1023  C     0.26335   0.88848   0.80935   0.00000  Uiso   1.00
N1024  N     0.23525   0.91156   0.83414   0.00000  Uiso   1.00
C1025  C     0.50003   0.91334   0.75008   0.00000  Uiso   1.00
C1026  C     0.50000   0.75332   0.74986   0.00000  Uiso   1.00
C1027  C     0.43999   0.83429   0.55600   0.00000  Uiso   1.00
C1028  C     0.53674   0.78127   0.95858   0.00000  Uiso   1.00
C1029  C     0.40554   0.84398   0.53703   0.00000  Uiso   1.00
C1030  C     0.57094   0.77155   0.97801   0.00000  Uiso   1.00
C1031  C     0.54372   0.97878   0.74161   0.00000  Uiso   1.00
C1032  C     0.45635   0.68789   0.75814   0.00000  Uiso   1.00
C1033  C     0.54372   0.68806   0.74139   0.00000  Uiso   1.00
C1034  C     0.45636   0.97862   0.75835   0.00000  Uiso   1.00
C1035  C     0.50002   0.70916   0.74972   0.00000  Uiso   1.00
C1036  C     0.50005   0.95751   0.75008   0.00000  Uiso   1.00
C1037  C     0.65369   0.80699   0.72128   0.00000  Uiso   1.00
C1038  C     0.34633   0.85974   0.77864   0.00000  Uiso   1.00
C1039  C     0.36825   0.80689   0.72121   0.00000  Uiso   1.00
C1040  C     0.63180   0.85987   0.77867   0.00000  Uiso   1.00
C1041  C     0.46939   0.83332   0.83818   0.00000  Uiso   1.00
C1042  C     0.53052   0.83235   0.66189   0.00000  Uiso   1.00
C1043  C     0.44943   0.83270   0.88942   0.00000  Uiso   1.00
C1044  C     0.54886   0.82319   0.61177   0.00000  Uiso   1.00
C1045  C     0.38606   0.85054   0.96434   0.00000  Uiso   1.00
C1046  C     0.59866   0.78054   0.54578   0.00000  Uiso   1.00
C1047  C     0.40259   0.84696   0.91552   0.00000  Uiso   1.00
C1048  C     0.58868   0.79709   0.59064   0.00000  Uiso   1.00
C1049  C     0.47890   0.81888   0.91199   0.00000  Uiso   1.00
C1050  C     0.51924   0.83344   0.58814   0.00000  Uiso   1.00
C1051  C     0.46337   0.81993   0.96089   0.00000  Uiso   1.00
C1052  C     0.52341   0.81304   0.54663   0.00000  Uiso   1.00
C1053  C     0.41707   0.83831   0.98816   0.00000  Uiso   1.00
C1054  C     0.56547   0.78788   0.52275   0.00000  Uiso   1.00
C1055  C     0.49559   0.80638   0.98224   0.00000  Uiso   1.00
C1056  C     0.48643   0.81832   0.52850   0.00000  Uiso   1.00
H1057  H     0.49141   0.85660   0.60414   0.00000  Uiso   1.00
H1058  H     0.51551   0.80953   0.89026   0.00000  Uiso   1.00
H1059  H     0.61144   0.78861   0.60967   0.00000  Uiso   1.00
H1060  H     0.37945   0.85724   0.89760   0.00000  Uiso   1.00
H1061  H     0.42883   0.83836   0.59350   0.00000  Uiso   1.00
H1062  H     0.54206   0.76698   0.92515   0.00000  Uiso   1.00
H1063  H     0.57779   0.96263   0.73489   0.00000  Uiso   1.00
H1064  H     0.42229   0.70404   0.76486   0.00000  Uiso   1.00
H1065  H     0.57781   0.70433   0.73452   0.00000  Uiso   1.00
H1066  H     0.42227   0.96235   0.76522   0.00000  Uiso   1.00
H1067  H     0.64415   0.78604   0.69838   0.00000  Uiso   1.00
H1068  H     0.35590   0.88076   0.80145   0.00000  Uiso   1.00
N1069  N     0.38093   0.83334   0.75001   0.00000  Uiso   1.00
N1070  N     0.61907   0.83332   0.74999   0.00000  Uiso   1.00
O1071  O     0.46179   0.89442   0.75001   0.00000  Uiso   1.00
O1072  O     0.53821   0.77225   0.75000   0.00000  Uiso   1.00
O1073  O     0.53823   0.89441   0.75000   0.00000  Uiso   1.00
O1074  O     0.46177   0.77226   0.75000   0.00000  Uiso   1.00
O1075  O     0.43994   0.83334   0.81613   0.00000  Uiso   1.00
O1076  O     0.56006   0.83333   0.68388   0.00000  Uiso   1.00
O1077  O     0.51639   0.83333   0.81612   0.00000  Uiso   1.00
O1078  O     0.48361   0.83334   0.68388   0.00000  Uiso   1.00
Zn1079 Zn    0.44896   0.83334   0.75000   0.00000  Uiso   1.00
Zn1080 Zn    0.55104   0.83333   0.75000   0.00000  Uiso   1.00
Br1081 Br    0.34685   0.86756   0.58249   0.00000  Uiso   1.00
Br1082 Br    0.62312   0.73680   0.93793   0.00000  Uiso   1.00
Br1083 Br    0.65510   0.87417   0.99178   0.00000  Uiso   1.00
Br1084 Br    0.65724   0.74769   0.52294   0.00000  Uiso   1.00
C1085  C     0.40346   0.77850   0.69025   0.00000  Uiso   1.00
N1086  N     0.43163   0.75561   0.66520   0.00000  Uiso   1.00
C1087  C     0.59668   0.88848   0.80935   0.00000  Uiso   1.00
N1088  N     0.56858   0.91156   0.83414   0.00000  Uiso   1.00
C1089  C     0.83336   0.91334   0.75008   0.00000  Uiso   1.00
C1090  C     0.83333   0.75332   0.74986   0.00000  Uiso   1.00
C1091  C     0.77333   0.83429   0.55600   0.00000  Uiso   1.00
C1092  C     0.87007   0.78127   0.95858   0.00000  Uiso   1.00
C1093  C     0.73888   0.84398   0.53703   0.00000  Uiso   1.00
C1094  C     0.90428   0.77155   0.97801   0.00000  Uiso   1.00
C1095  C     0.87706   0.97878   0.74161   0.00000  Uiso   1.00
C1096  C     0.78969   0.68789   0.75814   0.00000  Uiso   1.00
C1097  C     0.87706   0.68806   0.74139   0.00000  Uiso   1.00
C1098  C     0.78969   0.97862   0.75835   0.00000  Uiso   1.00
C1099  C     0.83335   0.70916   0.74972   0.00000  Uiso   1.00
C1100  C     0.83338   0.95751   0.75008   0.00000  Uiso   1.00
C1101  C     0.98703   0.80699   0.72128   0.00000  Uiso   1.00
C1102  C     0.67967   0.85974   0.77864   0.00000  Uiso   1.00
C1103  C     0.70158   0.80689   0.72121   0.00000  Uiso   1.00
C1104  C     0.96513   0.85987   0.77867   0.00000  Uiso   1.00
C1105  C     0.80272   0.83332   0.83818   0.00000  Uiso   1.00
C1106  C     0.86385   0.83235   0.66189   0.00000  Uiso   1.00
C1107  C     0.78277   0.83270   0.88942   0.00000  Uiso   1.00
C1108  C     0.88219   0.82319   0.61177   0.00000  Uiso   1.00
C1109  C     0.71939   0.85054   0.96434   0.00000  Uiso   1.00
C1110  C     0.93200   0.78054   0.54578   0.00000  Uiso   1.00
C1111  C     0.73593   0.84696   0.91552   0.00000  Uiso   1.00
C1112  C     0.92202   0.79709   0.59064   0.00000  Uiso   1.00
C1113  C     0.81223   0.81888   0.91199   0.00000  Uiso   1.00
C1114  C     0.85257   0.83344   0.58814   0.00000  Uiso   1.00
C1115  C     0.79670   0.81993   0.96089   0.00000  Uiso   1.00
C1116  C     0.85675   0.81304   0.54663   0.00000  Uiso   1.00
C1117  C     0.75040   0.83831   0.98816   0.00000  Uiso   1.00
C1118  C     0.89881   0.78788   0.52275   0.00000  Uiso   1.00
C1119  C     0.82892   0.80638   0.98224   0.00000  Uiso   1.00
C1120  C     0.81977   0.81832   0.52850   0.00000  Uiso   1.00
H1121  H     0.82474   0.85660   0.60414   0.00000  Uiso   1.00
H1122  H     0.84884   0.80953   0.89026   0.00000  Uiso   1.00
H1123  H     0.94477   0.78861   0.60967   0.00000  Uiso   1.00
H1124  H     0.71278   0.85724   0.89760   0.00000  Uiso   1.00
H1125  H     0.76216   0.83836   0.59350   0.00000  Uiso   1.00
H1126  H     0.87539   0.76698   0.92515   0.00000  Uiso   1.00
H1127  H     0.91112   0.96263   0.73489   0.00000  Uiso   1.00
H1128  H     0.75562   0.70404   0.76486   0.00000  Uiso   1.00
H1129  H     0.91115   0.70433   0.73452   0.00000  Uiso   1.00
H1130  H     0.75560   0.96235   0.76522   0.00000  Uiso   1.00
H1131  H     0.97749   0.78604   0.69838   0.00000  Uiso   1.00
H1132  H     0.68924   0.88076   0.80145   0.00000  Uiso   1.00
N1133  N     0.71426   0.83334   0.75001   0.00000  Uiso   1.00
N1134  N     0.95241   0.83332   0.74999   0.00000  Uiso   1.00
O1135  O     0.79512   0.89442   0.75001   0.00000  Uiso   1.00
O1136  O     0.87154   0.77225   0.75000   0.00000  Uiso   1.00
O1137  O     0.87157   0.89441   0.75000   0.00000  Uiso   1.00
O1138  O     0.79510   0.77226   0.75000   0.00000  Uiso   1.00
O1139  O     0.77328   0.83334   0.81613   0.00000  Uiso   1.00
O1140  O     0.89339   0.83333   0.68388   0.00000  Uiso   1.00
O1141  O     0.84972   0.83333   0.81612   0.00000  Uiso   1.00
O1142  O     0.81695   0.83334   0.68388   0.00000  Uiso   1.00
Zn1143 Zn    0.78229   0.83334   0.75000   0.00000  Uiso   1.00
Zn1144 Zn    0.88438   0.83333   0.75000   0.00000  Uiso   1.00
Br1145 Br    0.68018   0.86756   0.58249   0.00000  Uiso   1.00
Br1146 Br    0.95645   0.73680   0.93793   0.00000  Uiso   1.00
Br1147 Br    0.98843   0.87417   0.99178   0.00000  Uiso   1.00
Br1148 Br    0.99058   0.74769   0.52294   0.00000  Uiso   1.00
C1149  C     0.73679   0.77850   0.69025   0.00000  Uiso   1.00
N1150  N     0.76496   0.75561   0.66520   0.00000  Uiso   1.00
C1151  C     0.93001   0.88848   0.80935   0.00000  Uiso   1.00
N1152  N     0.90191   0.91156   0.83414   0.00000  Uiso   1.00
loop_
_geom_bond_atom_site_label_1
_geom_bond_atom_site_label_2
_geom_bond_distance
_geom_bond_site_symmetry_2
_ccdc_geom_bond_type
C1     C12     1.420   .     S
C1     O47     1.285   .     A
C1     O49     1.286   .     A
C2     C11     1.420   .     S
C2     O50     1.286   .     A
C2     O48     1.285   .     A
C3     C32     1.410   .     A
C3     H37     1.080   .     S
C3     C5      1.392   .     A
C4     C6      1.395   .     A
C4     H38     1.079   .     S
C4     C31     1.412   .     A
C5     Br57    1.924   .     S
C5     C605    1.421   1_554 S
C6     Br58    1.924   .     S
C6     C606    1.421   .     S
C7     C12     1.397   .     A
C7     H39     1.084   .     S
C7     C201    1.370   .     S
C8     H40     1.084   .     S
C8     C11     1.397   .     A
C8     C394    1.370   1_545 S
C9     H41     1.084   .     S
C9     C11     1.398   .     A
C9     C391    1.370   1_545 S
C10    C12     1.398   .     A
C10    H42     1.084   .     S
C10    C200    1.370   .     S
C13    N46     1.362   .     A
C13    H43     1.083   .     S
C13    C79     1.418   .     S
C14    H44     1.083   .     S
C14    N45     1.362   .     A
C14    C144    1.418   1_455 S
C15    C61     1.438   .     S
C15    N45     1.375   .     A
C15    C141    1.418   1_455 S
C16    C63     1.438   .     S
C16    N46     1.374   .     A
C16    C78     1.418   .     S
C17    O51     1.293   .     A
C17    C19     1.459   .     S
C17    O53     1.297   .     A
C18    O52     1.294   .     A
C18    C20     1.456   .     S
C18    O54     1.295   .     A
C19    C23     1.391   .     A
C19    C25     1.382   .     A
C20    C24     1.391   .     A
C20    C26     1.377   .     A
C21    C29     1.433   .     A
C21    C23     1.396   .     A
C21    Br187   1.923   1_455 S
C22    Br60    1.923   .     S
C22    C24     1.399   .     A
C22    C30     1.434   .     A
C23    H36     1.084   .     S
C24    H35     1.084   .     S
C25    H34     1.078   .     S
C25    C27     1.397   .     A
C26    H33     1.081   .     S
C26    C28     1.394   .     A
C27    C29     1.435   .     A
C27    C31     1.420   .     A
C28    C30     1.432   .     A
C28    C32     1.417   .     A
C29    C581    1.421   .     S
C30    C582    1.421   1_554 S
C31    C608    1.395   .     S
C32    C607    1.395   1_554 S
N45    Zn55    2.015   .     S
N46    Zn56    2.015   .     S
O47    Zn55    1.998   .     S
O48    Zn56    1.998   .     S
O49    Zn56    2.001   .     S
O50    Zn55    2.001   .     S
O51    Zn55    1.949   .     S
O52    Zn56    1.949   .     S
O53    Zn56    1.899   .     S
O54    Zn55    1.899   .     S
Br59   C85     1.923   .     S
C61    N62     1.158   .     T
C63    N64     1.157   .     T
C65    C76     1.420   .     S
C65    O111    1.285   .     A
C65    O113    1.286   .     A
C66    C75     1.420   .     S
C66    O114    1.286   .     A
C66    O112    1.285   .     A
C67    C96     1.410   .     A
C67    H101    1.080   .     S
C67    C69     1.392   .     A
C68    C70     1.395   .     A
C68    H102    1.079   .     S
C68    C95     1.412   .     A
C69    Br121   1.924   .     S
C69    C669    1.421   1_554 S
C70    Br122   1.924   .     S
C70    C670    1.421   .     S
C71    C76     1.397   .     A
C71    H103    1.084   .     S
C71    C265    1.370   .     S
C72    H104    1.084   .     S
C72    C75     1.397   .     A
C72    C458    1.370   1_545 S
C73    H105    1.084   .     S
C73    C75     1.398   .     A
C73    C455    1.370   1_545 S
C74    C76     1.398   .     A
C74    H106    1.084   .     S
C74    C264    1.370   .     S
C77    N110    1.362   .     A
C77    H107    1.083   .     S
C77    C143    1.418   .     S
C78    H108    1.083   .     S
C78    N109    1.362   .     A
C79    C125    1.438   .     S
C79    N109    1.375   .     A
C80    C127    1.438   .     S
C80    N110    1.374   .     A
C80    C142    1.418   .     S
C81    O115    1.293   .     A
C81    C83     1.459   .     S
C81    O117    1.297   .     A
C82    O116    1.294   .     A
C82    C84     1.456   .     S
C82    O118    1.295   .     A
C83    C87     1.391   .     A
C83    C89     1.382   .     A
C84    C88     1.391   .     A
C84    C90     1.377   .     A
C85    C93     1.433   .     A
C85    C87     1.396   .     A
C86    Br124   1.923   .     S
C86    C88     1.399   .     A
C86    C94     1.434   .     A
C87    H100    1.084   .     S
C88    H99     1.084   .     S
C89    H98     1.078   .     S
C89    C91     1.397   .     A
C90    H97     1.081   .     S
C90    C92     1.394   .     A
C91    C93     1.435   .     A
C91    C95     1.420   .     A
C92    C94     1.432   .     A
C92    C96     1.417   .     A
C93    C645    1.421   .     S
C94    C646    1.421   1_554 S
C95    C672    1.395   .     S
C96    C671    1.395   1_554 S
N109   Zn119   2.015   .     S
N110   Zn120   2.015   .     S
O111   Zn119   1.998   .     S
O112   Zn120   1.998   .     S
O113   Zn120   2.001   .     S
O114   Zn119   2.001   .     S
O115   Zn119   1.949   .     S
O116   Zn120   1.949   .     S
O117   Zn120   1.899   .     S
O118   Zn119   1.899   .     S
Br123  C149    1.923   .     S
C125   N126    1.158   .     T
C127   N128    1.157   .     T
C129   C140    1.420   .     S
C129   O175    1.285   .     A
C129   O177    1.286   .     A
C130   C139    1.420   .     S
C130   O178    1.286   .     A
C130   O176    1.285   .     A
C131   C160    1.410   .     A
C131   H165    1.080   .     S
C131   C133    1.392   .     A
C132   C134    1.395   .     A
C132   H166    1.079   .     S
C132   C159    1.412   .     A
C133   Br185   1.924   .     S
C133   C733    1.421   1_554 S
C134   Br186   1.924   .     S
C134   C734    1.421   .     S
C135   C140    1.397   .     A
C135   H167    1.084   .     S
C135   C329    1.370   .     S
C136   H168    1.084   .     S
C136   C139    1.397   .     A
C136   C522    1.370   1_545 S
C137   H169    1.084   .     S
C137   C139    1.398   .     A
C137   C519    1.370   1_545 S
C138   C140    1.398   .     A
C138   H170    1.084   .     S
C138   C328    1.370   .     S
C141   N174    1.362   .     A
C141   H171    1.083   .     S
C141   C15     1.418   1_655 S
C142   H172    1.083   .     S
C142   N173    1.362   .     A
C143   C189    1.438   .     S
C143   N173    1.375   .     A
C144   C191    1.438   .     S
C144   N174    1.374   .     A
C144   C14     1.418   1_655 S
C145   O179    1.293   .     A
C145   C147    1.459   .     S
C145   O181    1.297   .     A
C146   O180    1.294   .     A
C146   C148    1.456   .     S
C146   O182    1.295   .     A
C147   C151    1.391   .     A
C147   C153    1.382   .     A
C148   C152    1.391   .     A
C148   C154    1.377   .     A
C149   C157    1.433   .     A
C149   C151    1.396   .     A
C150   Br188   1.923   .     S
C150   C152    1.399   .     A
C150   C158    1.434   .     A
C151   H164    1.084   .     S
C152   H163    1.084   .     S
C153   H162    1.078   .     S
C153   C155    1.397   .     A
C154   H161    1.081   .     S
C154   C156    1.394   .     A
C155   C157    1.435   .     A
C155   C159    1.420   .     A
C156   C158    1.432   .     A
C156   C160    1.417   .     A
C157   C709    1.421   .     S
C158   C710    1.421   1_554 S
C159   C736    1.395   .     S
C160   C735    1.395   1_554 S
N173   Zn183   2.015   .     S
N174   Zn184   2.015   .     S
O175   Zn183   1.998   .     S
O176   Zn184   1.998   .     S
O177   Zn184   2.001   .     S
O178   Zn183   2.001   .     S
O179   Zn183   1.949   .     S
O180   Zn184   1.949   .     S
O181   Zn184   1.899   .     S
O182   Zn183   1.899   .     S
Br187  C21     1.923   1_655 S
C189   N190    1.158   .     T
C191   N192    1.157   .     T
C193   C204    1.420   .     S
C193   O239    1.285   .     A
C193   O241    1.286   .     A
C194   C203    1.420   .     S
C194   O242    1.286   .     A
C194   O240    1.285   .     A
C195   C224    1.410   .     A
C195   H229    1.080   .     S
C195   C197    1.392   .     A
C196   C198    1.395   .     A
C196   H230    1.079   .     S
C196   C223    1.412   .     A
C197   Br249   1.924   .     S
C197   C797    1.421   1_554 S
C198   Br250   1.924   .     S
C198   C798    1.421   .     S
C199   C204    1.397   .     A
C199   H231    1.084   .     S
C199   C393    1.370   .     S
C200   H232    1.084   .     S
C200   C203    1.397   .     A
C201   H233    1.084   .     S
C201   C203    1.398   .     A
C202   C204    1.398   .     A
C202   H234    1.084   .     S
C202   C392    1.370   .     S
C205   N238    1.362   .     A
C205   H235    1.083   .     S
C205   C271    1.418   .     S
C206   H236    1.083   .     S
C206   N237    1.362   .     A
C206   C336    1.418   1_455 S
C207   C253    1.438   .     S
C207   N237    1.375   .     A
C207   C333    1.418   1_455 S
C208   C255    1.438   .     S
C208   N238    1.374   .     A
C208   C270    1.418   .     S
C209   O243    1.293   .     A
C209   C211    1.459   .     S
C209   O245    1.297   .     A
C210   O244    1.294   .     A
C210   C212    1.456   .     S
C210   O246    1.295   .     A
C211   C215    1.391   .     A
C211   C217    1.382   .     A
C212   C216    1.391   .     A
C212   C218    1.377   .     A
C213   C221    1.433   .     A
C213   C215    1.396   .     A
C213   Br379   1.923   1_455 S
C214   Br252   1.923   .     S
C214   C216    1.399   .     A
C214   C222    1.434   .     A
C215   H228    1.084   .     S
C216   H227    1.084   .     S
C217   H226    1.078   .     S
C217   C219    1.397   .     A
C218   H225    1.081   .     S
C218   C220    1.394   .     A
C219   C221    1.435   .     A
C219   C223    1.420   .     A
C220   C222    1.432   .     A
C220   C224    1.417   .     A
C221   C773    1.421   .     S
C222   C774    1.421   1_554 S
C223   C800    1.395   .     S
C224   C799    1.395   1_554 S
N237   Zn247   2.015   .     S
N238   Zn248   2.015   .     S
O239   Zn247   1.998   .     S
O240   Zn248   1.998   .     S
O241   Zn248   2.001   .     S
O242   Zn247   2.001   .     S
O243   Zn247   1.949   .     S
O244   Zn248   1.949   .     S
O245   Zn248   1.899   .     S
O246   Zn247   1.899   .     S
Br251  C277    1.923   .     S
C253   N254    1.158   .     T
C255   N256    1.157   .     T
C257   C268    1.420   .     S
C257   O303    1.285   .     A
C257   O305    1.286   .     A
C258   C267    1.420   .     S
C258   O306    1.286   .     A
C258   O304    1.285   .     A
C259   C288    1.410   .     A
C259   H293    1.080   .     S
C259   C261    1.392   .     A
C260   C262    1.395   .     A
C260   H294    1.079   .     S
C260   C287    1.412   .     A
C261   Br313   1.924   .     S
C261   C861    1.421   1_554 S
C262   Br314   1.924   .     S
C262   C862    1.421   .     S
C263   C268    1.397   .     A
C263   H295    1.084   .     S
C263   C457    1.370   .     S
C264   H296    1.084   .     S
C264   C267    1.397   .     A
C265   H297    1.084   .     S
C265   C267    1.398   .     A
C266   C268    1.398   .     A
C266   H298    1.084   .     S
C266   C456    1.370   .     S
C269   N302    1.362   .     A
C269   H299    1.083   .     S
C269   C335    1.418   .     S
C270   H300    1.083   .     S
C270   N301    1.362   .     A
C271   C317    1.438   .     S
C271   N301    1.375   .     A
C272   C319    1.438   .     S
C272   N302    1.374   .     A
C272   C334    1.418   .     S
C273   O307    1.293   .     A
C273   C275    1.459   .     S
C273   O309    1.297   .     A
C274   O308    1.294   .     A
C274   C276    1.456   .     S
C274   O310    1.295   .     A
C275   C279    1.391   .     A
C275   C281    1.382   .     A
C276   C280    1.391   .     A
C276   C282    1.377   .     A
C277   C285    1.433   .     A
C277   C279    1.396   .     A
C278   Br316   1.923   .     S
C278   C280    1.399   .     A
C278   C286    1.434   .     A
C279   H292    1.084   .     S
C280   H291    1.084   .     S
C281   H290    1.078   .     S
C281   C283    1.397   .     A
C282   H289    1.081   .     S
C282   C284    1.394   .     A
C283   C285    1.435   .     A
C283   C287    1.420   .     A
C284   C286    1.432   .     A
C284   C288    1.417   .     A
C285   C837    1.421   .     S
C286   C838    1.421   1_554 S
C287   C864    1.395   .     S
C288   C863    1.395   1_554 S
N301   Zn311   2.015   .     S
N302   Zn312   2.015   .     S
O303   Zn311   1.998   .     S
O304   Zn312   1.998   .     S
O305   Zn312   2.001   .     S
O306   Zn311   2.001   .     S
O307   Zn311   1.949   .     S
O308   Zn312   1.949   .     S
O309   Zn312   1.899   .     S
O310   Zn311   1.899   .     S
Br315  C341    1.923   .     S
C317   N318    1.158   .     T
C319   N320    1.157   .     T
C321   C332    1.420   .     S
C321   O367    1.285   .     A
C321   O369    1.286   .     A
C322   C331    1.420   .     S
C322   O370    1.286   .     A
C322   O368    1.285   .     A
C323   C352    1.410   .     A
C323   H357    1.080   .     S
C323   C325    1.392   .     A
C324   C326    1.395   .     A
C324   H358    1.079   .     S
C324   C351    1.412   .     A
C325   Br377   1.924   .     S
C325   C925    1.421   1_554 S
C326   Br378   1.924   .     S
C326   C926    1.421   .     S
C327   C332    1.397   .     A
C327   H359    1.084   .     S
C327   C521    1.370   .     S
C328   H360    1.084   .     S
C328   C331    1.397   .     A
C329   H361    1.084   .     S
C329   C331    1.398   .     A
C330   C332    1.398   .     A
C330   H362    1.084   .     S
C330   C520    1.370   .     S
C333   N366    1.362   .     A
C333   H363    1.083   .     S
C333   C207    1.418   1_655 S
C334   H364    1.083   .     S
C334   N365    1.362   .     A
C335   C381    1.438   .     S
C335   N365    1.375   .     A
C336   C383    1.438   .     S
C336   N366    1.374   .     A
C336   C206    1.418   1_655 S
C337   O371    1.293   .     A
C337   C339    1.459   .     S
C337   O373    1.297   .     A
C338   O372    1.294   .     A
C338   C340    1.456   .     S
C338   O374    1.295   .     A
C339   C343    1.391   .     A
C339   C345    1.382   .     A
C340   C344    1.391   .     A
C340   C346    1.377   .     A
C341   C349    1.433   .     A
C341   C343    1.396   .     A
C342   Br380   1.923   .     S
C342   C344    1.399   .     A
C342   C350    1.434   .     A
C343   H356    1.084   .     S
C344   H355    1.084   .     S
C345   H354    1.078   .     S
C345   C347    1.397   .     A
C346   H353    1.081   .     S
C346   C348    1.394   .     A
C347   C349    1.435   .     A
C347   C351    1.420   .     A
C348   C350    1.432   .     A
C348   C352    1.417   .     A
C349   C901    1.421   .     S
C350   C902    1.421   1_554 S
C351   C928    1.395   .     S
C352   C927    1.395   1_554 S
N365   Zn375   2.015   .     S
N366   Zn376   2.015   .     S
O367   Zn375   1.998   .     S
O368   Zn376   1.998   .     S
O369   Zn376   2.001   .     S
O370   Zn375   2.001   .     S
O371   Zn375   1.949   .     S
O372   Zn376   1.949   .     S
O373   Zn376   1.899   .     S
O374   Zn375   1.899   .     S
Br379  C213    1.923   1_655 S
C381   N382    1.158   .     T
C383   N384    1.157   .     T
C385   C396    1.420   .     S
C385   O431    1.285   .     A
C385   O433    1.286   .     A
C386   C395    1.420   .     S
C386   O434    1.286   .     A
C386   O432    1.285   .     A
C387   C416    1.410   .     A
C387   H421    1.080   .     S
C387   C389    1.392   .     A
C388   C390    1.395   .     A
C388   H422    1.079   .     S
C388   C415    1.412   .     A
C389   Br441   1.924   .     S
C389   C989    1.421   1_554 S
C390   Br442   1.924   .     S
C390   C990    1.421   .     S
C391   C396    1.397   .     A
C391   H423    1.084   .     S
C391   C9      1.370   1_565 S
C392   H424    1.084   .     S
C392   C395    1.397   .     A
C393   H425    1.084   .     S
C393   C395    1.398   .     A
C394   C396    1.398   .     A
C394   H426    1.084   .     S
C394   C8      1.370   1_565 S
C397   N430    1.362   .     A
C397   H427    1.083   .     S
C397   C463    1.418   .     S
C398   H428    1.083   .     S
C398   N429    1.362   .     A
C398   C528    1.418   1_455 S
C399   C445    1.438   .     S
C399   N429    1.375   .     A
C399   C525    1.418   1_455 S
C400   C447    1.438   .     S
C400   N430    1.374   .     A
C400   C462    1.418   .     S
C401   O435    1.293   .     A
C401   C403    1.459   .     S
C401   O437    1.297   .     A
C402   O436    1.294   .     A
C402   C404    1.456   .     S
C402   O438    1.295   .     A
C403   C407    1.391   .     A
C403   C409    1.382   .     A
C404   C408    1.391   .     A
C404   C410    1.377   .     A
C405   C413    1.433   .     A
C405   C407    1.396   .     A
C405   Br571   1.923   1_455 S
C406   Br444   1.923   .     S
C406   C408    1.399   .     A
C406   C414    1.434   .     A
C407   H420    1.084   .     S
C408   H419    1.084   .     S
C409   H418    1.078   .     S
C409   C411    1.397   .     A
C410   H417    1.081   .     S
C410   C412    1.394   .     A
C411   C413    1.435   .     A
C411   C415    1.420   .     A
C412   C414    1.432   .     A
C412   C416    1.417   .     A
C413   C965    1.421   .     S
C414   C966    1.421   1_554 S
C415   C992    1.395   .     S
C416   C991    1.395   1_554 S
N429   Zn439   2.015   .     S
N430   Zn440   2.015   .     S
O431   Zn439   1.998   .     S
O432   Zn440   1.998   .     S
O433   Zn440   2.001   .     S
O434   Zn439   2.001   .     S
O435   Zn439   1.949   .     S
O436   Zn440   1.949   .     S
O437   Zn440   1.899   .     S
O438   Zn439   1.899   .     S
Br443  C469    1.923   .     S
C445   N446    1.158   .     T
C447   N448    1.157   .     T
C449   C460    1.420   .     S
C449   O495    1.285   .     A
C449   O497    1.286   .     A
C450   C459    1.420   .     S
C450   O498    1.286   .     A
C450   O496    1.285   .     A
C451   C480    1.410   .     A
C451   H485    1.080   .     S
C451   C453    1.392   .     A
C452   C454    1.395   .     A
C452   H486    1.079   .     S
C452   C479    1.412   .     A
C453   Br505   1.924   .     S
C453   C1053   1.421   1_554 S
C454   Br506   1.924   .     S
C454   C1054   1.421   .     S
C455   C460    1.397   .     A
C455   H487    1.084   .     S
C455   C73     1.370   1_565 S
C456   H488    1.084   .     S
C456   C459    1.397   .     A
C457   H489    1.084   .     S
C457   C459    1.398   .     A
C458   C460    1.398   .     A
C458   H490    1.084   .     S
C458   C72     1.370   1_565 S
C461   N494    1.362   .     A
C461   H491    1.083   .     S
C461   C527    1.418   .     S
C462   H492    1.083   .     S
C462   N493    1.362   .     A
C463   C509    1.438   .     S
C463   N493    1.375   .     A
C464   C511    1.438   .     S
C464   N494    1.374   .     A
C464   C526    1.418   .     S
C465   O499    1.293   .     A
C465   C467    1.459   .     S
C465   O501    1.297   .     A
C466   O500    1.294   .     A
C466   C468    1.456   .     S
C466   O502    1.295   .     A
C467   C471    1.391   .     A
C467   C473    1.382   .     A
C468   C472    1.391   .     A
C468   C474    1.377   .     A
C469   C477    1.433   .     A
C469   C471    1.396   .     A
C470   Br508   1.923   .     S
C470   C472    1.399   .     A
C470   C478    1.434   .     A
C471   H484    1.084   .     S
C472   H483    1.084   .     S
C473   H482    1.078   .     S
C473   C475    1.397   .     A
C474   H481    1.081   .     S
C474   C476    1.394   .     A
C475   C477    1.435   .     A
C475   C479    1.420   .     A
C476   C478    1.432   .     A
C476   C480    1.417   .     A
C477   C1029   1.421   .     S
C478   C1030   1.421   1_554 S
C479   C1056   1.395   .     S
C480   C1055   1.395   1_554 S
N493   Zn503   2.015   .     S
N494   Zn504   2.015   .     S
O495   Zn503   1.998   .     S
O496   Zn504   1.998   .     S
O497   Zn504   2.001   .     S
O498   Zn503   2.001   .     S
O499   Zn503   1.949   .     S
O500   Zn504   1.949   .     S
O501   Zn504   1.899   .     S
O502   Zn503   1.899   .     S
Br507  C533    1.923   .     S
C509   N510    1.158   .     T
C511   N512    1.157   .     T
C513   C524    1.420   .     S
C513   O559    1.285   .     A
C513   O561    1.286   .     A
C514   C523    1.420   .     S
C514   O562    1.286   .     A
C514   O560    1.285   .     A
C515   C544    1.410   .     A
C515   H549    1.080   .     S
C515   C517    1.392   .     A
C516   C518    1.395   .     A
C516   H550    1.079   .     S
C516   C543    1.412   .     A
C517   Br569   1.924   .     S
C517   C1117   1.421   1_554 S
C518   Br570   1.924   .     S
C518   C1118   1.421   .     S
C519   C524    1.397   .     A
C519   H551    1.084   .     S
C519   C137    1.370   1_565 S
C520   H552    1.084   .     S
C520   C523    1.397   .     A
C521   H553    1.084   .     S
C521   C523    1.398   .     A
C522   C524    1.398   .     A
C522   H554    1.084   .     S
C522   C136    1.370   1_565 S
C525   N558    1.362   .     A
C525   H555    1.083   .     S
C525   C399    1.418   1_655 S
C526   H556    1.083   .     S
C526   N557    1.362   .     A
C527   C573    1.438   .     S
C527   N557    1.375   .     A
C528   C575    1.438   .     S
C528   N558    1.374   .     A
C528   C398    1.418   1_655 S
C529   O563    1.293   .     A
C529   C531    1.459   .     S
C529   O565    1.297   .     A
C530   O564    1.294   .     A
C530   C532    1.456   .     S
C530   O566    1.295   .     A
C531   C535    1.391   .     A
C531   C537    1.382   .     A
C532   C536    1.391   .     A
C532   C538    1.377   .     A
C533   C541    1.433   .     A
C533   C535    1.396   .     A
C534   Br572   1.923   .     S
C534   C536    1.399   .     A
C534   C542    1.434   .     A
C535   H548    1.084   .     S
C536   H547    1.084   .     S
C537   H546    1.078   .     S
C537   C539    1.397   .     A
C538   H545    1.081   .     S
C538   C540    1.394   .     A
C539   C541    1.435   .     A
C539   C543    1.420   .     A
C540   C542    1.432   .     A
C540   C544    1.417   .     A
C541   C1093   1.421   .     S
C542   C1094   1.421   1_554 S
C543   C1120   1.395   .     S
C544   C1119   1.395   1_554 S
N557   Zn567   2.015   .     S
N558   Zn568   2.015   .     S
O559   Zn567   1.998   .     S
O560   Zn568   1.998   .     S
O561   Zn568   2.001   .     S
O562   Zn567   2.001   .     S
O563   Zn567   1.949   .     S
O564   Zn568   1.949   .     S
O565   Zn568   1.899   .     S
O566   Zn567   1.899   .     S
Br571  C405    1.923   1_655 S
C573   N574    1.158   .     T
C575   N576    1.157   .     T
C577   C588    1.420   .     S
C577   O623    1.285   .     A
C577   O625    1.286   .     A
C578   C587    1.420   .     S
C578   O626    1.286   .     A
C578   O624    1.285   .     A
C579   C608    1.410   .     A
C579   H613    1.080   .     S
C579   C581    1.392   .     A
C580   C582    1.395   .     A
C580   H614    1.079   .     S
C580   C607    1.412   .     A
C581   Br633   1.924   .     S
C582   Br634   1.924   .     S
C582   C30     1.421   1_556 S
C583   C588    1.397   .     A
C583   H615    1.084   .     S
C583   C777    1.370   .     S
C584   H616    1.084   .     S
C584   C587    1.397   .     A
C584   C970    1.370   1_545 S
C585   H617    1.084   .     S
C585   C587    1.398   .     A
C585   C967    1.370   1_545 S
C586   C588    1.398   .     A
C586   H618    1.084   .     S
C586   C776    1.370   .     S
C589   N622    1.362   .     A
C589   H619    1.083   .     S
C589   C655    1.418   .     S
C590   H620    1.083   .     S
C590   N621    1.362   .     A
C590   C720    1.418   1_455 S
C591   C637    1.438   .     S
C591   N621    1.375   .     A
C591   C717    1.418   1_455 S
C592   C639    1.438   .     S
C592   N622    1.374   .     A
C592   C654    1.418   .     S
C593   O627    1.293   .     A
C593   C595    1.459   .     S
C593   O629    1.297   .     A
C594   O628    1.294   .     A
C594   C596    1.456   .     S
C594   O630    1.295   .     A
C595   C599    1.391   .     A
C595   C601    1.382   .     A
C596   C600    1.391   .     A
C596   C602    1.377   .     A
C597   C605    1.433   .     A
C597   C599    1.396   .     A
C597   Br763   1.923   1_455 S
C598   Br636   1.923   .     S
C598   C600    1.399   .     A
C598   C606    1.434   .     A
C599   H612    1.084   .     S
C600   H611    1.084   .     S
C601   H610    1.078   .     S
C601   C603    1.397   .     A
C602   H609    1.081   .     S
C602   C604    1.394   .     A
C603   C605    1.435   .     A
C603   C607    1.420   .     A
C604   C606    1.432   .     A
C604   C608    1.417   .     A
C605   C5      1.421   1_556 S
C607   C32     1.395   1_556 S
N621   Zn631   2.015   .     S
N622   Zn632   2.015   .     S
O623   Zn631   1.998   .     S
O624   Zn632   1.998   .     S
O625   Zn632   2.001   .     S
O626   Zn631   2.001   .     S
O627   Zn631   1.949   .     S
O628   Zn632   1.949   .     S
O629   Zn632   1.899   .     S
O630   Zn631   1.899   .     S
Br635  C661    1.923   .     S
C637   N638    1.158   .     T
C639   N640    1.157   .     T
C641   C652    1.420   .     S
C641   O687    1.285   .     A
C641   O689    1.286   .     A
C642   C651    1.420   .     S
C642   O690    1.286   .     A
C642   O688    1.285   .     A
C643   C672    1.410   .     A
C643   H677    1.080   .     S
C643   C645    1.392   .     A
C644   C646    1.395   .     A
C644   H678    1.079   .     S
C644   C671    1.412   .     A
C645   Br697   1.924   .     S
C646   Br698   1.924   .     S
C646   C94     1.421   1_556 S
C647   C652    1.397   .     A
C647   H679    1.084   .     S
C647   C841    1.370   .     S
C648   H680    1.084   .     S
C648   C651    1.397   .     A
C648   C1034   1.370   1_545 S
C649   H681    1.084   .     S
C649   C651    1.398   .     A
C649   C1031   1.370   1_545 S
C650   C652    1.398   .     A
C650   H682    1.084   .     S
C650   C840    1.370   .     S
C653   N686    1.362   .     A
C653   H683    1.083   .     S
C653   C719    1.418   .     S
C654   H684    1.083   .     S
C654   N685    1.362   .     A
C655   C701    1.438   .     S
C655   N685    1.375   .     A
C656   C703    1.438   .     S
C656   N686    1.374   .     A
C656   C718    1.418   .     S
C657   O691    1.293   .     A
C657   C659    1.459   .     S
C657   O693    1.297   .     A
C658   O692    1.294   .     A
C658   C660    1.456   .     S
C658   O694    1.295   .     A
C659   C663    1.391   .     A
C659   C665    1.382   .     A
C660   C664    1.391   .     A
C660   C666    1.377   .     A
C661   C669    1.433   .     A
C661   C663    1.396   .     A
C662   Br700   1.923   .     S
C662   C664    1.399   .     A
C662   C670    1.434   .     A
C663   H676    1.084   .     S
C664   H675    1.084   .     S
C665   H674    1.078   .     S
C665   C667    1.397   .     A
C666   H673    1.081   .     S
C666   C668    1.394   .     A
C667   C669    1.435   .     A
C667   C671    1.420   .     A
C668   C670    1.432   .     A
C668   C672    1.417   .     A
C669   C69     1.421   1_556 S
C671   C96     1.395   1_556 S
N685   Zn695   2.015   .     S
N686   Zn696   2.015   .     S
O687   Zn695   1.998   .     S
O688   Zn696   1.998   .     S
O689   Zn696   2.001   .     S
O690   Zn695   2.001   .     S
O691   Zn695   1.949   .     S
O692   Zn696   1.949   .     S
O693   Zn696   1.899   .     S
O694   Zn695   1.899   .     S
Br699  C725    1.923   .     S
C701   N702    1.158   .     T
C703   N704    1.157   .     T
C705   C716    1.420   .     S
C705   O751    1.285   .     A
C705   O753    1.286   .     A
C706   C715    1.420   .     S
C706   O754    1.286   .     A
C706   O752    1.285   .     A
C707   C736    1.410   .     A
C707   H741    1.080   .     S
C707   C709    1.392   .     A
C708   C710    1.395   .     A
C708   H742    1.079   .     S
C708   C735    1.412   .     A
C709   Br761   1.924   .     S
C710   Br762   1.924   .     S
C710   C158    1.421   1_556 S
C711   C716    1.397   .     A
C711   H743    1.084   .     S
C711   C905    1.370   .     S
C712   H744    1.084   .     S
C712   C715    1.397   .     A
C712   C1098   1.370   1_545 S
C713   H745    1.084   .     S
C713   C715    1.398   .     A
C713   C1095   1.370   1_545 S
C714   C716    1.398   .     A
C714   H746    1.084   .     S
C714   C904    1.370   .     S
C717   N750    1.362   .     A
C717   H747    1.083   .     S
C717   C591    1.418   1_655 S
C718   H748    1.083   .     S
C718   N749    1.362   .     A
C719   C765    1.438   .     S
C719   N749    1.375   .     A
C720   C767    1.438   .     S
C720   N750    1.374   .     A
C720   C590    1.418   1_655 S
C721   O755    1.293   .     A
C721   C723    1.459   .     S
C721   O757    1.297   .     A
C722   O756    1.294   .     A
C722   C724    1.456   .     S
C722   O758    1.295   .     A
C723   C727    1.391   .     A
C723   C729    1.382   .     A
C724   C728    1.391   .     A
C724   C730    1.377   .     A
C725   C733    1.433   .     A
C725   C727    1.396   .     A
C726   Br764   1.923   .     S
C726   C728    1.399   .     A
C726   C734    1.434   .     A
C727   H740    1.084   .     S
C728   H739    1.084   .     S
C729   H738    1.078   .     S
C729   C731    1.397   .     A
C730   H737    1.081   .     S
C730   C732    1.394   .     A
C731   C733    1.435   .     A
C731   C735    1.420   .     A
C732   C734    1.432   .     A
C732   C736    1.417   .     A
C733   C133    1.421   1_556 S
C735   C160    1.395   1_556 S
N749   Zn759   2.015   .     S
N750   Zn760   2.015   .     S
O751   Zn759   1.998   .     S
O752   Zn760   1.998   .     S
O753   Zn760   2.001   .     S
O754   Zn759   2.001   .     S
O755   Zn759   1.949   .     S
O756   Zn760   1.949   .     S
O757   Zn760   1.899   .     S
O758   Zn759   1.899   .     S
Br763  C597    1.923   1_655 S
C765   N766    1.158   .     T
C767   N768    1.157   .     T
C769   C780    1.420   .     S
C769   O815    1.285   .     A
C769   O817    1.286   .     A
C770   C779    1.420   .     S
C770   O818    1.286   .     A
C770   O816    1.285   .     A
C771   C800    1.410   .     A
C771   H805    1.080   .     S
C771   C773    1.392   .     A
C772   C774    1.395   .     A
C772   H806    1.079   .     S
C772   C799    1.412   .     A
C773   Br825   1.924   .     S
C774   Br826   1.924   .     S
C774   C222    1.421   1_556 S
C775   C780    1.397   .     A
C775   H807    1.084   .     S
C775   C969    1.370   .     S
C776   H808    1.084   .     S
C776   C779    1.397   .     A
C777   H809    1.084   .     S
C777   C779    1.398   .     A
C778   C780    1.398   .     A
C778   H810    1.084   .     S
C778   C968    1.370   .     S
C781   N814    1.362   .     A
C781   H811    1.083   .     S
C781   C847    1.418   .     S
C782   H812    1.083   .     S
C782   N813    1.362   .     A
C782   C912    1.418   1_455 S
C783   C829    1.438   .     S
C783   N813    1.375   .     A
C783   C909    1.418   1_455 S
C784   C831    1.438   .     S
C784   N814    1.374   .     A
C784   C846    1.418   .     S
C785   O819    1.293   .     A
C785   C787    1.459   .     S
C785   O821    1.297   .     A
C786   O820    1.294   .     A
C786   C788    1.456   .     S
C786   O822    1.295   .     A
C787   C791    1.391   .     A
C787   C793    1.382   .     A
C788   C792    1.391   .     A
C788   C794    1.377   .     A
C789   C797    1.433   .     A
C789   C791    1.396   .     A
C789   Br955   1.923   1_455 S
C790   Br828   1.923   .     S
C790   C792    1.399   .     A
C790   C798    1.434   .     A
C791   H804    1.084   .     S
C792   H803    1.084   .     S
C793   H802    1.078   .     S
C793   C795    1.397   .     A
C794   H801    1.081   .     S
C794   C796    1.394   .     A
C795   C797    1.435   .     A
C795   C799    1.420   .     A
C796   C798    1.432   .     A
C796   C800    1.417   .     A
C797   C197    1.421   1_556 S
C799   C224    1.395   1_556 S
N813   Zn823   2.015   .     S
N814   Zn824   2.015   .     S
O815   Zn823   1.998   .     S
O816   Zn824   1.998   .     S
O817   Zn824   2.001   .     S
O818   Zn823   2.001   .     S
O819   Zn823   1.949   .     S
O820   Zn824   1.949   .     S
O821   Zn824   1.899   .     S
O822   Zn823   1.899   .     S
Br827  C853    1.923   .     S
C829   N830    1.158   .     T
C831   N832    1.157   .     T
C833   C844    1.420   .     S
C833   O879    1.285   .     A
C833   O881    1.286   .     A
C834   C843    1.420   .     S
C834   O882    1.286   .     A
C834   O880    1.285   .     A
C835   C864    1.410   .     A
C835   H869    1.080   .     S
C835   C837    1.392   .     A
C836   C838    1.395   .     A
C836   H870    1.079   .     S
C836   C863    1.412   .     A
C837   Br889   1.924   .     S
C838   Br890   1.924   .     S
C838   C286    1.421   1_556 S
C839   C844    1.397   .     A
C839   H871    1.084   .     S
C839   C1033   1.370   .     S
C840   H872    1.084   .     S
C840   C843    1.397   .     A
C841   H873    1.084   .     S
C841   C843    1.398   .     A
C842   C844    1.398   .     A
C842   H874    1.084   .     S
C842   C1032   1.370   .     S
C845   N878    1.362   .     A
C845   H875    1.083   .     S
C845   C911    1.418   .     S
C846   H876    1.083   .     S
C846   N877    1.362   .     A
C847   C893    1.438   .     S
C847   N877    1.375   .     A
C848   C895    1.438   .     S
C848   N878    1.374   .     A
C848   C910    1.418   .     S
C849   O883    1.293   .     A
C849   C851    1.459   .     S
C849   O885    1.297   .     A
C850   O884    1.294   .     A
C850   C852    1.456   .     S
C850   O886    1.295   .     A
C851   C855    1.391   .     A
C851   C857    1.382   .     A
C852   C856    1.391   .     A
C852   C858    1.377   .     A
C853   C861    1.433   .     A
C853   C855    1.396   .     A
C854   Br892   1.923   .     S
C854   C856    1.399   .     A
C854   C862    1.434   .     A
C855   H868    1.084   .     S
C856   H867    1.084   .     S
C857   H866    1.078   .     S
C857   C859    1.397   .     A
C858   H865    1.081   .     S
C858   C860    1.394   .     A
C859   C861    1.435   .     A
C859   C863    1.420   .     A
C860   C862    1.432   .     A
C860   C864    1.417   .     A
C861   C261    1.421   1_556 S
C863   C288    1.395   1_556 S
N877   Zn887   2.015   .     S
N878   Zn888   2.015   .     S
O879   Zn887   1.998   .     S
O880   Zn888   1.998   .     S
O881   Zn888   2.001   .     S
O882   Zn887   2.001   .     S
O883   Zn887   1.949   .     S
O884   Zn888   1.949   .     S
O885   Zn888   1.899   .     S
O886   Zn887   1.899   .     S
Br891  C917    1.923   .     S
C893   N894    1.158   .     T
C895   N896    1.157   .     T
C897   C908    1.420   .     S
C897   O943    1.285   .     A
C897   O945    1.286   .     A
C898   C907    1.420   .     S
C898   O946    1.286   .     A
C898   O944    1.285   .     A
C899   C928    1.410   .     A
C899   H933    1.080   .     S
C899   C901    1.392   .     A
C900   C902    1.395   .     A
C900   H934    1.079   .     S
C900   C927    1.412   .     A
C901   Br953   1.924   .     S
C902   Br954   1.924   .     S
C902   C350    1.421   1_556 S
C903   C908    1.397   .     A
C903   H935    1.084   .     S
C903   C1097   1.370   .     S
C904   H936    1.084   .     S
C904   C907    1.397   .     A
C905   H937    1.084   .     S
C905   C907    1.398   .     A
C906   C908    1.398   .     A
C906   H938    1.084   .     S
C906   C1096   1.370   .     S
C909   N942    1.362   .     A
C909   H939    1.083   .     S
C909   C783    1.418   1_655 S
C910   H940    1.083   .     S
C910   N941    1.362   .     A
C911   C957    1.438   .     S
C911   N941    1.375   .     A
C912   C959    1.438   .     S
C912   N942    1.374   .     A
C912   C782    1.418   1_655 S
C913   O947    1.293   .     A
C913   C915    1.459   .     S
C913   O949    1.297   .     A
C914   O948    1.294   .     A
C914   C916    1.456   .     S
C914   O950    1.295   .     A
C915   C919    1.391   .     A
C915   C921    1.382   .     A
C916   C920    1.391   .     A
C916   C922    1.377   .     A
C917   C925    1.433   .     A
C917   C919    1.396   .     A
C918   Br956   1.923   .     S
C918   C920    1.399   .     A
C918   C926    1.434   .     A
C919   H932    1.084   .     S
C920   H931    1.084   .     S
C921   H930    1.078   .     S
C921   C923    1.397   .     A
C922   H929    1.081   .     S
C922   C924    1.394   .     A
C923   C925    1.435   .     A
C923   C927    1.420   .     A
C924   C926    1.432   .     A
C924   C928    1.417   .     A
C925   C325    1.421   1_556 S
C927   C352    1.395   1_556 S
N941   Zn951   2.015   .     S
N942   Zn952   2.015   .     S
O943   Zn951   1.998   .     S
O944   Zn952   1.998   .     S
O945   Zn952   2.001   .     S
O946   Zn951   2.001   .     S
O947   Zn951   1.949   .     S
O948   Zn952   1.949   .     S
O949   Zn952   1.899   .     S
O950   Zn951   1.899   .     S
Br955  C789    1.923   1_655 S
C957   N958    1.158   .     T
C959   N960    1.157   .     T
C961   C972    1.420   .     S
C961   O1007   1.285   .     A
C961   O1009   1.286   .     A
C962   C971    1.420   .     S
C962   O1010   1.286   .     A
C962   O1008   1.285   .     A
C963   C992    1.410   .     A
C963   H997    1.080   .     S
C963   C965    1.392   .     A
C964   C966    1.395   .     A
C964   H998    1.079   .     S
C964   C991    1.412   .     A
C965   Br1017  1.924   .     S
C966   Br1018  1.924   .     S
C966   C414    1.421   1_556 S
C967   C972    1.397   .     A
C967   H999    1.084   .     S
C967   C585    1.370   1_565 S
C968   H1000   1.084   .     S
C968   C971    1.397   .     A
C969   H1001   1.084   .     S
C969   C971    1.398   .     A
C970   C972    1.398   .     A
C970   H1002   1.084   .     S
C970   C584    1.370   1_565 S
C973   N1006   1.362   .     A
C973   H1003   1.083   .     S
C973   C1039   1.418   .     S
C974   H1004   1.083   .     S
C974   N1005   1.362   .     A
C974   C1104   1.418   1_455 S
C975   C1021   1.438   .     S
C975   N1005   1.375   .     A
C975   C1101   1.418   1_455 S
C976   C1023   1.438   .     S
C976   N1006   1.374   .     A
C976   C1038   1.418   .     S
C977   O1011   1.293   .     A
C977   C979    1.459   .     S
C977   O1013   1.297   .     A
C978   O1012   1.294   .     A
C978   C980    1.456   .     S
C978   O1014   1.295   .     A
C979   C983    1.391   .     A
C979   C985    1.382   .     A
C980   C984    1.391   .     A
C980   C986    1.377   .     A
C981   C989    1.433   .     A
C981   C983    1.396   .     A
C981   Br1147  1.923   1_455 S
C982   Br1020  1.923   .     S
C982   C984    1.399   .     A
C982   C990    1.434   .     A
C983   H996    1.084   .     S
C984   H995    1.084   .     S
C985   H994    1.078   .     S
C985   C987    1.397   .     A
C986   H993    1.081   .     S
C986   C988    1.394   .     A
C987   C989    1.435   .     A
C987   C991    1.420   .     A
C988   C990    1.432   .     A
C988   C992    1.417   .     A
C989   C389    1.421   1_556 S
C991   C416    1.395   1_556 S
N1005  Zn1015  2.015   .     S
N1006  Zn1016  2.015   .     S
O1007  Zn1015  1.998   .     S
O1008  Zn1016  1.998   .     S
O1009  Zn1016  2.001   .     S
O1010  Zn1015  2.001   .     S
O1011  Zn1015  1.949   .     S
O1012  Zn1016  1.949   .     S
O1013  Zn1016  1.899   .     S
O1014  Zn1015  1.899   .     S
Br1019 C1045   1.923   .     S
C1021  N1022   1.158   .     T
C1023  N1024   1.157   .     T
C1025  C1036   1.420   .     S
C1025  O1071   1.285   .     A
C1025  O1073   1.286   .     A
C1026  C1035   1.420   .     S
C1026  O1074   1.286   .     A
C1026  O1072   1.285   .     A
C1027  C1056   1.410   .     A
C1027  H1061   1.080   .     S
C1027  C1029   1.392   .     A
C1028  C1030   1.395   .     A
C1028  H1062   1.079   .     S
C1028  C1055   1.412   .     A
C1029  Br1081  1.924   .     S
C1030  Br1082  1.924   .     S
C1030  C478    1.421   1_556 S
C1031  C1036   1.397   .     A
C1031  H1063   1.084   .     S
C1031  C649    1.370   1_565 S
C1032  H1064   1.084   .     S
C1032  C1035   1.397   .     A
C1033  H1065   1.084   .     S
C1033  C1035   1.398   .     A
C1034  C1036   1.398   .     A
C1034  H1066   1.084   .     S
C1034  C648    1.370   1_565 S
C1037  N1070   1.362   .     A
C1037  H1067   1.083   .     S
C1037  C1103   1.418   .     S
C1038  H1068   1.083   .     S
C1038  N1069   1.362   .     A
C1039  C1085   1.438   .     S
C1039  N1069   1.375   .     A
C1040  C1087   1.438   .     S
C1040  N1070   1.374   .     A
C1040  C1102   1.418   .     S
C1041  O1075   1.293   .     A
C1041  C1043   1.459   .     S
C1041  O1077   1.297   .     A
C1042  O1076   1.294   .     A
C1042  C1044   1.456   .     S
C1042  O1078   1.295   .     A
C1043  C1047   1.391   .     A
C1043  C1049   1.382   .     A
C1044  C1048   1.391   .     A
C1044  C1050   1.377   .     A
C1045  C1053   1.433   .     A
C1045  C1047   1.396   .     A
C1046  Br1084  1.923   .     S
C1046  C1048   1.399   .     A
C1046  C1054   1.434   .     A
C1047  H1060   1.084   .     S
C1048  H1059   1.084   .     S
C1049  H1058   1.078   .     S
C1049  C1051   1.397   .     A
C1050  H1057   1.081   .     S
C1050  C1052   1.394   .     A
C1051  C1053   1.435   .     A
C1051  C1055   1.420   .     A
C1052  C1054   1.432   .     A
C1052  C1056   1.417   .     A
C1053  C453    1.421   1_556 S
C1055  C480    1.395   1_556 S
N1069  Zn1079  2.015   .     S
N1070  Zn1080  2.015   .     S
O1071  Zn1079  1.998   .     S
O1072  Zn1080  1.998   .     S
O1073  Zn1080  2.001   .     S
O1074  Zn1079  2.001   .     S
O1075  Zn1079  1.949   .     S
O1076  Zn1080  1.949   .     S
O1077  Zn1080  1.899   .     S
O1078  Zn1079  1.899   .     S
Br1083 C1109   1.923   .     S
C1085  N1086   1.158   .     T
C1087  N1088   1.157   .     T
C1089  C1100   1.420   .     S
C1089  O1135   1.285   .     A
C1089  O1137   1.286   .     A
C1090  C1099   1.420   .     S
C1090  O1138   1.286   .     A
C1090  O1136   1.285   .     A
C1091  C1120   1.410   .     A
C1091  H1125   1.080   .     S
C1091  C1093   1.392   .     A
C1092  C1094   1.395   .     A
C1092  H1126   1.079   .     S
C1092  C1119   1.412   .     A
C1093  Br1145  1.924   .     S
C1094  Br1146  1.924   .     S
C1094  C542    1.421   1_556 S
C1095  C1100   1.397   .     A
C1095  H1127   1.084   .     S
C1095  C713    1.370   1_565 S
C1096  H1128   1.084   .     S
C1096  C1099   1.397   .     A
C1097  H1129   1.084   .     S
C1097  C1099   1.398   .     A
C1098  C1100   1.398   .     A
C1098  H1130   1.084   .     S
C1098  C712    1.370   1_565 S
C1101  N1134   1.362   .     A
C1101  H1131   1.083   .     S
C1101  C975    1.418   1_655 S
C1102  H1132   1.083   .     S
C1102  N1133   1.362   .     A
C1103  C1149   1.438   .     S
C1103  N1133   1.375   .     A
C1104  C1151   1.438   .     S
C1104  N1134   1.374   .     A
C1104  C974    1.418   1_655 S
C1105  O1139   1.293   .     A
C1105  C1107   1.459   .     S
C1105  O1141   1.297   .     A
C1106  O1140   1.294   .     A
C1106  C1108   1.456   .     S
C1106  O1142   1.295   .     A
C1107  C1111   1.391   .     A
C1107  C1113   1.382   .     A
C1108  C1112   1.391   .     A
C1108  C1114   1.377   .     A
C1109  C1117   1.433   .     A
C1109  C1111   1.396   .     A
C1110  Br1148  1.923   .     S
C1110  C1112   1.399   .     A
C1110  C1118   1.434   .     A
C1111  H1124   1.084   .     S
C1112  H1123   1.084   .     S
C1113  H1122   1.078   .     S
C1113  C1115   1.397   .     A
C1114  H1121   1.081   .     S
C1114  C1116   1.394   .     A
C1115  C1117   1.435   .     A
C1115  C1119   1.420   .     A
C1116  C1118   1.432   .     A
C1116  C1120   1.417   .     A
C1117  C517    1.421   1_556 S
C1119  C544    1.395   1_556 S
N1133  Zn1143  2.015   .     S
N1134  Zn1144  2.015   .     S
O1135  Zn1143  1.998   .     S
O1136  Zn1144  1.998   .     S
O1137  Zn1144  2.001   .     S
O1138  Zn1143  2.001   .     S
O1139  Zn1143  1.949   .     S
O1140  Zn1144  1.949   .     S
O1141  Zn1144  1.899   .     S
O1142  Zn1143  1.899   .     S
Br1147 C981    1.923   1_655 S
C1149  N1150   1.158   .     T
C1151  N1152   1.157   .     T
