data_str_m3_o10_o17_pcu_sym.77
_audit_creation_date              2020-01-03
_audit_creation_method            'Materials Studio'
_symmetry_space_group_name_H-M    'P1'
_symmetry_Int_Tables_number       1
_symmetry_cell_setting            triclinic
loop_
_symmetry_equiv_pos_as_xyz
  x,y,z
_cell_length_a                    23.2926
_cell_length_b                    25.8372
_cell_length_c                    29.7379
_cell_angle_alpha                 91.1648
_cell_angle_beta                  86.0533
_cell_angle_gamma                 93.5074
loop_
_atom_site_label
_atom_site_type_symbol
_atom_site_fract_x
_atom_site_fract_y
_atom_site_fract_z
_atom_site_U_iso_or_equiv
_atom_site_adp_type
_atom_site_occupancy
C1     C     0.18176   0.26476   0.24884   0.00000  Uiso   1.00
C2     C     0.19104   0.21007   0.40591   0.00000  Uiso   1.00
C3     C     0.16418   0.16719   0.11617   0.00000  Uiso   1.00
C4     C     0.16915   0.16615   0.38383   0.00000  Uiso   1.00
C5     C     0.18649   0.21094   0.09331   0.00000  Uiso   1.00
C6     C     0.14684   0.12240   0.40669   0.00000  Uiso   1.00
C7     C     0.18720   0.21138   0.04673   0.00000  Uiso   1.00
C8     C     0.14613   0.12195   0.45327   0.00000  Uiso   1.00
C9     C     0.16590   0.16668   0.02346   0.00000  Uiso   1.00
C10    C     0.16743   0.16665   0.47654   0.00000  Uiso   1.00
C11    C     0.14331   0.12200   0.04723   0.00000  Uiso   1.00
C12    C     0.15157   0.06858   0.25116   0.00000  Uiso   1.00
C13    C     0.19002   0.21133   0.45277   0.00000  Uiso   1.00
C14    C     0.20906   0.25560   0.02329   0.00000  Uiso   1.00
C15    C     0.12427   0.07773   0.47671   0.00000  Uiso   1.00
C16    C     0.23265   0.30262   0.45347   0.00000  Uiso   1.00
C17    C     0.10068   0.03072   0.04653   0.00000  Uiso   1.00
C18    C     0.21045   0.25593   0.47640   0.00000  Uiso   1.00
C19    C     0.12288   0.07740   0.02360   0.00000  Uiso   1.00
C20    C     0.18987   0.31888   0.24839   0.00000  Uiso   1.00
C21    C     0.14347   0.01445   0.25161   0.00000  Uiso   1.00
C22    C     0.16748   0.16665   0.33636   0.00000  Uiso   1.00
C23    C     0.16585   0.16669   0.16364   0.00000  Uiso   1.00
C24    C     0.14229   0.12326   0.09409   0.00000  Uiso   1.00
F25    F     0.22896   0.29850   0.04608   0.00000  Uiso   1.00
F26    F     0.10437   0.03483   0.45392   0.00000  Uiso   1.00
F27    F     0.24558   0.00555   0.24483   0.00000  Uiso   1.00
F28    F     0.08775   0.32779   0.25517   0.00000  Uiso   1.00
H29    H     0.12570   0.09010   0.11379   0.00000  Uiso   1.00
H30    H     0.20763   0.24324   0.38621   0.00000  Uiso   1.00
H31    H     0.20317   0.24435   0.11210   0.00000  Uiso   1.00
H32    H     0.13016   0.08898   0.38790   0.00000  Uiso   1.00
H33    H     0.00462   0.12757   0.21609   0.00000  Uiso   1.00
H34    H     0.32871   0.20577   0.28391   0.00000  Uiso   1.00
N35    N     0.31678   0.15265   0.23783   0.00000  Uiso   1.00
N36    N     0.01656   0.18068   0.26217   0.00000  Uiso   1.00
N37    N     0.25035   0.00666   0.43520   0.00000  Uiso   1.00
N38    N     0.08299   0.32668   0.06480   0.00000  Uiso   1.00
O39    O     0.12975   0.24619   0.25299   0.00000  Uiso   1.00
O40    O     0.20358   0.08714   0.24702   0.00000  Uiso   1.00
O41    O     0.22613   0.23721   0.24519   0.00000  Uiso   1.00
O42    O     0.10720   0.09613   0.25482   0.00000  Uiso   1.00
O43    O     0.11847   0.17117   0.31998   0.00000  Uiso   1.00
O44    O     0.21486   0.16216   0.18003   0.00000  Uiso   1.00
O45    O     0.21485   0.16219   0.31218   0.00000  Uiso   1.00
O46    O     0.11848   0.17115   0.18783   0.00000  Uiso   1.00
Zn47   Zn    0.10231   0.17266   0.25521   0.00000  Uiso   1.00
Zn48   Zn    0.23102   0.16067   0.24479   0.00000  Uiso   1.00
C49    C     0.51509   0.26476   0.24884   0.00000  Uiso   1.00
C50    C     0.52437   0.21007   0.40591   0.00000  Uiso   1.00
C51    C     0.49752   0.16719   0.11617   0.00000  Uiso   1.00
C52    C     0.50248   0.16615   0.38383   0.00000  Uiso   1.00
C53    C     0.51983   0.21094   0.09331   0.00000  Uiso   1.00
C54    C     0.48017   0.12240   0.40669   0.00000  Uiso   1.00
C55    C     0.52053   0.21138   0.04673   0.00000  Uiso   1.00
C56    C     0.47947   0.12195   0.45327   0.00000  Uiso   1.00
C57    C     0.49924   0.16668   0.02346   0.00000  Uiso   1.00
C58    C     0.50076   0.16665   0.47654   0.00000  Uiso   1.00
C59    C     0.47664   0.12200   0.04723   0.00000  Uiso   1.00
C60    C     0.48491   0.06858   0.25116   0.00000  Uiso   1.00
C61    C     0.52336   0.21133   0.45277   0.00000  Uiso   1.00
C62    C     0.54240   0.25560   0.02329   0.00000  Uiso   1.00
C63    C     0.45760   0.07773   0.47671   0.00000  Uiso   1.00
C64    C     0.56599   0.30262   0.45347   0.00000  Uiso   1.00
C65    C     0.43401   0.03072   0.04653   0.00000  Uiso   1.00
C66    C     0.54379   0.25593   0.47640   0.00000  Uiso   1.00
C67    C     0.45621   0.07740   0.02360   0.00000  Uiso   1.00
C68    C     0.52320   0.31888   0.24839   0.00000  Uiso   1.00
C69    C     0.47680   0.01445   0.25161   0.00000  Uiso   1.00
C70    C     0.50082   0.16665   0.33636   0.00000  Uiso   1.00
C71    C     0.49919   0.16669   0.16364   0.00000  Uiso   1.00
C72    C     0.47563   0.12326   0.09409   0.00000  Uiso   1.00
F73    F     0.56229   0.29850   0.04608   0.00000  Uiso   1.00
F74    F     0.43771   0.03483   0.45392   0.00000  Uiso   1.00
F75    F     0.57892   0.00555   0.24483   0.00000  Uiso   1.00
F76    F     0.42108   0.32779   0.25517   0.00000  Uiso   1.00
H77    H     0.45903   0.09010   0.11379   0.00000  Uiso   1.00
H78    H     0.54097   0.24324   0.38621   0.00000  Uiso   1.00
H79    H     0.53651   0.24435   0.11210   0.00000  Uiso   1.00
H80    H     0.46349   0.08898   0.38790   0.00000  Uiso   1.00
H81    H     0.33796   0.12757   0.21609   0.00000  Uiso   1.00
H82    H     0.66204   0.20577   0.28391   0.00000  Uiso   1.00
N83    N     0.65011   0.15265   0.23783   0.00000  Uiso   1.00
N84    N     0.34989   0.18068   0.26217   0.00000  Uiso   1.00
N85    N     0.58368   0.00666   0.43520   0.00000  Uiso   1.00
N86    N     0.41632   0.32668   0.06480   0.00000  Uiso   1.00
O87    O     0.46308   0.24619   0.25299   0.00000  Uiso   1.00
O88    O     0.53692   0.08714   0.24702   0.00000  Uiso   1.00
O89    O     0.55946   0.23721   0.24519   0.00000  Uiso   1.00
O90    O     0.44054   0.09613   0.25482   0.00000  Uiso   1.00
O91    O     0.45181   0.17117   0.31998   0.00000  Uiso   1.00
O92    O     0.54819   0.16216   0.18003   0.00000  Uiso   1.00
O93    O     0.54819   0.16219   0.31218   0.00000  Uiso   1.00
O94    O     0.45181   0.17115   0.18783   0.00000  Uiso   1.00
Zn95   Zn    0.43565   0.17266   0.25521   0.00000  Uiso   1.00
Zn96   Zn    0.56435   0.16067   0.24479   0.00000  Uiso   1.00
C97    C     0.84843   0.26476   0.24884   0.00000  Uiso   1.00
C98    C     0.85771   0.21007   0.40591   0.00000  Uiso   1.00
C99    C     0.83085   0.16719   0.11617   0.00000  Uiso   1.00
C100   C     0.83582   0.16615   0.38383   0.00000  Uiso   1.00
C101   C     0.85316   0.21094   0.09331   0.00000  Uiso   1.00
C102   C     0.81351   0.12240   0.40669   0.00000  Uiso   1.00
C103   C     0.85387   0.21138   0.04673   0.00000  Uiso   1.00
C104   C     0.81280   0.12195   0.45327   0.00000  Uiso   1.00
C105   C     0.83257   0.16668   0.02346   0.00000  Uiso   1.00
C106   C     0.83410   0.16665   0.47654   0.00000  Uiso   1.00
C107   C     0.80998   0.12200   0.04723   0.00000  Uiso   1.00
C108   C     0.81824   0.06858   0.25116   0.00000  Uiso   1.00
C109   C     0.85669   0.21133   0.45277   0.00000  Uiso   1.00
C110   C     0.87573   0.25560   0.02329   0.00000  Uiso   1.00
C111   C     0.79094   0.07773   0.47671   0.00000  Uiso   1.00
C112   C     0.89932   0.30262   0.45347   0.00000  Uiso   1.00
C113   C     0.76735   0.03072   0.04653   0.00000  Uiso   1.00
C114   C     0.87712   0.25593   0.47640   0.00000  Uiso   1.00
C115   C     0.78955   0.07740   0.02360   0.00000  Uiso   1.00
C116   C     0.85653   0.31888   0.24839   0.00000  Uiso   1.00
C117   C     0.81013   0.01445   0.25161   0.00000  Uiso   1.00
C118   C     0.83415   0.16665   0.33636   0.00000  Uiso   1.00
C119   C     0.83252   0.16669   0.16364   0.00000  Uiso   1.00
C120   C     0.80896   0.12326   0.09409   0.00000  Uiso   1.00
F121   F     0.89563   0.29850   0.04608   0.00000  Uiso   1.00
F122   F     0.77104   0.03483   0.45392   0.00000  Uiso   1.00
F123   F     0.91225   0.00555   0.24483   0.00000  Uiso   1.00
F124   F     0.75442   0.32779   0.25517   0.00000  Uiso   1.00
H125   H     0.79237   0.09010   0.11379   0.00000  Uiso   1.00
H126   H     0.87430   0.24324   0.38621   0.00000  Uiso   1.00
H127   H     0.86984   0.24435   0.11210   0.00000  Uiso   1.00
H128   H     0.79683   0.08898   0.38790   0.00000  Uiso   1.00
H129   H     0.67129   0.12757   0.21609   0.00000  Uiso   1.00
H130   H     0.99538   0.20577   0.28391   0.00000  Uiso   1.00
N131   N     0.98344   0.15265   0.23783   0.00000  Uiso   1.00
N132   N     0.68322   0.18068   0.26217   0.00000  Uiso   1.00
N133   N     0.91701   0.00666   0.43520   0.00000  Uiso   1.00
N134   N     0.74965   0.32668   0.06480   0.00000  Uiso   1.00
O135   O     0.79642   0.24619   0.25299   0.00000  Uiso   1.00
O136   O     0.87025   0.08714   0.24702   0.00000  Uiso   1.00
O137   O     0.89280   0.23721   0.24519   0.00000  Uiso   1.00
O138   O     0.77387   0.09613   0.25482   0.00000  Uiso   1.00
O139   O     0.78514   0.17117   0.31998   0.00000  Uiso   1.00
O140   O     0.88153   0.16216   0.18003   0.00000  Uiso   1.00
O141   O     0.88152   0.16219   0.31218   0.00000  Uiso   1.00
O142   O     0.78515   0.17115   0.18783   0.00000  Uiso   1.00
Zn143  Zn    0.76898   0.17266   0.25521   0.00000  Uiso   1.00
Zn144  Zn    0.89769   0.16067   0.24479   0.00000  Uiso   1.00
C145   C     0.18176   0.59809   0.24884   0.00000  Uiso   1.00
C146   C     0.19104   0.54341   0.40591   0.00000  Uiso   1.00
C147   C     0.16418   0.50052   0.11617   0.00000  Uiso   1.00
C148   C     0.16915   0.49948   0.38383   0.00000  Uiso   1.00
C149   C     0.18649   0.54427   0.09331   0.00000  Uiso   1.00
C150   C     0.14684   0.45573   0.40669   0.00000  Uiso   1.00
C151   C     0.18720   0.54472   0.04673   0.00000  Uiso   1.00
C152   C     0.14613   0.45528   0.45327   0.00000  Uiso   1.00
C153   C     0.16590   0.50001   0.02346   0.00000  Uiso   1.00
C154   C     0.16743   0.49999   0.47654   0.00000  Uiso   1.00
C155   C     0.14331   0.45534   0.04723   0.00000  Uiso   1.00
C156   C     0.15157   0.40191   0.25116   0.00000  Uiso   1.00
C157   C     0.19002   0.54466   0.45277   0.00000  Uiso   1.00
C158   C     0.20906   0.58893   0.02329   0.00000  Uiso   1.00
C159   C     0.12427   0.41107   0.47671   0.00000  Uiso   1.00
C160   C     0.23265   0.63595   0.45347   0.00000  Uiso   1.00
C161   C     0.10068   0.36405   0.04653   0.00000  Uiso   1.00
C162   C     0.21045   0.58927   0.47640   0.00000  Uiso   1.00
C163   C     0.12288   0.41073   0.02360   0.00000  Uiso   1.00
C164   C     0.18987   0.65222   0.24839   0.00000  Uiso   1.00
C165   C     0.14347   0.34778   0.25161   0.00000  Uiso   1.00
C166   C     0.16748   0.49998   0.33636   0.00000  Uiso   1.00
C167   C     0.16585   0.50002   0.16364   0.00000  Uiso   1.00
C168   C     0.14229   0.45659   0.09409   0.00000  Uiso   1.00
F169   F     0.22896   0.63184   0.04608   0.00000  Uiso   1.00
F170   F     0.10437   0.36816   0.45392   0.00000  Uiso   1.00
F171   F     0.24558   0.33888   0.24483   0.00000  Uiso   1.00
F172   F     0.08775   0.66112   0.25517   0.00000  Uiso   1.00
H173   H     0.12570   0.42343   0.11379   0.00000  Uiso   1.00
H174   H     0.20763   0.57657   0.38621   0.00000  Uiso   1.00
H175   H     0.20317   0.57769   0.11210   0.00000  Uiso   1.00
H176   H     0.13016   0.42231   0.38790   0.00000  Uiso   1.00
H177   H     0.00462   0.46090   0.21609   0.00000  Uiso   1.00
H178   H     0.32871   0.53910   0.28391   0.00000  Uiso   1.00
N179   N     0.31678   0.48598   0.23783   0.00000  Uiso   1.00
N180   N     0.01656   0.51402   0.26217   0.00000  Uiso   1.00
N181   N     0.25035   0.33999   0.43520   0.00000  Uiso   1.00
N182   N     0.08299   0.66001   0.06480   0.00000  Uiso   1.00
O183   O     0.12975   0.57952   0.25299   0.00000  Uiso   1.00
O184   O     0.20358   0.42048   0.24702   0.00000  Uiso   1.00
O185   O     0.22613   0.57054   0.24519   0.00000  Uiso   1.00
O186   O     0.10720   0.42946   0.25482   0.00000  Uiso   1.00
O187   O     0.11847   0.50450   0.31998   0.00000  Uiso   1.00
O188   O     0.21486   0.49550   0.18003   0.00000  Uiso   1.00
O189   O     0.21485   0.49552   0.31218   0.00000  Uiso   1.00
O190   O     0.11848   0.50448   0.18783   0.00000  Uiso   1.00
Zn191  Zn    0.10231   0.50600   0.25521   0.00000  Uiso   1.00
Zn192  Zn    0.23102   0.49400   0.24479   0.00000  Uiso   1.00
C193   C     0.51509   0.59809   0.24884   0.00000  Uiso   1.00
C194   C     0.52437   0.54341   0.40591   0.00000  Uiso   1.00
C195   C     0.49752   0.50052   0.11617   0.00000  Uiso   1.00
C196   C     0.50248   0.49948   0.38383   0.00000  Uiso   1.00
C197   C     0.51983   0.54427   0.09331   0.00000  Uiso   1.00
C198   C     0.48017   0.45573   0.40669   0.00000  Uiso   1.00
C199   C     0.52053   0.54472   0.04673   0.00000  Uiso   1.00
C200   C     0.47947   0.45528   0.45327   0.00000  Uiso   1.00
C201   C     0.49924   0.50001   0.02346   0.00000  Uiso   1.00
C202   C     0.50076   0.49999   0.47654   0.00000  Uiso   1.00
C203   C     0.47664   0.45534   0.04723   0.00000  Uiso   1.00
C204   C     0.48491   0.40191   0.25116   0.00000  Uiso   1.00
C205   C     0.52336   0.54466   0.45277   0.00000  Uiso   1.00
C206   C     0.54240   0.58893   0.02329   0.00000  Uiso   1.00
C207   C     0.45760   0.41107   0.47671   0.00000  Uiso   1.00
C208   C     0.56599   0.63595   0.45347   0.00000  Uiso   1.00
C209   C     0.43401   0.36405   0.04653   0.00000  Uiso   1.00
C210   C     0.54379   0.58927   0.47640   0.00000  Uiso   1.00
C211   C     0.45621   0.41073   0.02360   0.00000  Uiso   1.00
C212   C     0.52320   0.65222   0.24839   0.00000  Uiso   1.00
C213   C     0.47680   0.34778   0.25161   0.00000  Uiso   1.00
C214   C     0.50082   0.49998   0.33636   0.00000  Uiso   1.00
C215   C     0.49919   0.50002   0.16364   0.00000  Uiso   1.00
C216   C     0.47563   0.45659   0.09409   0.00000  Uiso   1.00
F217   F     0.56229   0.63184   0.04608   0.00000  Uiso   1.00
F218   F     0.43771   0.36816   0.45392   0.00000  Uiso   1.00
F219   F     0.57892   0.33888   0.24483   0.00000  Uiso   1.00
F220   F     0.42108   0.66112   0.25517   0.00000  Uiso   1.00
H221   H     0.45903   0.42343   0.11379   0.00000  Uiso   1.00
H222   H     0.54097   0.57657   0.38621   0.00000  Uiso   1.00
H223   H     0.53651   0.57769   0.11210   0.00000  Uiso   1.00
H224   H     0.46349   0.42231   0.38790   0.00000  Uiso   1.00
H225   H     0.33796   0.46090   0.21609   0.00000  Uiso   1.00
H226   H     0.66204   0.53910   0.28391   0.00000  Uiso   1.00
N227   N     0.65011   0.48598   0.23783   0.00000  Uiso   1.00
N228   N     0.34989   0.51402   0.26217   0.00000  Uiso   1.00
N229   N     0.58368   0.33999   0.43520   0.00000  Uiso   1.00
N230   N     0.41632   0.66001   0.06480   0.00000  Uiso   1.00
O231   O     0.46308   0.57952   0.25299   0.00000  Uiso   1.00
O232   O     0.53692   0.42048   0.24702   0.00000  Uiso   1.00
O233   O     0.55946   0.57054   0.24519   0.00000  Uiso   1.00
O234   O     0.44054   0.42946   0.25482   0.00000  Uiso   1.00
O235   O     0.45181   0.50450   0.31998   0.00000  Uiso   1.00
O236   O     0.54819   0.49550   0.18003   0.00000  Uiso   1.00
O237   O     0.54819   0.49552   0.31218   0.00000  Uiso   1.00
O238   O     0.45181   0.50448   0.18783   0.00000  Uiso   1.00
Zn239  Zn    0.43565   0.50600   0.25521   0.00000  Uiso   1.00
Zn240  Zn    0.56435   0.49400   0.24479   0.00000  Uiso   1.00
C241   C     0.84843   0.59809   0.24884   0.00000  Uiso   1.00
C242   C     0.85771   0.54341   0.40591   0.00000  Uiso   1.00
C243   C     0.83085   0.50052   0.11617   0.00000  Uiso   1.00
C244   C     0.83582   0.49948   0.38383   0.00000  Uiso   1.00
C245   C     0.85316   0.54427   0.09331   0.00000  Uiso   1.00
C246   C     0.81351   0.45573   0.40669   0.00000  Uiso   1.00
C247   C     0.85387   0.54472   0.04673   0.00000  Uiso   1.00
C248   C     0.81280   0.45528   0.45327   0.00000  Uiso   1.00
C249   C     0.83257   0.50001   0.02346   0.00000  Uiso   1.00
C250   C     0.83410   0.49999   0.47654   0.00000  Uiso   1.00
C251   C     0.80998   0.45534   0.04723   0.00000  Uiso   1.00
C252   C     0.81824   0.40191   0.25116   0.00000  Uiso   1.00
C253   C     0.85669   0.54466   0.45277   0.00000  Uiso   1.00
C254   C     0.87573   0.58893   0.02329   0.00000  Uiso   1.00
C255   C     0.79094   0.41107   0.47671   0.00000  Uiso   1.00
C256   C     0.89932   0.63595   0.45347   0.00000  Uiso   1.00
C257   C     0.76735   0.36405   0.04653   0.00000  Uiso   1.00
C258   C     0.87712   0.58927   0.47640   0.00000  Uiso   1.00
C259   C     0.78955   0.41073   0.02360   0.00000  Uiso   1.00
C260   C     0.85653   0.65222   0.24839   0.00000  Uiso   1.00
C261   C     0.81013   0.34778   0.25161   0.00000  Uiso   1.00
C262   C     0.83415   0.49998   0.33636   0.00000  Uiso   1.00
C263   C     0.83252   0.50002   0.16364   0.00000  Uiso   1.00
C264   C     0.80896   0.45659   0.09409   0.00000  Uiso   1.00
F265   F     0.89563   0.63184   0.04608   0.00000  Uiso   1.00
F266   F     0.77104   0.36816   0.45392   0.00000  Uiso   1.00
F267   F     0.91225   0.33888   0.24483   0.00000  Uiso   1.00
F268   F     0.75442   0.66112   0.25517   0.00000  Uiso   1.00
H269   H     0.79237   0.42343   0.11379   0.00000  Uiso   1.00
H270   H     0.87430   0.57657   0.38621   0.00000  Uiso   1.00
H271   H     0.86984   0.57769   0.11210   0.00000  Uiso   1.00
H272   H     0.79683   0.42231   0.38790   0.00000  Uiso   1.00
H273   H     0.67129   0.46090   0.21609   0.00000  Uiso   1.00
H274   H     0.99538   0.53910   0.28391   0.00000  Uiso   1.00
N275   N     0.98344   0.48598   0.23783   0.00000  Uiso   1.00
N276   N     0.68322   0.51402   0.26217   0.00000  Uiso   1.00
N277   N     0.91701   0.33999   0.43520   0.00000  Uiso   1.00
N278   N     0.74965   0.66001   0.06480   0.00000  Uiso   1.00
O279   O     0.79642   0.57952   0.25299   0.00000  Uiso   1.00
O280   O     0.87025   0.42048   0.24702   0.00000  Uiso   1.00
O281   O     0.89280   0.57054   0.24519   0.00000  Uiso   1.00
O282   O     0.77387   0.42946   0.25482   0.00000  Uiso   1.00
O283   O     0.78514   0.50450   0.31998   0.00000  Uiso   1.00
O284   O     0.88153   0.49550   0.18003   0.00000  Uiso   1.00
O285   O     0.88152   0.49552   0.31218   0.00000  Uiso   1.00
O286   O     0.78515   0.50448   0.18783   0.00000  Uiso   1.00
Zn287  Zn    0.76898   0.50600   0.25521   0.00000  Uiso   1.00
Zn288  Zn    0.89769   0.49400   0.24479   0.00000  Uiso   1.00
C289   C     0.18176   0.93142   0.24884   0.00000  Uiso   1.00
C290   C     0.19104   0.87674   0.40591   0.00000  Uiso   1.00
C291   C     0.16418   0.83385   0.11617   0.00000  Uiso   1.00
C292   C     0.16915   0.83281   0.38383   0.00000  Uiso   1.00
C293   C     0.18649   0.87760   0.09331   0.00000  Uiso   1.00
C294   C     0.14684   0.78906   0.40669   0.00000  Uiso   1.00
C295   C     0.18720   0.87805   0.04673   0.00000  Uiso   1.00
C296   C     0.14613   0.78862   0.45327   0.00000  Uiso   1.00
C297   C     0.16590   0.83335   0.02346   0.00000  Uiso   1.00
C298   C     0.16743   0.83332   0.47654   0.00000  Uiso   1.00
C299   C     0.14331   0.78867   0.04723   0.00000  Uiso   1.00
C300   C     0.15157   0.73524   0.25116   0.00000  Uiso   1.00
C301   C     0.19002   0.87800   0.45277   0.00000  Uiso   1.00
C302   C     0.20906   0.92227   0.02329   0.00000  Uiso   1.00
C303   C     0.12427   0.74440   0.47671   0.00000  Uiso   1.00
C304   C     0.23265   0.96928   0.45347   0.00000  Uiso   1.00
C305   C     0.10068   0.69738   0.04653   0.00000  Uiso   1.00
C306   C     0.21045   0.92260   0.47640   0.00000  Uiso   1.00
C307   C     0.12288   0.74407   0.02360   0.00000  Uiso   1.00
C308   C     0.18987   0.98555   0.24839   0.00000  Uiso   1.00
C309   C     0.14347   0.68112   0.25161   0.00000  Uiso   1.00
C310   C     0.16748   0.83331   0.33636   0.00000  Uiso   1.00
C311   C     0.16585   0.83335   0.16364   0.00000  Uiso   1.00
C312   C     0.14229   0.78993   0.09409   0.00000  Uiso   1.00
F313   F     0.22896   0.96517   0.04608   0.00000  Uiso   1.00
F314   F     0.10437   0.70150   0.45392   0.00000  Uiso   1.00
F315   F     0.24558   0.67221   0.24483   0.00000  Uiso   1.00
F316   F     0.08775   0.99445   0.25517   0.00000  Uiso   1.00
H317   H     0.12570   0.75676   0.11379   0.00000  Uiso   1.00
H318   H     0.20763   0.90990   0.38621   0.00000  Uiso   1.00
H319   H     0.20317   0.91102   0.11210   0.00000  Uiso   1.00
H320   H     0.13016   0.75565   0.38790   0.00000  Uiso   1.00
H321   H     0.00462   0.79423   0.21609   0.00000  Uiso   1.00
H322   H     0.32871   0.87243   0.28391   0.00000  Uiso   1.00
N323   N     0.31678   0.81932   0.23783   0.00000  Uiso   1.00
N324   N     0.01656   0.84735   0.26217   0.00000  Uiso   1.00
N325   N     0.25035   0.67332   0.43520   0.00000  Uiso   1.00
N326   N     0.08299   0.99334   0.06480   0.00000  Uiso   1.00
O327   O     0.12975   0.91286   0.25299   0.00000  Uiso   1.00
O328   O     0.20358   0.75381   0.24702   0.00000  Uiso   1.00
O329   O     0.22613   0.90387   0.24519   0.00000  Uiso   1.00
O330   O     0.10720   0.76279   0.25482   0.00000  Uiso   1.00
O331   O     0.11847   0.83784   0.31998   0.00000  Uiso   1.00
O332   O     0.21486   0.82883   0.18003   0.00000  Uiso   1.00
O333   O     0.21485   0.82885   0.31218   0.00000  Uiso   1.00
O334   O     0.11848   0.83781   0.18783   0.00000  Uiso   1.00
Zn335  Zn    0.10231   0.83933   0.25521   0.00000  Uiso   1.00
Zn336  Zn    0.23102   0.82734   0.24479   0.00000  Uiso   1.00
C337   C     0.51509   0.93142   0.24884   0.00000  Uiso   1.00
C338   C     0.52437   0.87674   0.40591   0.00000  Uiso   1.00
C339   C     0.49752   0.83385   0.11617   0.00000  Uiso   1.00
C340   C     0.50248   0.83281   0.38383   0.00000  Uiso   1.00
C341   C     0.51983   0.87760   0.09331   0.00000  Uiso   1.00
C342   C     0.48017   0.78906   0.40669   0.00000  Uiso   1.00
C343   C     0.52053   0.87805   0.04673   0.00000  Uiso   1.00
C344   C     0.47947   0.78862   0.45327   0.00000  Uiso   1.00
C345   C     0.49924   0.83335   0.02346   0.00000  Uiso   1.00
C346   C     0.50076   0.83332   0.47654   0.00000  Uiso   1.00
C347   C     0.47664   0.78867   0.04723   0.00000  Uiso   1.00
C348   C     0.48491   0.73524   0.25116   0.00000  Uiso   1.00
C349   C     0.52336   0.87800   0.45277   0.00000  Uiso   1.00
C350   C     0.54240   0.92227   0.02329   0.00000  Uiso   1.00
C351   C     0.45760   0.74440   0.47671   0.00000  Uiso   1.00
C352   C     0.56599   0.96928   0.45347   0.00000  Uiso   1.00
C353   C     0.43401   0.69738   0.04653   0.00000  Uiso   1.00
C354   C     0.54379   0.92260   0.47640   0.00000  Uiso   1.00
C355   C     0.45621   0.74407   0.02360   0.00000  Uiso   1.00
C356   C     0.52320   0.98555   0.24839   0.00000  Uiso   1.00
C357   C     0.47680   0.68112   0.25161   0.00000  Uiso   1.00
C358   C     0.50082   0.83331   0.33636   0.00000  Uiso   1.00
C359   C     0.49919   0.83335   0.16364   0.00000  Uiso   1.00
C360   C     0.47563   0.78993   0.09409   0.00000  Uiso   1.00
F361   F     0.56229   0.96517   0.04608   0.00000  Uiso   1.00
F362   F     0.43771   0.70150   0.45392   0.00000  Uiso   1.00
F363   F     0.57892   0.67221   0.24483   0.00000  Uiso   1.00
F364   F     0.42108   0.99445   0.25517   0.00000  Uiso   1.00
H365   H     0.45903   0.75676   0.11379   0.00000  Uiso   1.00
H366   H     0.54097   0.90990   0.38621   0.00000  Uiso   1.00
H367   H     0.53651   0.91102   0.11210   0.00000  Uiso   1.00
H368   H     0.46349   0.75565   0.38790   0.00000  Uiso   1.00
H369   H     0.33796   0.79423   0.21609   0.00000  Uiso   1.00
H370   H     0.66204   0.87243   0.28391   0.00000  Uiso   1.00
N371   N     0.65011   0.81932   0.23783   0.00000  Uiso   1.00
N372   N     0.34989   0.84735   0.26217   0.00000  Uiso   1.00
N373   N     0.58368   0.67332   0.43520   0.00000  Uiso   1.00
N374   N     0.41632   0.99334   0.06480   0.00000  Uiso   1.00
O375   O     0.46308   0.91286   0.25299   0.00000  Uiso   1.00
O376   O     0.53692   0.75381   0.24702   0.00000  Uiso   1.00
O377   O     0.55946   0.90387   0.24519   0.00000  Uiso   1.00
O378   O     0.44054   0.76279   0.25482   0.00000  Uiso   1.00
O379   O     0.45181   0.83784   0.31998   0.00000  Uiso   1.00
O380   O     0.54819   0.82883   0.18003   0.00000  Uiso   1.00
O381   O     0.54819   0.82885   0.31218   0.00000  Uiso   1.00
O382   O     0.45181   0.83781   0.18783   0.00000  Uiso   1.00
Zn383  Zn    0.43565   0.83933   0.25521   0.00000  Uiso   1.00
Zn384  Zn    0.56435   0.82734   0.24479   0.00000  Uiso   1.00
C385   C     0.84843   0.93142   0.24884   0.00000  Uiso   1.00
C386   C     0.85771   0.87674   0.40591   0.00000  Uiso   1.00
C387   C     0.83085   0.83385   0.11617   0.00000  Uiso   1.00
C388   C     0.83582   0.83281   0.38383   0.00000  Uiso   1.00
C389   C     0.85316   0.87760   0.09331   0.00000  Uiso   1.00
C390   C     0.81351   0.78906   0.40669   0.00000  Uiso   1.00
C391   C     0.85387   0.87805   0.04673   0.00000  Uiso   1.00
C392   C     0.81280   0.78862   0.45327   0.00000  Uiso   1.00
C393   C     0.83257   0.83335   0.02346   0.00000  Uiso   1.00
C394   C     0.83410   0.83332   0.47654   0.00000  Uiso   1.00
C395   C     0.80998   0.78867   0.04723   0.00000  Uiso   1.00
C396   C     0.81824   0.73524   0.25116   0.00000  Uiso   1.00
C397   C     0.85669   0.87800   0.45277   0.00000  Uiso   1.00
C398   C     0.87573   0.92227   0.02329   0.00000  Uiso   1.00
C399   C     0.79094   0.74440   0.47671   0.00000  Uiso   1.00
C400   C     0.89932   0.96928   0.45347   0.00000  Uiso   1.00
C401   C     0.76735   0.69738   0.04653   0.00000  Uiso   1.00
C402   C     0.87712   0.92260   0.47640   0.00000  Uiso   1.00
C403   C     0.78955   0.74407   0.02360   0.00000  Uiso   1.00
C404   C     0.85653   0.98555   0.24839   0.00000  Uiso   1.00
C405   C     0.81013   0.68112   0.25161   0.00000  Uiso   1.00
C406   C     0.83415   0.83331   0.33636   0.00000  Uiso   1.00
C407   C     0.83252   0.83335   0.16364   0.00000  Uiso   1.00
C408   C     0.80896   0.78993   0.09409   0.00000  Uiso   1.00
F409   F     0.89563   0.96517   0.04608   0.00000  Uiso   1.00
F410   F     0.77104   0.70150   0.45392   0.00000  Uiso   1.00
F411   F     0.91225   0.67221   0.24483   0.00000  Uiso   1.00
F412   F     0.75442   0.99445   0.25517   0.00000  Uiso   1.00
H413   H     0.79237   0.75676   0.11379   0.00000  Uiso   1.00
H414   H     0.87430   0.90990   0.38621   0.00000  Uiso   1.00
H415   H     0.86984   0.91102   0.11210   0.00000  Uiso   1.00
H416   H     0.79683   0.75565   0.38790   0.00000  Uiso   1.00
H417   H     0.67129   0.79423   0.21609   0.00000  Uiso   1.00
H418   H     0.99538   0.87243   0.28391   0.00000  Uiso   1.00
N419   N     0.98344   0.81932   0.23783   0.00000  Uiso   1.00
N420   N     0.68322   0.84735   0.26217   0.00000  Uiso   1.00
N421   N     0.91701   0.67332   0.43520   0.00000  Uiso   1.00
N422   N     0.74965   0.99334   0.06480   0.00000  Uiso   1.00
O423   O     0.79642   0.91286   0.25299   0.00000  Uiso   1.00
O424   O     0.87025   0.75381   0.24702   0.00000  Uiso   1.00
O425   O     0.89280   0.90387   0.24519   0.00000  Uiso   1.00
O426   O     0.77387   0.76279   0.25482   0.00000  Uiso   1.00
O427   O     0.78514   0.83784   0.31998   0.00000  Uiso   1.00
O428   O     0.88153   0.82883   0.18003   0.00000  Uiso   1.00
O429   O     0.88152   0.82885   0.31218   0.00000  Uiso   1.00
O430   O     0.78515   0.83781   0.18783   0.00000  Uiso   1.00
Zn431  Zn    0.76898   0.83933   0.25521   0.00000  Uiso   1.00
Zn432  Zn    0.89769   0.82734   0.24479   0.00000  Uiso   1.00
C433   C     0.18176   0.26476   0.74884   0.00000  Uiso   1.00
C434   C     0.19104   0.21007   0.90591   0.00000  Uiso   1.00
C435   C     0.16418   0.16719   0.61617   0.00000  Uiso   1.00
C436   C     0.16915   0.16615   0.88383   0.00000  Uiso   1.00
C437   C     0.18649   0.21094   0.59331   0.00000  Uiso   1.00
C438   C     0.14684   0.12240   0.90669   0.00000  Uiso   1.00
C439   C     0.18720   0.21138   0.54673   0.00000  Uiso   1.00
C440   C     0.14613   0.12195   0.95327   0.00000  Uiso   1.00
C441   C     0.16590   0.16668   0.52346   0.00000  Uiso   1.00
C442   C     0.16743   0.16665   0.97654   0.00000  Uiso   1.00
C443   C     0.14331   0.12200   0.54723   0.00000  Uiso   1.00
C444   C     0.15157   0.06858   0.75116   0.00000  Uiso   1.00
C445   C     0.19002   0.21133   0.95277   0.00000  Uiso   1.00
C446   C     0.20906   0.25560   0.52329   0.00000  Uiso   1.00
C447   C     0.12427   0.07773   0.97671   0.00000  Uiso   1.00
C448   C     0.23265   0.30262   0.95347   0.00000  Uiso   1.00
C449   C     0.10068   0.03072   0.54653   0.00000  Uiso   1.00
C450   C     0.21045   0.25593   0.97640   0.00000  Uiso   1.00
C451   C     0.12288   0.07740   0.52360   0.00000  Uiso   1.00
C452   C     0.18987   0.31888   0.74839   0.00000  Uiso   1.00
C453   C     0.14347   0.01445   0.75161   0.00000  Uiso   1.00
C454   C     0.16748   0.16665   0.83636   0.00000  Uiso   1.00
C455   C     0.16585   0.16669   0.66364   0.00000  Uiso   1.00
C456   C     0.14229   0.12326   0.59409   0.00000  Uiso   1.00
F457   F     0.22896   0.29850   0.54608   0.00000  Uiso   1.00
F458   F     0.10437   0.03483   0.95392   0.00000  Uiso   1.00
F459   F     0.24558   0.00555   0.74483   0.00000  Uiso   1.00
F460   F     0.08775   0.32779   0.75517   0.00000  Uiso   1.00
H461   H     0.12570   0.09010   0.61379   0.00000  Uiso   1.00
H462   H     0.20763   0.24324   0.88621   0.00000  Uiso   1.00
H463   H     0.20317   0.24435   0.61210   0.00000  Uiso   1.00
H464   H     0.13016   0.08898   0.88790   0.00000  Uiso   1.00
H465   H     0.00462   0.12757   0.71609   0.00000  Uiso   1.00
H466   H     0.32871   0.20577   0.78391   0.00000  Uiso   1.00
N467   N     0.31678   0.15265   0.73783   0.00000  Uiso   1.00
N468   N     0.01656   0.18068   0.76217   0.00000  Uiso   1.00
N469   N     0.25035   0.00666   0.93520   0.00000  Uiso   1.00
N470   N     0.08299   0.32668   0.56480   0.00000  Uiso   1.00
O471   O     0.12975   0.24619   0.75299   0.00000  Uiso   1.00
O472   O     0.20358   0.08714   0.74702   0.00000  Uiso   1.00
O473   O     0.22613   0.23721   0.74519   0.00000  Uiso   1.00
O474   O     0.10720   0.09613   0.75482   0.00000  Uiso   1.00
O475   O     0.11847   0.17117   0.81998   0.00000  Uiso   1.00
O476   O     0.21486   0.16216   0.68003   0.00000  Uiso   1.00
O477   O     0.21485   0.16219   0.81218   0.00000  Uiso   1.00
O478   O     0.11848   0.17115   0.68783   0.00000  Uiso   1.00
Zn479  Zn    0.10231   0.17266   0.75521   0.00000  Uiso   1.00
Zn480  Zn    0.23102   0.16067   0.74479   0.00000  Uiso   1.00
C481   C     0.51509   0.26476   0.74884   0.00000  Uiso   1.00
C482   C     0.52437   0.21007   0.90591   0.00000  Uiso   1.00
C483   C     0.49752   0.16719   0.61617   0.00000  Uiso   1.00
C484   C     0.50248   0.16615   0.88383   0.00000  Uiso   1.00
C485   C     0.51983   0.21094   0.59331   0.00000  Uiso   1.00
C486   C     0.48017   0.12240   0.90669   0.00000  Uiso   1.00
C487   C     0.52053   0.21138   0.54673   0.00000  Uiso   1.00
C488   C     0.47947   0.12195   0.95327   0.00000  Uiso   1.00
C489   C     0.49924   0.16668   0.52346   0.00000  Uiso   1.00
C490   C     0.50076   0.16665   0.97654   0.00000  Uiso   1.00
C491   C     0.47664   0.12200   0.54723   0.00000  Uiso   1.00
C492   C     0.48491   0.06858   0.75116   0.00000  Uiso   1.00
C493   C     0.52336   0.21133   0.95277   0.00000  Uiso   1.00
C494   C     0.54240   0.25560   0.52329   0.00000  Uiso   1.00
C495   C     0.45760   0.07773   0.97671   0.00000  Uiso   1.00
C496   C     0.56599   0.30262   0.95347   0.00000  Uiso   1.00
C497   C     0.43401   0.03072   0.54653   0.00000  Uiso   1.00
C498   C     0.54379   0.25593   0.97640   0.00000  Uiso   1.00
C499   C     0.45621   0.07740   0.52360   0.00000  Uiso   1.00
C500   C     0.52320   0.31888   0.74839   0.00000  Uiso   1.00
C501   C     0.47680   0.01445   0.75161   0.00000  Uiso   1.00
C502   C     0.50082   0.16665   0.83636   0.00000  Uiso   1.00
C503   C     0.49919   0.16669   0.66364   0.00000  Uiso   1.00
C504   C     0.47563   0.12326   0.59409   0.00000  Uiso   1.00
F505   F     0.56229   0.29850   0.54608   0.00000  Uiso   1.00
F506   F     0.43771   0.03483   0.95392   0.00000  Uiso   1.00
F507   F     0.57892   0.00555   0.74483   0.00000  Uiso   1.00
F508   F     0.42108   0.32779   0.75517   0.00000  Uiso   1.00
H509   H     0.45903   0.09010   0.61379   0.00000  Uiso   1.00
H510   H     0.54097   0.24324   0.88621   0.00000  Uiso   1.00
H511   H     0.53651   0.24435   0.61210   0.00000  Uiso   1.00
H512   H     0.46349   0.08898   0.88790   0.00000  Uiso   1.00
H513   H     0.33796   0.12757   0.71609   0.00000  Uiso   1.00
H514   H     0.66204   0.20577   0.78391   0.00000  Uiso   1.00
N515   N     0.65011   0.15265   0.73783   0.00000  Uiso   1.00
N516   N     0.34989   0.18068   0.76217   0.00000  Uiso   1.00
N517   N     0.58368   0.00666   0.93520   0.00000  Uiso   1.00
N518   N     0.41632   0.32668   0.56480   0.00000  Uiso   1.00
O519   O     0.46308   0.24619   0.75299   0.00000  Uiso   1.00
O520   O     0.53692   0.08714   0.74702   0.00000  Uiso   1.00
O521   O     0.55946   0.23721   0.74519   0.00000  Uiso   1.00
O522   O     0.44054   0.09613   0.75482   0.00000  Uiso   1.00
O523   O     0.45181   0.17117   0.81998   0.00000  Uiso   1.00
O524   O     0.54819   0.16216   0.68003   0.00000  Uiso   1.00
O525   O     0.54819   0.16219   0.81218   0.00000  Uiso   1.00
O526   O     0.45181   0.17115   0.68783   0.00000  Uiso   1.00
Zn527  Zn    0.43565   0.17266   0.75521   0.00000  Uiso   1.00
Zn528  Zn    0.56435   0.16067   0.74479   0.00000  Uiso   1.00
C529   C     0.84843   0.26476   0.74884   0.00000  Uiso   1.00
C530   C     0.85771   0.21007   0.90591   0.00000  Uiso   1.00
C531   C     0.83085   0.16719   0.61617   0.00000  Uiso   1.00
C532   C     0.83582   0.16615   0.88383   0.00000  Uiso   1.00
C533   C     0.85316   0.21094   0.59331   0.00000  Uiso   1.00
C534   C     0.81351   0.12240   0.90669   0.00000  Uiso   1.00
C535   C     0.85387   0.21138   0.54673   0.00000  Uiso   1.00
C536   C     0.81280   0.12195   0.95327   0.00000  Uiso   1.00
C537   C     0.83257   0.16668   0.52346   0.00000  Uiso   1.00
C538   C     0.83410   0.16665   0.97654   0.00000  Uiso   1.00
C539   C     0.80998   0.12200   0.54723   0.00000  Uiso   1.00
C540   C     0.81824   0.06858   0.75116   0.00000  Uiso   1.00
C541   C     0.85669   0.21133   0.95277   0.00000  Uiso   1.00
C542   C     0.87573   0.25560   0.52329   0.00000  Uiso   1.00
C543   C     0.79094   0.07773   0.97671   0.00000  Uiso   1.00
C544   C     0.89932   0.30262   0.95347   0.00000  Uiso   1.00
C545   C     0.76735   0.03072   0.54653   0.00000  Uiso   1.00
C546   C     0.87712   0.25593   0.97640   0.00000  Uiso   1.00
C547   C     0.78955   0.07740   0.52360   0.00000  Uiso   1.00
C548   C     0.85653   0.31888   0.74839   0.00000  Uiso   1.00
C549   C     0.81013   0.01445   0.75161   0.00000  Uiso   1.00
C550   C     0.83415   0.16665   0.83636   0.00000  Uiso   1.00
C551   C     0.83252   0.16669   0.66364   0.00000  Uiso   1.00
C552   C     0.80896   0.12326   0.59409   0.00000  Uiso   1.00
F553   F     0.89563   0.29850   0.54608   0.00000  Uiso   1.00
F554   F     0.77104   0.03483   0.95392   0.00000  Uiso   1.00
F555   F     0.91225   0.00555   0.74483   0.00000  Uiso   1.00
F556   F     0.75442   0.32779   0.75517   0.00000  Uiso   1.00
H557   H     0.79237   0.09010   0.61379   0.00000  Uiso   1.00
H558   H     0.87430   0.24324   0.88621   0.00000  Uiso   1.00
H559   H     0.86984   0.24435   0.61210   0.00000  Uiso   1.00
H560   H     0.79683   0.08898   0.88790   0.00000  Uiso   1.00
H561   H     0.67129   0.12757   0.71609   0.00000  Uiso   1.00
H562   H     0.99538   0.20577   0.78391   0.00000  Uiso   1.00
N563   N     0.98344   0.15265   0.73783   0.00000  Uiso   1.00
N564   N     0.68322   0.18068   0.76217   0.00000  Uiso   1.00
N565   N     0.91701   0.00666   0.93520   0.00000  Uiso   1.00
N566   N     0.74965   0.32668   0.56480   0.00000  Uiso   1.00
O567   O     0.79642   0.24619   0.75299   0.00000  Uiso   1.00
O568   O     0.87025   0.08714   0.74702   0.00000  Uiso   1.00
O569   O     0.89280   0.23721   0.74519   0.00000  Uiso   1.00
O570   O     0.77387   0.09613   0.75482   0.00000  Uiso   1.00
O571   O     0.78514   0.17117   0.81998   0.00000  Uiso   1.00
O572   O     0.88153   0.16216   0.68003   0.00000  Uiso   1.00
O573   O     0.88152   0.16219   0.81218   0.00000  Uiso   1.00
O574   O     0.78515   0.17115   0.68783   0.00000  Uiso   1.00
Zn575  Zn    0.76898   0.17266   0.75521   0.00000  Uiso   1.00
Zn576  Zn    0.89769   0.16067   0.74479   0.00000  Uiso   1.00
C577   C     0.18176   0.59809   0.74884   0.00000  Uiso   1.00
C578   C     0.19104   0.54341   0.90591   0.00000  Uiso   1.00
C579   C     0.16418   0.50052   0.61617   0.00000  Uiso   1.00
C580   C     0.16915   0.49948   0.88383   0.00000  Uiso   1.00
C581   C     0.18649   0.54427   0.59331   0.00000  Uiso   1.00
C582   C     0.14684   0.45573   0.90669   0.00000  Uiso   1.00
C583   C     0.18720   0.54472   0.54673   0.00000  Uiso   1.00
C584   C     0.14613   0.45528   0.95327   0.00000  Uiso   1.00
C585   C     0.16590   0.50001   0.52346   0.00000  Uiso   1.00
C586   C     0.16743   0.49999   0.97654   0.00000  Uiso   1.00
C587   C     0.14331   0.45534   0.54723   0.00000  Uiso   1.00
C588   C     0.15157   0.40191   0.75116   0.00000  Uiso   1.00
C589   C     0.19002   0.54466   0.95277   0.00000  Uiso   1.00
C590   C     0.20906   0.58893   0.52329   0.00000  Uiso   1.00
C591   C     0.12427   0.41107   0.97671   0.00000  Uiso   1.00
C592   C     0.23265   0.63595   0.95347   0.00000  Uiso   1.00
C593   C     0.10068   0.36405   0.54653   0.00000  Uiso   1.00
C594   C     0.21045   0.58927   0.97640   0.00000  Uiso   1.00
C595   C     0.12288   0.41073   0.52360   0.00000  Uiso   1.00
C596   C     0.18987   0.65222   0.74839   0.00000  Uiso   1.00
C597   C     0.14347   0.34778   0.75161   0.00000  Uiso   1.00
C598   C     0.16748   0.49998   0.83636   0.00000  Uiso   1.00
C599   C     0.16585   0.50002   0.66364   0.00000  Uiso   1.00
C600   C     0.14229   0.45659   0.59409   0.00000  Uiso   1.00
F601   F     0.22896   0.63184   0.54608   0.00000  Uiso   1.00
F602   F     0.10437   0.36816   0.95392   0.00000  Uiso   1.00
F603   F     0.24558   0.33888   0.74483   0.00000  Uiso   1.00
F604   F     0.08775   0.66112   0.75517   0.00000  Uiso   1.00
H605   H     0.12570   0.42343   0.61379   0.00000  Uiso   1.00
H606   H     0.20763   0.57657   0.88621   0.00000  Uiso   1.00
H607   H     0.20317   0.57769   0.61210   0.00000  Uiso   1.00
H608   H     0.13016   0.42231   0.88790   0.00000  Uiso   1.00
H609   H     0.00462   0.46090   0.71609   0.00000  Uiso   1.00
H610   H     0.32871   0.53910   0.78391   0.00000  Uiso   1.00
N611   N     0.31678   0.48598   0.73783   0.00000  Uiso   1.00
N612   N     0.01656   0.51402   0.76217   0.00000  Uiso   1.00
N613   N     0.25035   0.33999   0.93520   0.00000  Uiso   1.00
N614   N     0.08299   0.66001   0.56480   0.00000  Uiso   1.00
O615   O     0.12975   0.57952   0.75299   0.00000  Uiso   1.00
O616   O     0.20358   0.42048   0.74702   0.00000  Uiso   1.00
O617   O     0.22613   0.57054   0.74519   0.00000  Uiso   1.00
O618   O     0.10720   0.42946   0.75482   0.00000  Uiso   1.00
O619   O     0.11847   0.50450   0.81998   0.00000  Uiso   1.00
O620   O     0.21486   0.49550   0.68003   0.00000  Uiso   1.00
O621   O     0.21485   0.49552   0.81218   0.00000  Uiso   1.00
O622   O     0.11848   0.50448   0.68783   0.00000  Uiso   1.00
Zn623  Zn    0.10231   0.50600   0.75521   0.00000  Uiso   1.00
Zn624  Zn    0.23102   0.49400   0.74479   0.00000  Uiso   1.00
C625   C     0.51509   0.59809   0.74884   0.00000  Uiso   1.00
C626   C     0.52437   0.54341   0.90591   0.00000  Uiso   1.00
C627   C     0.49752   0.50052   0.61617   0.00000  Uiso   1.00
C628   C     0.50248   0.49948   0.88383   0.00000  Uiso   1.00
C629   C     0.51983   0.54427   0.59331   0.00000  Uiso   1.00
C630   C     0.48017   0.45573   0.90669   0.00000  Uiso   1.00
C631   C     0.52053   0.54472   0.54673   0.00000  Uiso   1.00
C632   C     0.47947   0.45528   0.95327   0.00000  Uiso   1.00
C633   C     0.49924   0.50001   0.52346   0.00000  Uiso   1.00
C634   C     0.50076   0.49999   0.97654   0.00000  Uiso   1.00
C635   C     0.47664   0.45534   0.54723   0.00000  Uiso   1.00
C636   C     0.48491   0.40191   0.75116   0.00000  Uiso   1.00
C637   C     0.52336   0.54466   0.95277   0.00000  Uiso   1.00
C638   C     0.54240   0.58893   0.52329   0.00000  Uiso   1.00
C639   C     0.45760   0.41107   0.97671   0.00000  Uiso   1.00
C640   C     0.56599   0.63595   0.95347   0.00000  Uiso   1.00
C641   C     0.43401   0.36405   0.54653   0.00000  Uiso   1.00
C642   C     0.54379   0.58927   0.97640   0.00000  Uiso   1.00
C643   C     0.45621   0.41073   0.52360   0.00000  Uiso   1.00
C644   C     0.52320   0.65222   0.74839   0.00000  Uiso   1.00
C645   C     0.47680   0.34778   0.75161   0.00000  Uiso   1.00
C646   C     0.50082   0.49998   0.83636   0.00000  Uiso   1.00
C647   C     0.49919   0.50002   0.66364   0.00000  Uiso   1.00
C648   C     0.47563   0.45659   0.59409   0.00000  Uiso   1.00
F649   F     0.56229   0.63184   0.54608   0.00000  Uiso   1.00
F650   F     0.43771   0.36816   0.95392   0.00000  Uiso   1.00
F651   F     0.57892   0.33888   0.74483   0.00000  Uiso   1.00
F652   F     0.42108   0.66112   0.75517   0.00000  Uiso   1.00
H653   H     0.45903   0.42343   0.61379   0.00000  Uiso   1.00
H654   H     0.54097   0.57657   0.88621   0.00000  Uiso   1.00
H655   H     0.53651   0.57769   0.61210   0.00000  Uiso   1.00
H656   H     0.46349   0.42231   0.88790   0.00000  Uiso   1.00
H657   H     0.33796   0.46090   0.71609   0.00000  Uiso   1.00
H658   H     0.66204   0.53910   0.78391   0.00000  Uiso   1.00
N659   N     0.65011   0.48598   0.73783   0.00000  Uiso   1.00
N660   N     0.34989   0.51402   0.76217   0.00000  Uiso   1.00
N661   N     0.58368   0.33999   0.93520   0.00000  Uiso   1.00
N662   N     0.41632   0.66001   0.56480   0.00000  Uiso   1.00
O663   O     0.46308   0.57952   0.75299   0.00000  Uiso   1.00
O664   O     0.53692   0.42048   0.74702   0.00000  Uiso   1.00
O665   O     0.55946   0.57054   0.74519   0.00000  Uiso   1.00
O666   O     0.44054   0.42946   0.75482   0.00000  Uiso   1.00
O667   O     0.45181   0.50450   0.81998   0.00000  Uiso   1.00
O668   O     0.54819   0.49550   0.68003   0.00000  Uiso   1.00
O669   O     0.54819   0.49552   0.81218   0.00000  Uiso   1.00
O670   O     0.45181   0.50448   0.68783   0.00000  Uiso   1.00
Zn671  Zn    0.43565   0.50600   0.75521   0.00000  Uiso   1.00
Zn672  Zn    0.56435   0.49400   0.74479   0.00000  Uiso   1.00
C673   C     0.84843   0.59809   0.74884   0.00000  Uiso   1.00
C674   C     0.85771   0.54341   0.90591   0.00000  Uiso   1.00
C675   C     0.83085   0.50052   0.61617   0.00000  Uiso   1.00
C676   C     0.83582   0.49948   0.88383   0.00000  Uiso   1.00
C677   C     0.85316   0.54427   0.59331   0.00000  Uiso   1.00
C678   C     0.81351   0.45573   0.90669   0.00000  Uiso   1.00
C679   C     0.85387   0.54472   0.54673   0.00000  Uiso   1.00
C680   C     0.81280   0.45528   0.95327   0.00000  Uiso   1.00
C681   C     0.83257   0.50001   0.52346   0.00000  Uiso   1.00
C682   C     0.83410   0.49999   0.97654   0.00000  Uiso   1.00
C683   C     0.80998   0.45534   0.54723   0.00000  Uiso   1.00
C684   C     0.81824   0.40191   0.75116   0.00000  Uiso   1.00
C685   C     0.85669   0.54466   0.95277   0.00000  Uiso   1.00
C686   C     0.87573   0.58893   0.52329   0.00000  Uiso   1.00
C687   C     0.79094   0.41107   0.97671   0.00000  Uiso   1.00
C688   C     0.89932   0.63595   0.95347   0.00000  Uiso   1.00
C689   C     0.76735   0.36405   0.54653   0.00000  Uiso   1.00
C690   C     0.87712   0.58927   0.97640   0.00000  Uiso   1.00
C691   C     0.78955   0.41073   0.52360   0.00000  Uiso   1.00
C692   C     0.85653   0.65222   0.74839   0.00000  Uiso   1.00
C693   C     0.81013   0.34778   0.75161   0.00000  Uiso   1.00
C694   C     0.83415   0.49998   0.83636   0.00000  Uiso   1.00
C695   C     0.83252   0.50002   0.66364   0.00000  Uiso   1.00
C696   C     0.80896   0.45659   0.59409   0.00000  Uiso   1.00
F697   F     0.89563   0.63184   0.54608   0.00000  Uiso   1.00
F698   F     0.77104   0.36816   0.95392   0.00000  Uiso   1.00
F699   F     0.91225   0.33888   0.74483   0.00000  Uiso   1.00
F700   F     0.75442   0.66112   0.75517   0.00000  Uiso   1.00
H701   H     0.79237   0.42343   0.61379   0.00000  Uiso   1.00
H702   H     0.87430   0.57657   0.88621   0.00000  Uiso   1.00
H703   H     0.86984   0.57769   0.61210   0.00000  Uiso   1.00
H704   H     0.79683   0.42231   0.88790   0.00000  Uiso   1.00
H705   H     0.67129   0.46090   0.71609   0.00000  Uiso   1.00
H706   H     0.99538   0.53910   0.78391   0.00000  Uiso   1.00
N707   N     0.98344   0.48598   0.73783   0.00000  Uiso   1.00
N708   N     0.68322   0.51402   0.76217   0.00000  Uiso   1.00
N709   N     0.91701   0.33999   0.93520   0.00000  Uiso   1.00
N710   N     0.74965   0.66001   0.56480   0.00000  Uiso   1.00
O711   O     0.79642   0.57952   0.75299   0.00000  Uiso   1.00
O712   O     0.87025   0.42048   0.74702   0.00000  Uiso   1.00
O713   O     0.89280   0.57054   0.74519   0.00000  Uiso   1.00
O714   O     0.77387   0.42946   0.75482   0.00000  Uiso   1.00
O715   O     0.78514   0.50450   0.81998   0.00000  Uiso   1.00
O716   O     0.88153   0.49550   0.68003   0.00000  Uiso   1.00
O717   O     0.88152   0.49552   0.81218   0.00000  Uiso   1.00
O718   O     0.78515   0.50448   0.68783   0.00000  Uiso   1.00
Zn719  Zn    0.76898   0.50600   0.75521   0.00000  Uiso   1.00
Zn720  Zn    0.89769   0.49400   0.74479   0.00000  Uiso   1.00
C721   C     0.18176   0.93142   0.74884   0.00000  Uiso   1.00
C722   C     0.19104   0.87674   0.90591   0.00000  Uiso   1.00
C723   C     0.16418   0.83385   0.61617   0.00000  Uiso   1.00
C724   C     0.16915   0.83281   0.88383   0.00000  Uiso   1.00
C725   C     0.18649   0.87760   0.59331   0.00000  Uiso   1.00
C726   C     0.14684   0.78906   0.90669   0.00000  Uiso   1.00
C727   C     0.18720   0.87805   0.54673   0.00000  Uiso   1.00
C728   C     0.14613   0.78862   0.95327   0.00000  Uiso   1.00
C729   C     0.16590   0.83335   0.52346   0.00000  Uiso   1.00
C730   C     0.16743   0.83332   0.97654   0.00000  Uiso   1.00
C731   C     0.14331   0.78867   0.54723   0.00000  Uiso   1.00
C732   C     0.15157   0.73524   0.75116   0.00000  Uiso   1.00
C733   C     0.19002   0.87800   0.95277   0.00000  Uiso   1.00
C734   C     0.20906   0.92227   0.52329   0.00000  Uiso   1.00
C735   C     0.12427   0.74440   0.97671   0.00000  Uiso   1.00
C736   C     0.23265   0.96928   0.95347   0.00000  Uiso   1.00
C737   C     0.10068   0.69738   0.54653   0.00000  Uiso   1.00
C738   C     0.21045   0.92260   0.97640   0.00000  Uiso   1.00
C739   C     0.12288   0.74407   0.52360   0.00000  Uiso   1.00
C740   C     0.18987   0.98555   0.74839   0.00000  Uiso   1.00
C741   C     0.14347   0.68112   0.75161   0.00000  Uiso   1.00
C742   C     0.16748   0.83331   0.83636   0.00000  Uiso   1.00
C743   C     0.16585   0.83335   0.66364   0.00000  Uiso   1.00
C744   C     0.14229   0.78993   0.59409   0.00000  Uiso   1.00
F745   F     0.22896   0.96517   0.54608   0.00000  Uiso   1.00
F746   F     0.10437   0.70150   0.95392   0.00000  Uiso   1.00
F747   F     0.24558   0.67221   0.74483   0.00000  Uiso   1.00
F748   F     0.08775   0.99445   0.75517   0.00000  Uiso   1.00
H749   H     0.12570   0.75676   0.61379   0.00000  Uiso   1.00
H750   H     0.20763   0.90990   0.88621   0.00000  Uiso   1.00
H751   H     0.20317   0.91102   0.61210   0.00000  Uiso   1.00
H752   H     0.13016   0.75565   0.88790   0.00000  Uiso   1.00
H753   H     0.00462   0.79423   0.71609   0.00000  Uiso   1.00
H754   H     0.32871   0.87243   0.78391   0.00000  Uiso   1.00
N755   N     0.31678   0.81932   0.73783   0.00000  Uiso   1.00
N756   N     0.01656   0.84735   0.76217   0.00000  Uiso   1.00
N757   N     0.25035   0.67332   0.93520   0.00000  Uiso   1.00
N758   N     0.08299   0.99334   0.56480   0.00000  Uiso   1.00
O759   O     0.12975   0.91286   0.75299   0.00000  Uiso   1.00
O760   O     0.20358   0.75381   0.74702   0.00000  Uiso   1.00
O761   O     0.22613   0.90387   0.74519   0.00000  Uiso   1.00
O762   O     0.10720   0.76279   0.75482   0.00000  Uiso   1.00
O763   O     0.11847   0.83784   0.81998   0.00000  Uiso   1.00
O764   O     0.21486   0.82883   0.68003   0.00000  Uiso   1.00
O765   O     0.21485   0.82885   0.81218   0.00000  Uiso   1.00
O766   O     0.11848   0.83781   0.68783   0.00000  Uiso   1.00
Zn767  Zn    0.10231   0.83933   0.75521   0.00000  Uiso   1.00
Zn768  Zn    0.23102   0.82734   0.74479   0.00000  Uiso   1.00
C769   C     0.51509   0.93142   0.74884   0.00000  Uiso   1.00
C770   C     0.52437   0.87674   0.90591   0.00000  Uiso   1.00
C771   C     0.49752   0.83385   0.61617   0.00000  Uiso   1.00
C772   C     0.50248   0.83281   0.88383   0.00000  Uiso   1.00
C773   C     0.51983   0.87760   0.59331   0.00000  Uiso   1.00
C774   C     0.48017   0.78906   0.90669   0.00000  Uiso   1.00
C775   C     0.52053   0.87805   0.54673   0.00000  Uiso   1.00
C776   C     0.47947   0.78862   0.95327   0.00000  Uiso   1.00
C777   C     0.49924   0.83335   0.52346   0.00000  Uiso   1.00
C778   C     0.50076   0.83332   0.97654   0.00000  Uiso   1.00
C779   C     0.47664   0.78867   0.54723   0.00000  Uiso   1.00
C780   C     0.48491   0.73524   0.75116   0.00000  Uiso   1.00
C781   C     0.52336   0.87800   0.95277   0.00000  Uiso   1.00
C782   C     0.54240   0.92227   0.52329   0.00000  Uiso   1.00
C783   C     0.45760   0.74440   0.97671   0.00000  Uiso   1.00
C784   C     0.56599   0.96928   0.95347   0.00000  Uiso   1.00
C785   C     0.43401   0.69738   0.54653   0.00000  Uiso   1.00
C786   C     0.54379   0.92260   0.97640   0.00000  Uiso   1.00
C787   C     0.45621   0.74407   0.52360   0.00000  Uiso   1.00
C788   C     0.52320   0.98555   0.74839   0.00000  Uiso   1.00
C789   C     0.47680   0.68112   0.75161   0.00000  Uiso   1.00
C790   C     0.50082   0.83331   0.83636   0.00000  Uiso   1.00
C791   C     0.49919   0.83335   0.66364   0.00000  Uiso   1.00
C792   C     0.47563   0.78993   0.59409   0.00000  Uiso   1.00
F793   F     0.56229   0.96517   0.54608   0.00000  Uiso   1.00
F794   F     0.43771   0.70150   0.95392   0.00000  Uiso   1.00
F795   F     0.57892   0.67221   0.74483   0.00000  Uiso   1.00
F796   F     0.42108   0.99445   0.75517   0.00000  Uiso   1.00
H797   H     0.45903   0.75676   0.61379   0.00000  Uiso   1.00
H798   H     0.54097   0.90990   0.88621   0.00000  Uiso   1.00
H799   H     0.53651   0.91102   0.61210   0.00000  Uiso   1.00
H800   H     0.46349   0.75565   0.88790   0.00000  Uiso   1.00
H801   H     0.33796   0.79423   0.71609   0.00000  Uiso   1.00
H802   H     0.66204   0.87243   0.78391   0.00000  Uiso   1.00
N803   N     0.65011   0.81932   0.73783   0.00000  Uiso   1.00
N804   N     0.34989   0.84735   0.76217   0.00000  Uiso   1.00
N805   N     0.58368   0.67332   0.93520   0.00000  Uiso   1.00
N806   N     0.41632   0.99334   0.56480   0.00000  Uiso   1.00
O807   O     0.46308   0.91286   0.75299   0.00000  Uiso   1.00
O808   O     0.53692   0.75381   0.74702   0.00000  Uiso   1.00
O809   O     0.55946   0.90387   0.74519   0.00000  Uiso   1.00
O810   O     0.44054   0.76279   0.75482   0.00000  Uiso   1.00
O811   O     0.45181   0.83784   0.81998   0.00000  Uiso   1.00
O812   O     0.54819   0.82883   0.68003   0.00000  Uiso   1.00
O813   O     0.54819   0.82885   0.81218   0.00000  Uiso   1.00
O814   O     0.45181   0.83781   0.68783   0.00000  Uiso   1.00
Zn815  Zn    0.43565   0.83933   0.75521   0.00000  Uiso   1.00
Zn816  Zn    0.56435   0.82734   0.74479   0.00000  Uiso   1.00
C817   C     0.84843   0.93142   0.74884   0.00000  Uiso   1.00
C818   C     0.85771   0.87674   0.90591   0.00000  Uiso   1.00
C819   C     0.83085   0.83385   0.61617   0.00000  Uiso   1.00
C820   C     0.83582   0.83281   0.88383   0.00000  Uiso   1.00
C821   C     0.85316   0.87760   0.59331   0.00000  Uiso   1.00
C822   C     0.81351   0.78906   0.90669   0.00000  Uiso   1.00
C823   C     0.85387   0.87805   0.54673   0.00000  Uiso   1.00
C824   C     0.81280   0.78862   0.95327   0.00000  Uiso   1.00
C825   C     0.83257   0.83335   0.52346   0.00000  Uiso   1.00
C826   C     0.83410   0.83332   0.97654   0.00000  Uiso   1.00
C827   C     0.80998   0.78867   0.54723   0.00000  Uiso   1.00
C828   C     0.81824   0.73524   0.75116   0.00000  Uiso   1.00
C829   C     0.85669   0.87800   0.95277   0.00000  Uiso   1.00
C830   C     0.87573   0.92227   0.52329   0.00000  Uiso   1.00
C831   C     0.79094   0.74440   0.97671   0.00000  Uiso   1.00
C832   C     0.89932   0.96928   0.95347   0.00000  Uiso   1.00
C833   C     0.76735   0.69738   0.54653   0.00000  Uiso   1.00
C834   C     0.87712   0.92260   0.97640   0.00000  Uiso   1.00
C835   C     0.78955   0.74407   0.52360   0.00000  Uiso   1.00
C836   C     0.85653   0.98555   0.74839   0.00000  Uiso   1.00
C837   C     0.81013   0.68112   0.75161   0.00000  Uiso   1.00
C838   C     0.83415   0.83331   0.83636   0.00000  Uiso   1.00
C839   C     0.83252   0.83335   0.66364   0.00000  Uiso   1.00
C840   C     0.80896   0.78993   0.59409   0.00000  Uiso   1.00
F841   F     0.89563   0.96517   0.54608   0.00000  Uiso   1.00
F842   F     0.77104   0.70150   0.95392   0.00000  Uiso   1.00
F843   F     0.91225   0.67221   0.74483   0.00000  Uiso   1.00
F844   F     0.75442   0.99445   0.75517   0.00000  Uiso   1.00
H845   H     0.79237   0.75676   0.61379   0.00000  Uiso   1.00
H846   H     0.87430   0.90990   0.88621   0.00000  Uiso   1.00
H847   H     0.86984   0.91102   0.61210   0.00000  Uiso   1.00
H848   H     0.79683   0.75565   0.88790   0.00000  Uiso   1.00
H849   H     0.67129   0.79423   0.71609   0.00000  Uiso   1.00
H850   H     0.99538   0.87243   0.78391   0.00000  Uiso   1.00
N851   N     0.98344   0.81932   0.73783   0.00000  Uiso   1.00
N852   N     0.68322   0.84735   0.76217   0.00000  Uiso   1.00
N853   N     0.91701   0.67332   0.93520   0.00000  Uiso   1.00
N854   N     0.74965   0.99334   0.56480   0.00000  Uiso   1.00
O855   O     0.79642   0.91286   0.75299   0.00000  Uiso   1.00
O856   O     0.87025   0.75381   0.74702   0.00000  Uiso   1.00
O857   O     0.89280   0.90387   0.74519   0.00000  Uiso   1.00
O858   O     0.77387   0.76279   0.75482   0.00000  Uiso   1.00
O859   O     0.78514   0.83784   0.81998   0.00000  Uiso   1.00
O860   O     0.88153   0.82883   0.68003   0.00000  Uiso   1.00
O861   O     0.88152   0.82885   0.81218   0.00000  Uiso   1.00
O862   O     0.78515   0.83781   0.68783   0.00000  Uiso   1.00
Zn863  Zn    0.76898   0.83933   0.75521   0.00000  Uiso   1.00
Zn864  Zn    0.89769   0.82734   0.74479   0.00000  Uiso   1.00
loop_
_geom_bond_atom_site_label_1
_geom_bond_atom_site_label_2
_geom_bond_distance
_geom_bond_site_symmetry_2
_ccdc_geom_bond_type
C1     O39     1.274   .     A
C1     O41     1.288   .     A
C1     C20     1.400   .     S
C2     C4      1.387   .     A
C2     H30     1.084   .     S
C2     C13     1.392   .     A
C3     C5      1.386   .     A
C3     C24     1.387   .     A
C3     C23     1.415   .     S
C4     C22     1.415   .     S
C4     C6      1.386   .     A
C5     H31     1.085   .     S
C5     C7      1.384   .     A
C6     H32     1.085   .     S
C6     C8      1.384   .     A
C7     C9      1.415   .     A
C7     C14     1.401   .     A
C8     C15     1.401   .     A
C8     C10     1.415   .     A
C9     C11     1.420   .     A
C9     C442    1.393   1_554 S
C10    C13     1.420   .     A
C10    C441    1.393   .     S
C11    C19     1.412   .     A
C11    C24     1.392   .     A
C12    O40     1.274   .     A
C12    O42     1.288   .     A
C12    C21     1.400   .     S
C13    C18     1.412   .     A
C14    F25     1.361   .     S
C14    C450    1.393   1_554 S
C15    F26     1.361   .     S
C15    C451    1.393   .     S
C16    C18     1.448   .     S
C16    N181    1.157   .     S
C17    C19     1.448   .     S
C17    N326    1.157   1_545 S
C18    C446    1.393   .     S
C19    C447    1.393   1_554 S
C20    C165    1.348   .     S
C20    F171    1.365   .     S
C21    C308    1.348   1_545 S
C21    F316    1.365   1_545 S
C22    O43     1.284   .     A
C22    O45     1.285   .     A
C23    O46     1.285   .     A
C23    O44     1.284   .     A
C24    H29     1.084   .     S
F27    C308    1.365   1_545 S
F28    C165    1.365   .     S
H33    N131    1.029   1_455 S
H34    N84     1.029   .     S
N35    Zn48    2.017   .     S
N35    H81     1.029   .     S
N35    N84     1.277   .     S
N36    Zn47    2.017   .     S
N36    H130    1.029   1_455 S
N36    N131    1.277   1_455 S
N37    C304    1.157   1_545 S
N38    C161    1.157   .     S
O39    Zn47    1.968   .     S
O40    Zn48    1.968   .     S
O41    Zn48    1.987   .     S
O42    Zn47    1.987   .     S
O43    Zn47    1.989   .     S
O44    Zn48    1.989   .     S
O45    Zn48    2.013   .     S
O46    Zn47    2.013   .     S
C49    O87     1.274   .     A
C49    O89     1.288   .     A
C49    C68     1.400   .     S
C50    C52     1.387   .     A
C50    H78     1.084   .     S
C50    C61     1.392   .     A
C51    C53     1.386   .     A
C51    C72     1.387   .     A
C51    C71     1.415   .     S
C52    C70     1.415   .     S
C52    C54     1.386   .     A
C53    H79     1.085   .     S
C53    C55     1.384   .     A
C54    H80     1.085   .     S
C54    C56     1.384   .     A
C55    C57     1.415   .     A
C55    C62     1.401   .     A
C56    C63     1.401   .     A
C56    C58     1.415   .     A
C57    C59     1.420   .     A
C57    C490    1.393   1_554 S
C58    C61     1.420   .     A
C58    C489    1.393   .     S
C59    C67     1.412   .     A
C59    C72     1.392   .     A
C60    O88     1.274   .     A
C60    O90     1.288   .     A
C60    C69     1.400   .     S
C61    C66     1.412   .     A
C62    F73     1.361   .     S
C62    C498    1.393   1_554 S
C63    F74     1.361   .     S
C63    C499    1.393   .     S
C64    C66     1.448   .     S
C64    N229    1.157   .     S
C65    C67     1.448   .     S
C65    N374    1.157   1_545 S
C66    C494    1.393   .     S
C67    C495    1.393   1_554 S
C68    C213    1.348   .     S
C68    F219    1.365   .     S
C69    C356    1.348   1_545 S
C69    F364    1.365   1_545 S
C70    O91     1.284   .     A
C70    O93     1.285   .     A
C71    O94     1.285   .     A
C71    O92     1.284   .     A
C72    H77     1.084   .     S
F75    C356    1.365   1_545 S
F76    C213    1.365   .     S
H82    N132    1.029   .     S
N83    Zn96    2.017   .     S
N83    H129    1.029   .     S
N83    N132    1.277   .     S
N84    Zn95    2.017   .     S
N85    C352    1.157   1_545 S
N86    C209    1.157   .     S
O87    Zn95    1.968   .     S
O88    Zn96    1.968   .     S
O89    Zn96    1.987   .     S
O90    Zn95    1.987   .     S
O91    Zn95    1.989   .     S
O92    Zn96    1.989   .     S
O93    Zn96    2.013   .     S
O94    Zn95    2.013   .     S
C97    O135    1.274   .     A
C97    O137    1.288   .     A
C97    C116    1.400   .     S
C98    C100    1.387   .     A
C98    H126    1.084   .     S
C98    C109    1.392   .     A
C99    C101    1.386   .     A
C99    C120    1.387   .     A
C99    C119    1.415   .     S
C100   C118    1.415   .     S
C100   C102    1.386   .     A
C101   H127    1.085   .     S
C101   C103    1.384   .     A
C102   H128    1.085   .     S
C102   C104    1.384   .     A
C103   C105    1.415   .     A
C103   C110    1.401   .     A
C104   C111    1.401   .     A
C104   C106    1.415   .     A
C105   C107    1.420   .     A
C105   C538    1.393   1_554 S
C106   C109    1.420   .     A
C106   C537    1.393   .     S
C107   C115    1.412   .     A
C107   C120    1.392   .     A
C108   O136    1.274   .     A
C108   O138    1.288   .     A
C108   C117    1.400   .     S
C109   C114    1.412   .     A
C110   F121    1.361   .     S
C110   C546    1.393   1_554 S
C111   F122    1.361   .     S
C111   C547    1.393   .     S
C112   C114    1.448   .     S
C112   N277    1.157   .     S
C113   C115    1.448   .     S
C113   N422    1.157   1_545 S
C114   C542    1.393   .     S
C115   C543    1.393   1_554 S
C116   C261    1.348   .     S
C116   F267    1.365   .     S
C117   C404    1.348   1_545 S
C117   F412    1.365   1_545 S
C118   O139    1.284   .     A
C118   O141    1.285   .     A
C119   O142    1.285   .     A
C119   O140    1.284   .     A
C120   H125    1.084   .     S
F123   C404    1.365   1_545 S
F124   C261    1.365   .     S
H130   N36     1.029   1_655 S
N131   Zn144   2.017   .     S
N131   H33     1.029   1_655 S
N131   N36     1.277   1_655 S
N132   Zn143   2.017   .     S
N133   C400    1.157   1_545 S
N134   C257    1.157   .     S
O135   Zn143   1.968   .     S
O136   Zn144   1.968   .     S
O137   Zn144   1.987   .     S
O138   Zn143   1.987   .     S
O139   Zn143   1.989   .     S
O140   Zn144   1.989   .     S
O141   Zn144   2.013   .     S
O142   Zn143   2.013   .     S
C145   O183    1.274   .     A
C145   O185    1.288   .     A
C145   C164    1.400   .     S
C146   C148    1.387   .     A
C146   H174    1.084   .     S
C146   C157    1.392   .     A
C147   C149    1.386   .     A
C147   C168    1.387   .     A
C147   C167    1.415   .     S
C148   C166    1.415   .     S
C148   C150    1.386   .     A
C149   H175    1.085   .     S
C149   C151    1.384   .     A
C150   H176    1.085   .     S
C150   C152    1.384   .     A
C151   C153    1.415   .     A
C151   C158    1.401   .     A
C152   C159    1.401   .     A
C152   C154    1.415   .     A
C153   C155    1.420   .     A
C153   C586    1.393   1_554 S
C154   C157    1.420   .     A
C154   C585    1.393   .     S
C155   C163    1.412   .     A
C155   C168    1.392   .     A
C156   O184    1.274   .     A
C156   O186    1.288   .     A
C156   C165    1.400   .     S
C157   C162    1.412   .     A
C158   F169    1.361   .     S
C158   C594    1.393   1_554 S
C159   F170    1.361   .     S
C159   C595    1.393   .     S
C160   C162    1.448   .     S
C160   N325    1.157   .     S
C161   C163    1.448   .     S
C162   C590    1.393   .     S
C163   C591    1.393   1_554 S
C164   C309    1.348   .     S
C164   F315    1.365   .     S
C166   O187    1.284   .     A
C166   O189    1.285   .     A
C167   O190    1.285   .     A
C167   O188    1.284   .     A
C168   H173    1.084   .     S
F172   C309    1.365   .     S
H177   N275    1.029   1_455 S
H178   N228    1.029   .     S
N179   Zn192   2.017   .     S
N179   H225    1.029   .     S
N179   N228    1.277   .     S
N180   Zn191   2.017   .     S
N180   H274    1.029   1_455 S
N180   N275    1.277   1_455 S
N182   C305    1.157   .     S
O183   Zn191   1.968   .     S
O184   Zn192   1.968   .     S
O185   Zn192   1.987   .     S
O186   Zn191   1.987   .     S
O187   Zn191   1.989   .     S
O188   Zn192   1.989   .     S
O189   Zn192   2.013   .     S
O190   Zn191   2.013   .     S
C193   O231    1.274   .     A
C193   O233    1.288   .     A
C193   C212    1.400   .     S
C194   C196    1.387   .     A
C194   H222    1.084   .     S
C194   C205    1.392   .     A
C195   C197    1.386   .     A
C195   C216    1.387   .     A
C195   C215    1.415   .     S
C196   C214    1.415   .     S
C196   C198    1.386   .     A
C197   H223    1.085   .     S
C197   C199    1.384   .     A
C198   H224    1.085   .     S
C198   C200    1.384   .     A
C199   C201    1.415   .     A
C199   C206    1.401   .     A
C200   C207    1.401   .     A
C200   C202    1.415   .     A
C201   C203    1.420   .     A
C201   C634    1.393   1_554 S
C202   C205    1.420   .     A
C202   C633    1.393   .     S
C203   C211    1.412   .     A
C203   C216    1.392   .     A
C204   O232    1.274   .     A
C204   O234    1.288   .     A
C204   C213    1.400   .     S
C205   C210    1.412   .     A
C206   F217    1.361   .     S
C206   C642    1.393   1_554 S
C207   F218    1.361   .     S
C207   C643    1.393   .     S
C208   C210    1.448   .     S
C208   N373    1.157   .     S
C209   C211    1.448   .     S
C210   C638    1.393   .     S
C211   C639    1.393   1_554 S
C212   C357    1.348   .     S
C212   F363    1.365   .     S
C214   O235    1.284   .     A
C214   O237    1.285   .     A
C215   O238    1.285   .     A
C215   O236    1.284   .     A
C216   H221    1.084   .     S
F220   C357    1.365   .     S
H226   N276    1.029   .     S
N227   Zn240   2.017   .     S
N227   H273    1.029   .     S
N227   N276    1.277   .     S
N228   Zn239   2.017   .     S
N230   C353    1.157   .     S
O231   Zn239   1.968   .     S
O232   Zn240   1.968   .     S
O233   Zn240   1.987   .     S
O234   Zn239   1.987   .     S
O235   Zn239   1.989   .     S
O236   Zn240   1.989   .     S
O237   Zn240   2.013   .     S
O238   Zn239   2.013   .     S
C241   O279    1.274   .     A
C241   O281    1.288   .     A
C241   C260    1.400   .     S
C242   C244    1.387   .     A
C242   H270    1.084   .     S
C242   C253    1.392   .     A
C243   C245    1.386   .     A
C243   C264    1.387   .     A
C243   C263    1.415   .     S
C244   C262    1.415   .     S
C244   C246    1.386   .     A
C245   H271    1.085   .     S
C245   C247    1.384   .     A
C246   H272    1.085   .     S
C246   C248    1.384   .     A
C247   C249    1.415   .     A
C247   C254    1.401   .     A
C248   C255    1.401   .     A
C248   C250    1.415   .     A
C249   C251    1.420   .     A
C249   C682    1.393   1_554 S
C250   C253    1.420   .     A
C250   C681    1.393   .     S
C251   C259    1.412   .     A
C251   C264    1.392   .     A
C252   O280    1.274   .     A
C252   O282    1.288   .     A
C252   C261    1.400   .     S
C253   C258    1.412   .     A
C254   F265    1.361   .     S
C254   C690    1.393   1_554 S
C255   F266    1.361   .     S
C255   C691    1.393   .     S
C256   C258    1.448   .     S
C256   N421    1.157   .     S
C257   C259    1.448   .     S
C258   C686    1.393   .     S
C259   C687    1.393   1_554 S
C260   C405    1.348   .     S
C260   F411    1.365   .     S
C262   O283    1.284   .     A
C262   O285    1.285   .     A
C263   O286    1.285   .     A
C263   O284    1.284   .     A
C264   H269    1.084   .     S
F268   C405    1.365   .     S
H274   N180    1.029   1_655 S
N275   Zn288   2.017   .     S
N275   H177    1.029   1_655 S
N275   N180    1.277   1_655 S
N276   Zn287   2.017   .     S
N278   C401    1.157   .     S
O279   Zn287   1.968   .     S
O280   Zn288   1.968   .     S
O281   Zn288   1.987   .     S
O282   Zn287   1.987   .     S
O283   Zn287   1.989   .     S
O284   Zn288   1.989   .     S
O285   Zn288   2.013   .     S
O286   Zn287   2.013   .     S
C289   O327    1.274   .     A
C289   O329    1.288   .     A
C289   C308    1.400   .     S
C290   C292    1.387   .     A
C290   H318    1.084   .     S
C290   C301    1.392   .     A
C291   C293    1.386   .     A
C291   C312    1.387   .     A
C291   C311    1.415   .     S
C292   C310    1.415   .     S
C292   C294    1.386   .     A
C293   H319    1.085   .     S
C293   C295    1.384   .     A
C294   H320    1.085   .     S
C294   C296    1.384   .     A
C295   C297    1.415   .     A
C295   C302    1.401   .     A
C296   C303    1.401   .     A
C296   C298    1.415   .     A
C297   C299    1.420   .     A
C297   C730    1.393   1_554 S
C298   C301    1.420   .     A
C298   C729    1.393   .     S
C299   C307    1.412   .     A
C299   C312    1.392   .     A
C300   O328    1.274   .     A
C300   O330    1.288   .     A
C300   C309    1.400   .     S
C301   C306    1.412   .     A
C302   F313    1.361   .     S
C302   C738    1.393   1_554 S
C303   F314    1.361   .     S
C303   C739    1.393   .     S
C304   C306    1.448   .     S
C304   N37     1.157   1_565 S
C305   C307    1.448   .     S
C306   C734    1.393   .     S
C307   C735    1.393   1_554 S
C308   C21     1.348   1_565 S
C308   F27     1.365   1_565 S
C310   O331    1.284   .     A
C310   O333    1.285   .     A
C311   O334    1.285   .     A
C311   O332    1.284   .     A
C312   H317    1.084   .     S
F316   C21     1.365   1_565 S
H321   N419    1.029   1_455 S
H322   N372    1.029   .     S
N323   Zn336   2.017   .     S
N323   H369    1.029   .     S
N323   N372    1.277   .     S
N324   Zn335   2.017   .     S
N324   H418    1.029   1_455 S
N324   N419    1.277   1_455 S
N326   C17     1.157   1_565 S
O327   Zn335   1.968   .     S
O328   Zn336   1.968   .     S
O329   Zn336   1.987   .     S
O330   Zn335   1.987   .     S
O331   Zn335   1.989   .     S
O332   Zn336   1.989   .     S
O333   Zn336   2.013   .     S
O334   Zn335   2.013   .     S
C337   O375    1.274   .     A
C337   O377    1.288   .     A
C337   C356    1.400   .     S
C338   C340    1.387   .     A
C338   H366    1.084   .     S
C338   C349    1.392   .     A
C339   C341    1.386   .     A
C339   C360    1.387   .     A
C339   C359    1.415   .     S
C340   C358    1.415   .     S
C340   C342    1.386   .     A
C341   H367    1.085   .     S
C341   C343    1.384   .     A
C342   H368    1.085   .     S
C342   C344    1.384   .     A
C343   C345    1.415   .     A
C343   C350    1.401   .     A
C344   C351    1.401   .     A
C344   C346    1.415   .     A
C345   C347    1.420   .     A
C345   C778    1.393   1_554 S
C346   C349    1.420   .     A
C346   C777    1.393   .     S
C347   C355    1.412   .     A
C347   C360    1.392   .     A
C348   O376    1.274   .     A
C348   O378    1.288   .     A
C348   C357    1.400   .     S
C349   C354    1.412   .     A
C350   F361    1.361   .     S
C350   C786    1.393   1_554 S
C351   F362    1.361   .     S
C351   C787    1.393   .     S
C352   C354    1.448   .     S
C352   N85     1.157   1_565 S
C353   C355    1.448   .     S
C354   C782    1.393   .     S
C355   C783    1.393   1_554 S
C356   C69     1.348   1_565 S
C356   F75     1.365   1_565 S
C358   O379    1.284   .     A
C358   O381    1.285   .     A
C359   O382    1.285   .     A
C359   O380    1.284   .     A
C360   H365    1.084   .     S
F364   C69     1.365   1_565 S
H370   N420    1.029   .     S
N371   Zn384   2.017   .     S
N371   H417    1.029   .     S
N371   N420    1.277   .     S
N372   Zn383   2.017   .     S
N374   C65     1.157   1_565 S
O375   Zn383   1.968   .     S
O376   Zn384   1.968   .     S
O377   Zn384   1.987   .     S
O378   Zn383   1.987   .     S
O379   Zn383   1.989   .     S
O380   Zn384   1.989   .     S
O381   Zn384   2.013   .     S
O382   Zn383   2.013   .     S
C385   O423    1.274   .     A
C385   O425    1.288   .     A
C385   C404    1.400   .     S
C386   C388    1.387   .     A
C386   H414    1.084   .     S
C386   C397    1.392   .     A
C387   C389    1.386   .     A
C387   C408    1.387   .     A
C387   C407    1.415   .     S
C388   C406    1.415   .     S
C388   C390    1.386   .     A
C389   H415    1.085   .     S
C389   C391    1.384   .     A
C390   H416    1.085   .     S
C390   C392    1.384   .     A
C391   C393    1.415   .     A
C391   C398    1.401   .     A
C392   C399    1.401   .     A
C392   C394    1.415   .     A
C393   C395    1.420   .     A
C393   C826    1.393   1_554 S
C394   C397    1.420   .     A
C394   C825    1.393   .     S
C395   C403    1.412   .     A
C395   C408    1.392   .     A
C396   O424    1.274   .     A
C396   O426    1.288   .     A
C396   C405    1.400   .     S
C397   C402    1.412   .     A
C398   F409    1.361   .     S
C398   C834    1.393   1_554 S
C399   F410    1.361   .     S
C399   C835    1.393   .     S
C400   C402    1.448   .     S
C400   N133    1.157   1_565 S
C401   C403    1.448   .     S
C402   C830    1.393   .     S
C403   C831    1.393   1_554 S
C404   C117    1.348   1_565 S
C404   F123    1.365   1_565 S
C406   O427    1.284   .     A
C406   O429    1.285   .     A
C407   O430    1.285   .     A
C407   O428    1.284   .     A
C408   H413    1.084   .     S
F412   C117    1.365   1_565 S
H418   N324    1.029   1_655 S
N419   Zn432   2.017   .     S
N419   H321    1.029   1_655 S
N419   N324    1.277   1_655 S
N420   Zn431   2.017   .     S
N422   C113    1.157   1_565 S
O423   Zn431   1.968   .     S
O424   Zn432   1.968   .     S
O425   Zn432   1.987   .     S
O426   Zn431   1.987   .     S
O427   Zn431   1.989   .     S
O428   Zn432   1.989   .     S
O429   Zn432   2.013   .     S
O430   Zn431   2.013   .     S
C433   O471    1.274   .     A
C433   O473    1.288   .     A
C433   C452    1.400   .     S
C434   C436    1.387   .     A
C434   H462    1.084   .     S
C434   C445    1.392   .     A
C435   C437    1.386   .     A
C435   C456    1.387   .     A
C435   C455    1.415   .     S
C436   C454    1.415   .     S
C436   C438    1.386   .     A
C437   H463    1.085   .     S
C437   C439    1.384   .     A
C438   H464    1.085   .     S
C438   C440    1.384   .     A
C439   C441    1.415   .     A
C439   C446    1.401   .     A
C440   C447    1.401   .     A
C440   C442    1.415   .     A
C441   C443    1.420   .     A
C442   C445    1.420   .     A
C442   C9      1.393   1_556 S
C443   C451    1.412   .     A
C443   C456    1.392   .     A
C444   O472    1.274   .     A
C444   O474    1.288   .     A
C444   C453    1.400   .     S
C445   C450    1.412   .     A
C446   F457    1.361   .     S
C447   F458    1.361   .     S
C447   C19     1.393   1_556 S
C448   C450    1.448   .     S
C448   N613    1.157   .     S
C449   C451    1.448   .     S
C449   N758    1.157   1_545 S
C450   C14     1.393   1_556 S
C452   C597    1.348   .     S
C452   F603    1.365   .     S
C453   C740    1.348   1_545 S
C453   F748    1.365   1_545 S
C454   O475    1.284   .     A
C454   O477    1.285   .     A
C455   O478    1.285   .     A
C455   O476    1.284   .     A
C456   H461    1.084   .     S
F459   C740    1.365   1_545 S
F460   C597    1.365   .     S
H465   N563    1.029   1_455 S
H466   N516    1.029   .     S
N467   Zn480   2.017   .     S
N467   H513    1.029   .     S
N467   N516    1.277   .     S
N468   Zn479   2.017   .     S
N468   H562    1.029   1_455 S
N468   N563    1.277   1_455 S
N469   C736    1.157   1_545 S
N470   C593    1.157   .     S
O471   Zn479   1.968   .     S
O472   Zn480   1.968   .     S
O473   Zn480   1.987   .     S
O474   Zn479   1.987   .     S
O475   Zn479   1.989   .     S
O476   Zn480   1.989   .     S
O477   Zn480   2.013   .     S
O478   Zn479   2.013   .     S
C481   O519    1.274   .     A
C481   O521    1.288   .     A
C481   C500    1.400   .     S
C482   C484    1.387   .     A
C482   H510    1.084   .     S
C482   C493    1.392   .     A
C483   C485    1.386   .     A
C483   C504    1.387   .     A
C483   C503    1.415   .     S
C484   C502    1.415   .     S
C484   C486    1.386   .     A
C485   H511    1.085   .     S
C485   C487    1.384   .     A
C486   H512    1.085   .     S
C486   C488    1.384   .     A
C487   C489    1.415   .     A
C487   C494    1.401   .     A
C488   C495    1.401   .     A
C488   C490    1.415   .     A
C489   C491    1.420   .     A
C490   C493    1.420   .     A
C490   C57     1.393   1_556 S
C491   C499    1.412   .     A
C491   C504    1.392   .     A
C492   O520    1.274   .     A
C492   O522    1.288   .     A
C492   C501    1.400   .     S
C493   C498    1.412   .     A
C494   F505    1.361   .     S
C495   F506    1.361   .     S
C495   C67     1.393   1_556 S
C496   C498    1.448   .     S
C496   N661    1.157   .     S
C497   C499    1.448   .     S
C497   N806    1.157   1_545 S
C498   C62     1.393   1_556 S
C500   C645    1.348   .     S
C500   F651    1.365   .     S
C501   C788    1.348   1_545 S
C501   F796    1.365   1_545 S
C502   O523    1.284   .     A
C502   O525    1.285   .     A
C503   O526    1.285   .     A
C503   O524    1.284   .     A
C504   H509    1.084   .     S
F507   C788    1.365   1_545 S
F508   C645    1.365   .     S
H514   N564    1.029   .     S
N515   Zn528   2.017   .     S
N515   H561    1.029   .     S
N515   N564    1.277   .     S
N516   Zn527   2.017   .     S
N517   C784    1.157   1_545 S
N518   C641    1.157   .     S
O519   Zn527   1.968   .     S
O520   Zn528   1.968   .     S
O521   Zn528   1.987   .     S
O522   Zn527   1.987   .     S
O523   Zn527   1.989   .     S
O524   Zn528   1.989   .     S
O525   Zn528   2.013   .     S
O526   Zn527   2.013   .     S
C529   O567    1.274   .     A
C529   O569    1.288   .     A
C529   C548    1.400   .     S
C530   C532    1.387   .     A
C530   H558    1.084   .     S
C530   C541    1.392   .     A
C531   C533    1.386   .     A
C531   C552    1.387   .     A
C531   C551    1.415   .     S
C532   C550    1.415   .     S
C532   C534    1.386   .     A
C533   H559    1.085   .     S
C533   C535    1.384   .     A
C534   H560    1.085   .     S
C534   C536    1.384   .     A
C535   C537    1.415   .     A
C535   C542    1.401   .     A
C536   C543    1.401   .     A
C536   C538    1.415   .     A
C537   C539    1.420   .     A
C538   C541    1.420   .     A
C538   C105    1.393   1_556 S
C539   C547    1.412   .     A
C539   C552    1.392   .     A
C540   O568    1.274   .     A
C540   O570    1.288   .     A
C540   C549    1.400   .     S
C541   C546    1.412   .     A
C542   F553    1.361   .     S
C543   F554    1.361   .     S
C543   C115    1.393   1_556 S
C544   C546    1.448   .     S
C544   N709    1.157   .     S
C545   C547    1.448   .     S
C545   N854    1.157   1_545 S
C546   C110    1.393   1_556 S
C548   C693    1.348   .     S
C548   F699    1.365   .     S
C549   C836    1.348   1_545 S
C549   F844    1.365   1_545 S
C550   O571    1.284   .     A
C550   O573    1.285   .     A
C551   O574    1.285   .     A
C551   O572    1.284   .     A
C552   H557    1.084   .     S
F555   C836    1.365   1_545 S
F556   C693    1.365   .     S
H562   N468    1.029   1_655 S
N563   Zn576   2.017   .     S
N563   H465    1.029   1_655 S
N563   N468    1.277   1_655 S
N564   Zn575   2.017   .     S
N565   C832    1.157   1_545 S
N566   C689    1.157   .     S
O567   Zn575   1.968   .     S
O568   Zn576   1.968   .     S
O569   Zn576   1.987   .     S
O570   Zn575   1.987   .     S
O571   Zn575   1.989   .     S
O572   Zn576   1.989   .     S
O573   Zn576   2.013   .     S
O574   Zn575   2.013   .     S
C577   O615    1.274   .     A
C577   O617    1.288   .     A
C577   C596    1.400   .     S
C578   C580    1.387   .     A
C578   H606    1.084   .     S
C578   C589    1.392   .     A
C579   C581    1.386   .     A
C579   C600    1.387   .     A
C579   C599    1.415   .     S
C580   C598    1.415   .     S
C580   C582    1.386   .     A
C581   H607    1.085   .     S
C581   C583    1.384   .     A
C582   H608    1.085   .     S
C582   C584    1.384   .     A
C583   C585    1.415   .     A
C583   C590    1.401   .     A
C584   C591    1.401   .     A
C584   C586    1.415   .     A
C585   C587    1.420   .     A
C586   C589    1.420   .     A
C586   C153    1.393   1_556 S
C587   C595    1.412   .     A
C587   C600    1.392   .     A
C588   O616    1.274   .     A
C588   O618    1.288   .     A
C588   C597    1.400   .     S
C589   C594    1.412   .     A
C590   F601    1.361   .     S
C591   F602    1.361   .     S
C591   C163    1.393   1_556 S
C592   C594    1.448   .     S
C592   N757    1.157   .     S
C593   C595    1.448   .     S
C594   C158    1.393   1_556 S
C596   C741    1.348   .     S
C596   F747    1.365   .     S
C598   O619    1.284   .     A
C598   O621    1.285   .     A
C599   O622    1.285   .     A
C599   O620    1.284   .     A
C600   H605    1.084   .     S
F604   C741    1.365   .     S
H609   N707    1.029   1_455 S
H610   N660    1.029   .     S
N611   Zn624   2.017   .     S
N611   H657    1.029   .     S
N611   N660    1.277   .     S
N612   Zn623   2.017   .     S
N612   H706    1.029   1_455 S
N612   N707    1.277   1_455 S
N614   C737    1.157   .     S
O615   Zn623   1.968   .     S
O616   Zn624   1.968   .     S
O617   Zn624   1.987   .     S
O618   Zn623   1.987   .     S
O619   Zn623   1.989   .     S
O620   Zn624   1.989   .     S
O621   Zn624   2.013   .     S
O622   Zn623   2.013   .     S
C625   O663    1.274   .     A
C625   O665    1.288   .     A
C625   C644    1.400   .     S
C626   C628    1.387   .     A
C626   H654    1.084   .     S
C626   C637    1.392   .     A
C627   C629    1.386   .     A
C627   C648    1.387   .     A
C627   C647    1.415   .     S
C628   C646    1.415   .     S
C628   C630    1.386   .     A
C629   H655    1.085   .     S
C629   C631    1.384   .     A
C630   H656    1.085   .     S
C630   C632    1.384   .     A
C631   C633    1.415   .     A
C631   C638    1.401   .     A
C632   C639    1.401   .     A
C632   C634    1.415   .     A
C633   C635    1.420   .     A
C634   C637    1.420   .     A
C634   C201    1.393   1_556 S
C635   C643    1.412   .     A
C635   C648    1.392   .     A
C636   O664    1.274   .     A
C636   O666    1.288   .     A
C636   C645    1.400   .     S
C637   C642    1.412   .     A
C638   F649    1.361   .     S
C639   F650    1.361   .     S
C639   C211    1.393   1_556 S
C640   C642    1.448   .     S
C640   N805    1.157   .     S
C641   C643    1.448   .     S
C642   C206    1.393   1_556 S
C644   C789    1.348   .     S
C644   F795    1.365   .     S
C646   O667    1.284   .     A
C646   O669    1.285   .     A
C647   O670    1.285   .     A
C647   O668    1.284   .     A
C648   H653    1.084   .     S
F652   C789    1.365   .     S
H658   N708    1.029   .     S
N659   Zn672   2.017   .     S
N659   H705    1.029   .     S
N659   N708    1.277   .     S
N660   Zn671   2.017   .     S
N662   C785    1.157   .     S
O663   Zn671   1.968   .     S
O664   Zn672   1.968   .     S
O665   Zn672   1.987   .     S
O666   Zn671   1.987   .     S
O667   Zn671   1.989   .     S
O668   Zn672   1.989   .     S
O669   Zn672   2.013   .     S
O670   Zn671   2.013   .     S
C673   O711    1.274   .     A
C673   O713    1.288   .     A
C673   C692    1.400   .     S
C674   C676    1.387   .     A
C674   H702    1.084   .     S
C674   C685    1.392   .     A
C675   C677    1.386   .     A
C675   C696    1.387   .     A
C675   C695    1.415   .     S
C676   C694    1.415   .     S
C676   C678    1.386   .     A
C677   H703    1.085   .     S
C677   C679    1.384   .     A
C678   H704    1.085   .     S
C678   C680    1.384   .     A
C679   C681    1.415   .     A
C679   C686    1.401   .     A
C680   C687    1.401   .     A
C680   C682    1.415   .     A
C681   C683    1.420   .     A
C682   C685    1.420   .     A
C682   C249    1.393   1_556 S
C683   C691    1.412   .     A
C683   C696    1.392   .     A
C684   O712    1.274   .     A
C684   O714    1.288   .     A
C684   C693    1.400   .     S
C685   C690    1.412   .     A
C686   F697    1.361   .     S
C687   F698    1.361   .     S
C687   C259    1.393   1_556 S
C688   C690    1.448   .     S
C688   N853    1.157   .     S
C689   C691    1.448   .     S
C690   C254    1.393   1_556 S
C692   C837    1.348   .     S
C692   F843    1.365   .     S
C694   O715    1.284   .     A
C694   O717    1.285   .     A
C695   O718    1.285   .     A
C695   O716    1.284   .     A
C696   H701    1.084   .     S
F700   C837    1.365   .     S
H706   N612    1.029   1_655 S
N707   Zn720   2.017   .     S
N707   H609    1.029   1_655 S
N707   N612    1.277   1_655 S
N708   Zn719   2.017   .     S
N710   C833    1.157   .     S
O711   Zn719   1.968   .     S
O712   Zn720   1.968   .     S
O713   Zn720   1.987   .     S
O714   Zn719   1.987   .     S
O715   Zn719   1.989   .     S
O716   Zn720   1.989   .     S
O717   Zn720   2.013   .     S
O718   Zn719   2.013   .     S
C721   O759    1.274   .     A
C721   O761    1.288   .     A
C721   C740    1.400   .     S
C722   C724    1.387   .     A
C722   H750    1.084   .     S
C722   C733    1.392   .     A
C723   C725    1.386   .     A
C723   C744    1.387   .     A
C723   C743    1.415   .     S
C724   C742    1.415   .     S
C724   C726    1.386   .     A
C725   H751    1.085   .     S
C725   C727    1.384   .     A
C726   H752    1.085   .     S
C726   C728    1.384   .     A
C727   C729    1.415   .     A
C727   C734    1.401   .     A
C728   C735    1.401   .     A
C728   C730    1.415   .     A
C729   C731    1.420   .     A
C730   C733    1.420   .     A
C730   C297    1.393   1_556 S
C731   C739    1.412   .     A
C731   C744    1.392   .     A
C732   O760    1.274   .     A
C732   O762    1.288   .     A
C732   C741    1.400   .     S
C733   C738    1.412   .     A
C734   F745    1.361   .     S
C735   F746    1.361   .     S
C735   C307    1.393   1_556 S
C736   C738    1.448   .     S
C736   N469    1.157   1_565 S
C737   C739    1.448   .     S
C738   C302    1.393   1_556 S
C740   C453    1.348   1_565 S
C740   F459    1.365   1_565 S
C742   O763    1.284   .     A
C742   O765    1.285   .     A
C743   O766    1.285   .     A
C743   O764    1.284   .     A
C744   H749    1.084   .     S
F748   C453    1.365   1_565 S
H753   N851    1.029   1_455 S
H754   N804    1.029   .     S
N755   Zn768   2.017   .     S
N755   H801    1.029   .     S
N755   N804    1.277   .     S
N756   Zn767   2.017   .     S
N756   H850    1.029   1_455 S
N756   N851    1.277   1_455 S
N758   C449    1.157   1_565 S
O759   Zn767   1.968   .     S
O760   Zn768   1.968   .     S
O761   Zn768   1.987   .     S
O762   Zn767   1.987   .     S
O763   Zn767   1.989   .     S
O764   Zn768   1.989   .     S
O765   Zn768   2.013   .     S
O766   Zn767   2.013   .     S
C769   O807    1.274   .     A
C769   O809    1.288   .     A
C769   C788    1.400   .     S
C770   C772    1.387   .     A
C770   H798    1.084   .     S
C770   C781    1.392   .     A
C771   C773    1.386   .     A
C771   C792    1.387   .     A
C771   C791    1.415   .     S
C772   C790    1.415   .     S
C772   C774    1.386   .     A
C773   H799    1.085   .     S
C773   C775    1.384   .     A
C774   H800    1.085   .     S
C774   C776    1.384   .     A
C775   C777    1.415   .     A
C775   C782    1.401   .     A
C776   C783    1.401   .     A
C776   C778    1.415   .     A
C777   C779    1.420   .     A
C778   C781    1.420   .     A
C778   C345    1.393   1_556 S
C779   C787    1.412   .     A
C779   C792    1.392   .     A
C780   O808    1.274   .     A
C780   O810    1.288   .     A
C780   C789    1.400   .     S
C781   C786    1.412   .     A
C782   F793    1.361   .     S
C783   F794    1.361   .     S
C783   C355    1.393   1_556 S
C784   C786    1.448   .     S
C784   N517    1.157   1_565 S
C785   C787    1.448   .     S
C786   C350    1.393   1_556 S
C788   C501    1.348   1_565 S
C788   F507    1.365   1_565 S
C790   O811    1.284   .     A
C790   O813    1.285   .     A
C791   O814    1.285   .     A
C791   O812    1.284   .     A
C792   H797    1.084   .     S
F796   C501    1.365   1_565 S
H802   N852    1.029   .     S
N803   Zn816   2.017   .     S
N803   H849    1.029   .     S
N803   N852    1.277   .     S
N804   Zn815   2.017   .     S
N806   C497    1.157   1_565 S
O807   Zn815   1.968   .     S
O808   Zn816   1.968   .     S
O809   Zn816   1.987   .     S
O810   Zn815   1.987   .     S
O811   Zn815   1.989   .     S
O812   Zn816   1.989   .     S
O813   Zn816   2.013   .     S
O814   Zn815   2.013   .     S
C817   O855    1.274   .     A
C817   O857    1.288   .     A
C817   C836    1.400   .     S
C818   C820    1.387   .     A
C818   H846    1.084   .     S
C818   C829    1.392   .     A
C819   C821    1.386   .     A
C819   C840    1.387   .     A
C819   C839    1.415   .     S
C820   C838    1.415   .     S
C820   C822    1.386   .     A
C821   H847    1.085   .     S
C821   C823    1.384   .     A
C822   H848    1.085   .     S
C822   C824    1.384   .     A
C823   C825    1.415   .     A
C823   C830    1.401   .     A
C824   C831    1.401   .     A
C824   C826    1.415   .     A
C825   C827    1.420   .     A
C826   C829    1.420   .     A
C826   C393    1.393   1_556 S
C827   C835    1.412   .     A
C827   C840    1.392   .     A
C828   O856    1.274   .     A
C828   O858    1.288   .     A
C828   C837    1.400   .     S
C829   C834    1.412   .     A
C830   F841    1.361   .     S
C831   F842    1.361   .     S
C831   C403    1.393   1_556 S
C832   C834    1.448   .     S
C832   N565    1.157   1_565 S
C833   C835    1.448   .     S
C834   C398    1.393   1_556 S
C836   C549    1.348   1_565 S
C836   F555    1.365   1_565 S
C838   O859    1.284   .     A
C838   O861    1.285   .     A
C839   O862    1.285   .     A
C839   O860    1.284   .     A
C840   H845    1.084   .     S
F844   C549    1.365   1_565 S
H850   N756    1.029   1_655 S
N851   Zn864   2.017   .     S
N851   H753    1.029   1_655 S
N851   N756    1.277   1_655 S
N852   Zn863   2.017   .     S
N854   C545    1.157   1_565 S
O855   Zn863   1.968   .     S
O856   Zn864   1.968   .     S
O857   Zn864   1.987   .     S
O858   Zn863   1.987   .     S
O859   Zn863   1.989   .     S
O860   Zn864   1.989   .     S
O861   Zn864   2.013   .     S
O862   Zn863   2.013   .     S
