data_str_m2_o10_o16_pcu_sym.86
_audit_creation_date              2020-01-03
_audit_creation_method            'Materials Studio'
_symmetry_space_group_name_H-M    'P1'
_symmetry_Int_Tables_number       1
_symmetry_cell_setting            triclinic
loop_
_symmetry_equiv_pos_as_xyz
  x,y,z
_cell_length_a                    22.2485
_cell_length_b                    26.1465
_cell_length_c                    26.7238
_cell_angle_alpha                 94.0122
_cell_angle_beta                  76.8116
_cell_angle_gamma                 103.2067
loop_
_atom_site_label
_atom_site_type_symbol
_atom_site_fract_x
_atom_site_fract_y
_atom_site_fract_z
_atom_site_U_iso_or_equiv
_atom_site_adp_type
_atom_site_occupancy
C1     C     0.18162   0.26672   0.25159   0.00000  Uiso   1.00
C2     C     0.10994   0.16430   0.40438   0.00000  Uiso   1.00
C3     C     0.18954   0.32259   0.25242   0.00000  Uiso   1.00
C4     C     0.13240   0.16520   0.34756   0.00000  Uiso   1.00
C5     C     0.14229   0.01091   0.24799   0.00000  Uiso   1.00
C6     C     0.15146   0.06668   0.24861   0.00000  Uiso   1.00
C7     C     0.20110   0.17094   0.15270   0.00000  Uiso   1.00
C8     C     0.29260   0.23087   0.02534   0.00000  Uiso   1.00
C9     C     0.22268   0.18057   0.09712   0.00000  Uiso   1.00
C10    C     0.04857   0.13502   0.42701   0.00000  Uiso   1.00
C11    C     0.03294   0.12481   0.47918   0.00000  Uiso   1.00
C12    C     0.13916   0.16887   0.48816   0.00000  Uiso   1.00
C13    C     0.07766   0.13966   0.00899   0.00000  Uiso   1.00
C14    C     0.15257   0.18661   0.43685   0.00000  Uiso   1.00
C15    C     0.18697   0.18241   0.01732   0.00000  Uiso   1.00
C16    C     0.24508   0.21712   0.49684   0.00000  Uiso   1.00
C17    C     0.25368   0.24008   0.44945   0.00000  Uiso   1.00
C18    C     0.20726   0.22702   0.42047   0.00000  Uiso   1.00
C19    C     0.17841   0.16278   0.06664   0.00000  Uiso   1.00
C20    C     0.28131   0.21340   0.07579   0.00000  Uiso   1.00
Cu21   Cu    0.10710   0.16105   0.24436   0.00000  Uiso   1.00
Cu22   Cu    0.22623   0.17228   0.25565   0.00000  Uiso   1.00
F23    F     0.08463   0.31531   0.24279   0.00000  Uiso   1.00
F24    F     0.01558   0.26331   0.00521   0.00000  Uiso   1.00
H25    H     0.00350   0.20566   0.28980   0.00000  Uiso   1.00
H26    H     0.01784   0.08770   0.37004   0.00000  Uiso   1.00
H27    H     0.32378   0.14468   0.38143   0.00000  Uiso   1.00
H28    H     0.25690   0.26046   0.35313   0.00000  Uiso   1.00
H29    H     0.21190   0.29759   0.39168   0.00000  Uiso   1.00
H30    H     0.32981   0.12764   0.21022   0.00000  Uiso   1.00
H31    H     0.29576   0.26995   0.43532   0.00000  Uiso   1.00
H32    H     0.13647   0.13446   0.08334   0.00000  Uiso   1.00
H33    H     0.06153   0.12909   0.04881   0.00000  Uiso   1.00
H34    H     0.31929   0.10314   0.49659   0.00000  Uiso   1.00
H35    H     0.23517   0.01300   0.25664   0.00000  Uiso   1.00
H36    H     0.00388   0.27233   0.10798   0.00000  Uiso   1.00
H37    H     0.03637   0.22012   0.08687   0.00000  Uiso   1.00
N38    N     0.31574   0.18074   0.26416   0.00000  Uiso   1.00
N39    N     0.01759   0.15259   0.23584   0.00000  Uiso   1.00
N40    N     0.32799   0.23127   0.10595   0.00000  Uiso   1.00
N41    N     0.00111   0.11389   0.39825   0.00000  Uiso   1.00
N42    N     0.21271   0.25932   0.37772   0.00000  Uiso   1.00
O43    O     0.12797   0.23807   0.24633   0.00000  Uiso   1.00
O44    O     0.22858   0.24755   0.25587   0.00000  Uiso   1.00
O45    O     0.09181   0.15960   0.31840   0.00000  Uiso   1.00
O46    O     0.19242   0.16908   0.32793   0.00000  Uiso   1.00
O47    O     0.10476   0.08578   0.24414   0.00000  Uiso   1.00
O48    O     0.20536   0.09526   0.25367   0.00000  Uiso   1.00
O49    O     0.14092   0.16425   0.17207   0.00000  Uiso   1.00
O50    O     0.24152   0.17373   0.18161   0.00000  Uiso   1.00
C51    C     0.51495   0.26672   0.25159   0.00000  Uiso   1.00
C52    C     0.44327   0.16430   0.40438   0.00000  Uiso   1.00
C53    C     0.52288   0.32259   0.25242   0.00000  Uiso   1.00
C54    C     0.46574   0.16520   0.34756   0.00000  Uiso   1.00
C55    C     0.47562   0.01091   0.24799   0.00000  Uiso   1.00
C56    C     0.48480   0.06668   0.24861   0.00000  Uiso   1.00
C57    C     0.53443   0.17094   0.15270   0.00000  Uiso   1.00
C58    C     0.62594   0.23087   0.02534   0.00000  Uiso   1.00
C59    C     0.55601   0.18057   0.09712   0.00000  Uiso   1.00
C60    C     0.38190   0.13502   0.42701   0.00000  Uiso   1.00
C61    C     0.36627   0.12481   0.47918   0.00000  Uiso   1.00
C62    C     0.47249   0.16887   0.48816   0.00000  Uiso   1.00
C63    C     0.41100   0.13966   0.00899   0.00000  Uiso   1.00
C64    C     0.48591   0.18661   0.43685   0.00000  Uiso   1.00
C65    C     0.52030   0.18241   0.01732   0.00000  Uiso   1.00
C66    C     0.57841   0.21712   0.49684   0.00000  Uiso   1.00
C67    C     0.58701   0.24008   0.44945   0.00000  Uiso   1.00
C68    C     0.54059   0.22702   0.42047   0.00000  Uiso   1.00
C69    C     0.51174   0.16278   0.06664   0.00000  Uiso   1.00
C70    C     0.61464   0.21340   0.07579   0.00000  Uiso   1.00
Cu71   Cu    0.44043   0.16105   0.24436   0.00000  Uiso   1.00
Cu72   Cu    0.55957   0.17228   0.25565   0.00000  Uiso   1.00
F73    F     0.41796   0.31531   0.24279   0.00000  Uiso   1.00
F74    F     0.34891   0.26331   0.00521   0.00000  Uiso   1.00
H75    H     0.33684   0.20566   0.28980   0.00000  Uiso   1.00
H76    H     0.35117   0.08770   0.37004   0.00000  Uiso   1.00
H77    H     0.65712   0.14468   0.38143   0.00000  Uiso   1.00
H78    H     0.59024   0.26046   0.35313   0.00000  Uiso   1.00
H79    H     0.54523   0.29759   0.39168   0.00000  Uiso   1.00
H80    H     0.66315   0.12764   0.21022   0.00000  Uiso   1.00
H81    H     0.62910   0.26995   0.43532   0.00000  Uiso   1.00
H82    H     0.46980   0.13446   0.08334   0.00000  Uiso   1.00
H83    H     0.39486   0.12909   0.04881   0.00000  Uiso   1.00
H84    H     0.65262   0.10314   0.49659   0.00000  Uiso   1.00
H85    H     0.56850   0.01300   0.25664   0.00000  Uiso   1.00
H86    H     0.33721   0.27233   0.10798   0.00000  Uiso   1.00
H87    H     0.36970   0.22012   0.08687   0.00000  Uiso   1.00
N88    N     0.64908   0.18074   0.26416   0.00000  Uiso   1.00
N89    N     0.35092   0.15259   0.23584   0.00000  Uiso   1.00
N90    N     0.66132   0.23127   0.10595   0.00000  Uiso   1.00
N91    N     0.33444   0.11389   0.39825   0.00000  Uiso   1.00
N92    N     0.54604   0.25932   0.37772   0.00000  Uiso   1.00
O93    O     0.46131   0.23807   0.24633   0.00000  Uiso   1.00
O94    O     0.56191   0.24755   0.25587   0.00000  Uiso   1.00
O95    O     0.42515   0.15960   0.31840   0.00000  Uiso   1.00
O96    O     0.52575   0.16908   0.32793   0.00000  Uiso   1.00
O97    O     0.43809   0.08578   0.24414   0.00000  Uiso   1.00
O98    O     0.53869   0.09526   0.25367   0.00000  Uiso   1.00
O99    O     0.47425   0.16425   0.17207   0.00000  Uiso   1.00
O100   O     0.57485   0.17373   0.18161   0.00000  Uiso   1.00
C101   C     0.84828   0.26672   0.25159   0.00000  Uiso   1.00
C102   C     0.77660   0.16430   0.40438   0.00000  Uiso   1.00
C103   C     0.85621   0.32259   0.25242   0.00000  Uiso   1.00
C104   C     0.79907   0.16520   0.34756   0.00000  Uiso   1.00
C105   C     0.80895   0.01091   0.24799   0.00000  Uiso   1.00
C106   C     0.81813   0.06668   0.24861   0.00000  Uiso   1.00
C107   C     0.86777   0.17094   0.15270   0.00000  Uiso   1.00
C108   C     0.95927   0.23087   0.02534   0.00000  Uiso   1.00
C109   C     0.88935   0.18057   0.09712   0.00000  Uiso   1.00
C110   C     0.71523   0.13502   0.42701   0.00000  Uiso   1.00
C111   C     0.69961   0.12481   0.47918   0.00000  Uiso   1.00
C112   C     0.80582   0.16887   0.48816   0.00000  Uiso   1.00
C113   C     0.74433   0.13966   0.00899   0.00000  Uiso   1.00
C114   C     0.81924   0.18661   0.43685   0.00000  Uiso   1.00
C115   C     0.85363   0.18241   0.01732   0.00000  Uiso   1.00
C116   C     0.91175   0.21712   0.49684   0.00000  Uiso   1.00
C117   C     0.92034   0.24008   0.44945   0.00000  Uiso   1.00
C118   C     0.87393   0.22702   0.42047   0.00000  Uiso   1.00
C119   C     0.84508   0.16278   0.06664   0.00000  Uiso   1.00
C120   C     0.94797   0.21340   0.07579   0.00000  Uiso   1.00
Cu121  Cu    0.77377   0.16105   0.24436   0.00000  Uiso   1.00
Cu122  Cu    0.89290   0.17228   0.25565   0.00000  Uiso   1.00
F123   F     0.75130   0.31531   0.24279   0.00000  Uiso   1.00
F124   F     0.68224   0.26331   0.00521   0.00000  Uiso   1.00
H125   H     0.67017   0.20566   0.28980   0.00000  Uiso   1.00
H126   H     0.68451   0.08770   0.37004   0.00000  Uiso   1.00
H127   H     0.99045   0.14468   0.38143   0.00000  Uiso   1.00
H128   H     0.92357   0.26046   0.35313   0.00000  Uiso   1.00
H129   H     0.87857   0.29759   0.39168   0.00000  Uiso   1.00
H130   H     0.99648   0.12764   0.21022   0.00000  Uiso   1.00
H131   H     0.96243   0.26995   0.43532   0.00000  Uiso   1.00
H132   H     0.80313   0.13446   0.08334   0.00000  Uiso   1.00
H133   H     0.72820   0.12909   0.04881   0.00000  Uiso   1.00
H134   H     0.98595   0.10314   0.49659   0.00000  Uiso   1.00
H135   H     0.90184   0.01300   0.25664   0.00000  Uiso   1.00
H136   H     0.67055   0.27233   0.10798   0.00000  Uiso   1.00
H137   H     0.70303   0.22012   0.08687   0.00000  Uiso   1.00
N138   N     0.98241   0.18074   0.26416   0.00000  Uiso   1.00
N139   N     0.68426   0.15259   0.23584   0.00000  Uiso   1.00
N140   N     0.99465   0.23127   0.10595   0.00000  Uiso   1.00
N141   N     0.66777   0.11389   0.39825   0.00000  Uiso   1.00
N142   N     0.87937   0.25932   0.37772   0.00000  Uiso   1.00
O143   O     0.79464   0.23807   0.24633   0.00000  Uiso   1.00
O144   O     0.89524   0.24755   0.25587   0.00000  Uiso   1.00
O145   O     0.75848   0.15960   0.31840   0.00000  Uiso   1.00
O146   O     0.85908   0.16908   0.32793   0.00000  Uiso   1.00
O147   O     0.77142   0.08578   0.24414   0.00000  Uiso   1.00
O148   O     0.87203   0.09526   0.25367   0.00000  Uiso   1.00
O149   O     0.80758   0.16425   0.17207   0.00000  Uiso   1.00
O150   O     0.90819   0.17373   0.18161   0.00000  Uiso   1.00
C151   C     0.18162   0.60006   0.25159   0.00000  Uiso   1.00
C152   C     0.10994   0.49763   0.40438   0.00000  Uiso   1.00
C153   C     0.18954   0.65592   0.25242   0.00000  Uiso   1.00
C154   C     0.13240   0.49854   0.34756   0.00000  Uiso   1.00
C155   C     0.14229   0.34424   0.24799   0.00000  Uiso   1.00
C156   C     0.15146   0.40002   0.24861   0.00000  Uiso   1.00
C157   C     0.20110   0.50427   0.15270   0.00000  Uiso   1.00
C158   C     0.29260   0.56420   0.02534   0.00000  Uiso   1.00
C159   C     0.22268   0.51390   0.09712   0.00000  Uiso   1.00
C160   C     0.04857   0.46836   0.42701   0.00000  Uiso   1.00
C161   C     0.03294   0.45815   0.47918   0.00000  Uiso   1.00
C162   C     0.13916   0.50221   0.48816   0.00000  Uiso   1.00
C163   C     0.07766   0.47300   0.00899   0.00000  Uiso   1.00
C164   C     0.15257   0.51994   0.43685   0.00000  Uiso   1.00
C165   C     0.18697   0.51574   0.01732   0.00000  Uiso   1.00
C166   C     0.24508   0.55045   0.49684   0.00000  Uiso   1.00
C167   C     0.25368   0.57341   0.44945   0.00000  Uiso   1.00
C168   C     0.20726   0.56036   0.42047   0.00000  Uiso   1.00
C169   C     0.17841   0.49612   0.06664   0.00000  Uiso   1.00
C170   C     0.28131   0.54674   0.07579   0.00000  Uiso   1.00
Cu171  Cu    0.10710   0.49439   0.24436   0.00000  Uiso   1.00
Cu172  Cu    0.22623   0.50561   0.25565   0.00000  Uiso   1.00
F173   F     0.08463   0.64865   0.24279   0.00000  Uiso   1.00
F174   F     0.01558   0.59665   0.00521   0.00000  Uiso   1.00
H175   H     0.00350   0.53900   0.28980   0.00000  Uiso   1.00
H176   H     0.01784   0.42103   0.37004   0.00000  Uiso   1.00
H177   H     0.32378   0.47802   0.38143   0.00000  Uiso   1.00
H178   H     0.25690   0.59379   0.35313   0.00000  Uiso   1.00
H179   H     0.21190   0.63092   0.39168   0.00000  Uiso   1.00
H180   H     0.32981   0.46097   0.21022   0.00000  Uiso   1.00
H181   H     0.29576   0.60329   0.43532   0.00000  Uiso   1.00
H182   H     0.13647   0.46780   0.08334   0.00000  Uiso   1.00
H183   H     0.06153   0.46242   0.04881   0.00000  Uiso   1.00
H184   H     0.31929   0.43647   0.49659   0.00000  Uiso   1.00
H185   H     0.23517   0.34633   0.25664   0.00000  Uiso   1.00
H186   H     0.00388   0.60566   0.10798   0.00000  Uiso   1.00
H187   H     0.03637   0.55345   0.08687   0.00000  Uiso   1.00
N188   N     0.31574   0.51407   0.26416   0.00000  Uiso   1.00
N189   N     0.01759   0.48593   0.23584   0.00000  Uiso   1.00
N190   N     0.32799   0.56460   0.10595   0.00000  Uiso   1.00
N191   N     0.00111   0.44723   0.39825   0.00000  Uiso   1.00
N192   N     0.21271   0.59265   0.37772   0.00000  Uiso   1.00
O193   O     0.12797   0.57141   0.24633   0.00000  Uiso   1.00
O194   O     0.22858   0.58089   0.25587   0.00000  Uiso   1.00
O195   O     0.09181   0.49293   0.31840   0.00000  Uiso   1.00
O196   O     0.19242   0.50241   0.32793   0.00000  Uiso   1.00
O197   O     0.10476   0.41911   0.24414   0.00000  Uiso   1.00
O198   O     0.20536   0.42859   0.25367   0.00000  Uiso   1.00
O199   O     0.14092   0.49759   0.17207   0.00000  Uiso   1.00
O200   O     0.24152   0.50707   0.18161   0.00000  Uiso   1.00
C201   C     0.51495   0.60006   0.25159   0.00000  Uiso   1.00
C202   C     0.44327   0.49763   0.40438   0.00000  Uiso   1.00
C203   C     0.52288   0.65592   0.25242   0.00000  Uiso   1.00
C204   C     0.46574   0.49854   0.34756   0.00000  Uiso   1.00
C205   C     0.47562   0.34424   0.24799   0.00000  Uiso   1.00
C206   C     0.48480   0.40002   0.24861   0.00000  Uiso   1.00
C207   C     0.53443   0.50427   0.15270   0.00000  Uiso   1.00
C208   C     0.62594   0.56420   0.02534   0.00000  Uiso   1.00
C209   C     0.55601   0.51390   0.09712   0.00000  Uiso   1.00
C210   C     0.38190   0.46836   0.42701   0.00000  Uiso   1.00
C211   C     0.36627   0.45815   0.47918   0.00000  Uiso   1.00
C212   C     0.47249   0.50221   0.48816   0.00000  Uiso   1.00
C213   C     0.41100   0.47300   0.00899   0.00000  Uiso   1.00
C214   C     0.48591   0.51994   0.43685   0.00000  Uiso   1.00
C215   C     0.52030   0.51574   0.01732   0.00000  Uiso   1.00
C216   C     0.57841   0.55045   0.49684   0.00000  Uiso   1.00
C217   C     0.58701   0.57341   0.44945   0.00000  Uiso   1.00
C218   C     0.54059   0.56036   0.42047   0.00000  Uiso   1.00
C219   C     0.51174   0.49612   0.06664   0.00000  Uiso   1.00
C220   C     0.61464   0.54674   0.07579   0.00000  Uiso   1.00
Cu221  Cu    0.44043   0.49439   0.24436   0.00000  Uiso   1.00
Cu222  Cu    0.55957   0.50561   0.25565   0.00000  Uiso   1.00
F223   F     0.41796   0.64865   0.24279   0.00000  Uiso   1.00
F224   F     0.34891   0.59665   0.00521   0.00000  Uiso   1.00
H225   H     0.33684   0.53900   0.28980   0.00000  Uiso   1.00
H226   H     0.35117   0.42103   0.37004   0.00000  Uiso   1.00
H227   H     0.65712   0.47802   0.38143   0.00000  Uiso   1.00
H228   H     0.59024   0.59379   0.35313   0.00000  Uiso   1.00
H229   H     0.54523   0.63092   0.39168   0.00000  Uiso   1.00
H230   H     0.66315   0.46097   0.21022   0.00000  Uiso   1.00
H231   H     0.62910   0.60329   0.43532   0.00000  Uiso   1.00
H232   H     0.46980   0.46780   0.08334   0.00000  Uiso   1.00
H233   H     0.39486   0.46242   0.04881   0.00000  Uiso   1.00
H234   H     0.65262   0.43647   0.49659   0.00000  Uiso   1.00
H235   H     0.56850   0.34633   0.25664   0.00000  Uiso   1.00
H236   H     0.33721   0.60566   0.10798   0.00000  Uiso   1.00
H237   H     0.36970   0.55345   0.08687   0.00000  Uiso   1.00
N238   N     0.64908   0.51407   0.26416   0.00000  Uiso   1.00
N239   N     0.35092   0.48593   0.23584   0.00000  Uiso   1.00
N240   N     0.66132   0.56460   0.10595   0.00000  Uiso   1.00
N241   N     0.33444   0.44723   0.39825   0.00000  Uiso   1.00
N242   N     0.54604   0.59265   0.37772   0.00000  Uiso   1.00
O243   O     0.46131   0.57141   0.24633   0.00000  Uiso   1.00
O244   O     0.56191   0.58089   0.25587   0.00000  Uiso   1.00
O245   O     0.42515   0.49293   0.31840   0.00000  Uiso   1.00
O246   O     0.52575   0.50241   0.32793   0.00000  Uiso   1.00
O247   O     0.43809   0.41911   0.24414   0.00000  Uiso   1.00
O248   O     0.53869   0.42859   0.25367   0.00000  Uiso   1.00
O249   O     0.47425   0.49759   0.17207   0.00000  Uiso   1.00
O250   O     0.57485   0.50707   0.18161   0.00000  Uiso   1.00
C251   C     0.84828   0.60006   0.25159   0.00000  Uiso   1.00
C252   C     0.77660   0.49763   0.40438   0.00000  Uiso   1.00
C253   C     0.85621   0.65592   0.25242   0.00000  Uiso   1.00
C254   C     0.79907   0.49854   0.34756   0.00000  Uiso   1.00
C255   C     0.80895   0.34424   0.24799   0.00000  Uiso   1.00
C256   C     0.81813   0.40002   0.24861   0.00000  Uiso   1.00
C257   C     0.86777   0.50427   0.15270   0.00000  Uiso   1.00
C258   C     0.95927   0.56420   0.02534   0.00000  Uiso   1.00
C259   C     0.88935   0.51390   0.09712   0.00000  Uiso   1.00
C260   C     0.71523   0.46836   0.42701   0.00000  Uiso   1.00
C261   C     0.69961   0.45815   0.47918   0.00000  Uiso   1.00
C262   C     0.80582   0.50221   0.48816   0.00000  Uiso   1.00
C263   C     0.74433   0.47300   0.00899   0.00000  Uiso   1.00
C264   C     0.81924   0.51994   0.43685   0.00000  Uiso   1.00
C265   C     0.85363   0.51574   0.01732   0.00000  Uiso   1.00
C266   C     0.91175   0.55045   0.49684   0.00000  Uiso   1.00
C267   C     0.92034   0.57341   0.44945   0.00000  Uiso   1.00
C268   C     0.87393   0.56036   0.42047   0.00000  Uiso   1.00
C269   C     0.84508   0.49612   0.06664   0.00000  Uiso   1.00
C270   C     0.94797   0.54674   0.07579   0.00000  Uiso   1.00
Cu271  Cu    0.77377   0.49439   0.24436   0.00000  Uiso   1.00
Cu272  Cu    0.89290   0.50561   0.25565   0.00000  Uiso   1.00
F273   F     0.75130   0.64865   0.24279   0.00000  Uiso   1.00
F274   F     0.68224   0.59665   0.00521   0.00000  Uiso   1.00
H275   H     0.67017   0.53900   0.28980   0.00000  Uiso   1.00
H276   H     0.68451   0.42103   0.37004   0.00000  Uiso   1.00
H277   H     0.99045   0.47802   0.38143   0.00000  Uiso   1.00
H278   H     0.92357   0.59379   0.35313   0.00000  Uiso   1.00
H279   H     0.87857   0.63092   0.39168   0.00000  Uiso   1.00
H280   H     0.99648   0.46097   0.21022   0.00000  Uiso   1.00
H281   H     0.96243   0.60329   0.43532   0.00000  Uiso   1.00
H282   H     0.80313   0.46780   0.08334   0.00000  Uiso   1.00
H283   H     0.72820   0.46242   0.04881   0.00000  Uiso   1.00
H284   H     0.98595   0.43647   0.49659   0.00000  Uiso   1.00
H285   H     0.90184   0.34633   0.25664   0.00000  Uiso   1.00
H286   H     0.67055   0.60566   0.10798   0.00000  Uiso   1.00
H287   H     0.70303   0.55345   0.08687   0.00000  Uiso   1.00
N288   N     0.98241   0.51407   0.26416   0.00000  Uiso   1.00
N289   N     0.68426   0.48593   0.23584   0.00000  Uiso   1.00
N290   N     0.99465   0.56460   0.10595   0.00000  Uiso   1.00
N291   N     0.66777   0.44723   0.39825   0.00000  Uiso   1.00
N292   N     0.87937   0.59265   0.37772   0.00000  Uiso   1.00
O293   O     0.79464   0.57141   0.24633   0.00000  Uiso   1.00
O294   O     0.89524   0.58089   0.25587   0.00000  Uiso   1.00
O295   O     0.75848   0.49293   0.31840   0.00000  Uiso   1.00
O296   O     0.85908   0.50241   0.32793   0.00000  Uiso   1.00
O297   O     0.77142   0.41911   0.24414   0.00000  Uiso   1.00
O298   O     0.87203   0.42859   0.25367   0.00000  Uiso   1.00
O299   O     0.80758   0.49759   0.17207   0.00000  Uiso   1.00
O300   O     0.90819   0.50707   0.18161   0.00000  Uiso   1.00
C301   C     0.18162   0.93339   0.25159   0.00000  Uiso   1.00
C302   C     0.10994   0.83096   0.40438   0.00000  Uiso   1.00
C303   C     0.18954   0.98925   0.25242   0.00000  Uiso   1.00
C304   C     0.13240   0.83187   0.34756   0.00000  Uiso   1.00
C305   C     0.14229   0.67758   0.24799   0.00000  Uiso   1.00
C306   C     0.15146   0.73335   0.24861   0.00000  Uiso   1.00
C307   C     0.20110   0.83760   0.15270   0.00000  Uiso   1.00
C308   C     0.29260   0.89753   0.02534   0.00000  Uiso   1.00
C309   C     0.22268   0.84723   0.09712   0.00000  Uiso   1.00
C310   C     0.04857   0.80169   0.42701   0.00000  Uiso   1.00
C311   C     0.03294   0.79148   0.47918   0.00000  Uiso   1.00
C312   C     0.13916   0.83554   0.48816   0.00000  Uiso   1.00
C313   C     0.07766   0.80633   0.00899   0.00000  Uiso   1.00
C314   C     0.15257   0.85327   0.43685   0.00000  Uiso   1.00
C315   C     0.18697   0.84907   0.01732   0.00000  Uiso   1.00
C316   C     0.24508   0.88379   0.49684   0.00000  Uiso   1.00
C317   C     0.25368   0.90674   0.44945   0.00000  Uiso   1.00
C318   C     0.20726   0.89369   0.42047   0.00000  Uiso   1.00
C319   C     0.17841   0.82945   0.06664   0.00000  Uiso   1.00
C320   C     0.28131   0.88007   0.07579   0.00000  Uiso   1.00
Cu321  Cu    0.10710   0.82772   0.24436   0.00000  Uiso   1.00
Cu322  Cu    0.22623   0.83895   0.25565   0.00000  Uiso   1.00
F323   F     0.08463   0.98198   0.24279   0.00000  Uiso   1.00
F324   F     0.01558   0.92998   0.00521   0.00000  Uiso   1.00
H325   H     0.00350   0.87233   0.28980   0.00000  Uiso   1.00
H326   H     0.01784   0.75436   0.37004   0.00000  Uiso   1.00
H327   H     0.32378   0.81135   0.38143   0.00000  Uiso   1.00
H328   H     0.25690   0.92712   0.35313   0.00000  Uiso   1.00
H329   H     0.21190   0.96425   0.39168   0.00000  Uiso   1.00
H330   H     0.32981   0.79431   0.21022   0.00000  Uiso   1.00
H331   H     0.29576   0.93662   0.43532   0.00000  Uiso   1.00
H332   H     0.13647   0.80113   0.08334   0.00000  Uiso   1.00
H333   H     0.06153   0.79576   0.04881   0.00000  Uiso   1.00
H334   H     0.31929   0.76981   0.49659   0.00000  Uiso   1.00
H335   H     0.23517   0.67966   0.25664   0.00000  Uiso   1.00
H336   H     0.00388   0.93899   0.10798   0.00000  Uiso   1.00
H337   H     0.03637   0.88678   0.08687   0.00000  Uiso   1.00
N338   N     0.31574   0.84741   0.26416   0.00000  Uiso   1.00
N339   N     0.01759   0.81926   0.23584   0.00000  Uiso   1.00
N340   N     0.32799   0.89794   0.10595   0.00000  Uiso   1.00
N341   N     0.00111   0.78056   0.39825   0.00000  Uiso   1.00
N342   N     0.21271   0.92599   0.37772   0.00000  Uiso   1.00
O343   O     0.12797   0.90474   0.24633   0.00000  Uiso   1.00
O344   O     0.22858   0.91422   0.25587   0.00000  Uiso   1.00
O345   O     0.09181   0.82627   0.31840   0.00000  Uiso   1.00
O346   O     0.19242   0.83575   0.32793   0.00000  Uiso   1.00
O347   O     0.10476   0.75245   0.24414   0.00000  Uiso   1.00
O348   O     0.20536   0.76193   0.25367   0.00000  Uiso   1.00
O349   O     0.14092   0.83092   0.17207   0.00000  Uiso   1.00
O350   O     0.24152   0.84040   0.18161   0.00000  Uiso   1.00
C351   C     0.51495   0.93339   0.25159   0.00000  Uiso   1.00
C352   C     0.44327   0.83096   0.40438   0.00000  Uiso   1.00
C353   C     0.52288   0.98925   0.25242   0.00000  Uiso   1.00
C354   C     0.46574   0.83187   0.34756   0.00000  Uiso   1.00
C355   C     0.47562   0.67758   0.24799   0.00000  Uiso   1.00
C356   C     0.48480   0.73335   0.24861   0.00000  Uiso   1.00
C357   C     0.53443   0.83760   0.15270   0.00000  Uiso   1.00
C358   C     0.62594   0.89753   0.02534   0.00000  Uiso   1.00
C359   C     0.55601   0.84723   0.09712   0.00000  Uiso   1.00
C360   C     0.38190   0.80169   0.42701   0.00000  Uiso   1.00
C361   C     0.36627   0.79148   0.47918   0.00000  Uiso   1.00
C362   C     0.47249   0.83554   0.48816   0.00000  Uiso   1.00
C363   C     0.41100   0.80633   0.00899   0.00000  Uiso   1.00
C364   C     0.48591   0.85327   0.43685   0.00000  Uiso   1.00
C365   C     0.52030   0.84907   0.01732   0.00000  Uiso   1.00
C366   C     0.57841   0.88379   0.49684   0.00000  Uiso   1.00
C367   C     0.58701   0.90674   0.44945   0.00000  Uiso   1.00
C368   C     0.54059   0.89369   0.42047   0.00000  Uiso   1.00
C369   C     0.51174   0.82945   0.06664   0.00000  Uiso   1.00
C370   C     0.61464   0.88007   0.07579   0.00000  Uiso   1.00
Cu371  Cu    0.44043   0.82772   0.24436   0.00000  Uiso   1.00
Cu372  Cu    0.55957   0.83895   0.25565   0.00000  Uiso   1.00
F373   F     0.41796   0.98198   0.24279   0.00000  Uiso   1.00
F374   F     0.34891   0.92998   0.00521   0.00000  Uiso   1.00
H375   H     0.33684   0.87233   0.28980   0.00000  Uiso   1.00
H376   H     0.35117   0.75436   0.37004   0.00000  Uiso   1.00
H377   H     0.65712   0.81135   0.38143   0.00000  Uiso   1.00
H378   H     0.59024   0.92712   0.35313   0.00000  Uiso   1.00
H379   H     0.54523   0.96425   0.39168   0.00000  Uiso   1.00
H380   H     0.66315   0.79431   0.21022   0.00000  Uiso   1.00
H381   H     0.62910   0.93662   0.43532   0.00000  Uiso   1.00
H382   H     0.46980   0.80113   0.08334   0.00000  Uiso   1.00
H383   H     0.39486   0.79576   0.04881   0.00000  Uiso   1.00
H384   H     0.65262   0.76981   0.49659   0.00000  Uiso   1.00
H385   H     0.56850   0.67966   0.25664   0.00000  Uiso   1.00
H386   H     0.33721   0.93899   0.10798   0.00000  Uiso   1.00
H387   H     0.36970   0.88678   0.08687   0.00000  Uiso   1.00
N388   N     0.64908   0.84741   0.26416   0.00000  Uiso   1.00
N389   N     0.35092   0.81926   0.23584   0.00000  Uiso   1.00
N390   N     0.66132   0.89794   0.10595   0.00000  Uiso   1.00
N391   N     0.33444   0.78056   0.39825   0.00000  Uiso   1.00
N392   N     0.54604   0.92599   0.37772   0.00000  Uiso   1.00
O393   O     0.46131   0.90474   0.24633   0.00000  Uiso   1.00
O394   O     0.56191   0.91422   0.25587   0.00000  Uiso   1.00
O395   O     0.42515   0.82627   0.31840   0.00000  Uiso   1.00
O396   O     0.52575   0.83575   0.32793   0.00000  Uiso   1.00
O397   O     0.43809   0.75245   0.24414   0.00000  Uiso   1.00
O398   O     0.53869   0.76193   0.25367   0.00000  Uiso   1.00
O399   O     0.47425   0.83092   0.17207   0.00000  Uiso   1.00
O400   O     0.57485   0.84040   0.18161   0.00000  Uiso   1.00
C401   C     0.84828   0.93339   0.25159   0.00000  Uiso   1.00
C402   C     0.77660   0.83096   0.40438   0.00000  Uiso   1.00
C403   C     0.85621   0.98925   0.25242   0.00000  Uiso   1.00
C404   C     0.79907   0.83187   0.34756   0.00000  Uiso   1.00
C405   C     0.80895   0.67758   0.24799   0.00000  Uiso   1.00
C406   C     0.81813   0.73335   0.24861   0.00000  Uiso   1.00
C407   C     0.86777   0.83760   0.15270   0.00000  Uiso   1.00
C408   C     0.95927   0.89753   0.02534   0.00000  Uiso   1.00
C409   C     0.88935   0.84723   0.09712   0.00000  Uiso   1.00
C410   C     0.71523   0.80169   0.42701   0.00000  Uiso   1.00
C411   C     0.69961   0.79148   0.47918   0.00000  Uiso   1.00
C412   C     0.80582   0.83554   0.48816   0.00000  Uiso   1.00
C413   C     0.74433   0.80633   0.00899   0.00000  Uiso   1.00
C414   C     0.81924   0.85327   0.43685   0.00000  Uiso   1.00
C415   C     0.85363   0.84907   0.01732   0.00000  Uiso   1.00
C416   C     0.91175   0.88379   0.49684   0.00000  Uiso   1.00
C417   C     0.92034   0.90674   0.44945   0.00000  Uiso   1.00
C418   C     0.87393   0.89369   0.42047   0.00000  Uiso   1.00
C419   C     0.84508   0.82945   0.06664   0.00000  Uiso   1.00
C420   C     0.94797   0.88007   0.07579   0.00000  Uiso   1.00
Cu421  Cu    0.77377   0.82772   0.24436   0.00000  Uiso   1.00
Cu422  Cu    0.89290   0.83895   0.25565   0.00000  Uiso   1.00
F423   F     0.75130   0.98198   0.24279   0.00000  Uiso   1.00
F424   F     0.68224   0.92998   0.00521   0.00000  Uiso   1.00
H425   H     0.67017   0.87233   0.28980   0.00000  Uiso   1.00
H426   H     0.68451   0.75436   0.37004   0.00000  Uiso   1.00
H427   H     0.99045   0.81135   0.38143   0.00000  Uiso   1.00
H428   H     0.92357   0.92712   0.35313   0.00000  Uiso   1.00
H429   H     0.87857   0.96425   0.39168   0.00000  Uiso   1.00
H430   H     0.99648   0.79431   0.21022   0.00000  Uiso   1.00
H431   H     0.96243   0.93662   0.43532   0.00000  Uiso   1.00
H432   H     0.80313   0.80113   0.08334   0.00000  Uiso   1.00
H433   H     0.72820   0.79576   0.04881   0.00000  Uiso   1.00
H434   H     0.98595   0.76981   0.49659   0.00000  Uiso   1.00
H435   H     0.90184   0.67966   0.25664   0.00000  Uiso   1.00
H436   H     0.67055   0.93899   0.10798   0.00000  Uiso   1.00
H437   H     0.70303   0.88678   0.08687   0.00000  Uiso   1.00
N438   N     0.98241   0.84741   0.26416   0.00000  Uiso   1.00
N439   N     0.68426   0.81926   0.23584   0.00000  Uiso   1.00
N440   N     0.99465   0.89794   0.10595   0.00000  Uiso   1.00
N441   N     0.66777   0.78056   0.39825   0.00000  Uiso   1.00
N442   N     0.87937   0.92599   0.37772   0.00000  Uiso   1.00
O443   O     0.79464   0.90474   0.24633   0.00000  Uiso   1.00
O444   O     0.89524   0.91422   0.25587   0.00000  Uiso   1.00
O445   O     0.75848   0.82627   0.31840   0.00000  Uiso   1.00
O446   O     0.85908   0.83575   0.32793   0.00000  Uiso   1.00
O447   O     0.77142   0.75245   0.24414   0.00000  Uiso   1.00
O448   O     0.87203   0.76193   0.25367   0.00000  Uiso   1.00
O449   O     0.80758   0.83092   0.17207   0.00000  Uiso   1.00
O450   O     0.90819   0.84040   0.18161   0.00000  Uiso   1.00
C451   C     0.18162   0.26672   0.75159   0.00000  Uiso   1.00
C452   C     0.10994   0.16430   0.90438   0.00000  Uiso   1.00
C453   C     0.18954   0.32259   0.75242   0.00000  Uiso   1.00
C454   C     0.13240   0.16520   0.84756   0.00000  Uiso   1.00
C455   C     0.14229   0.01091   0.74799   0.00000  Uiso   1.00
C456   C     0.15146   0.06668   0.74861   0.00000  Uiso   1.00
C457   C     0.20110   0.17094   0.65270   0.00000  Uiso   1.00
C458   C     0.29260   0.23087   0.52534   0.00000  Uiso   1.00
C459   C     0.22268   0.18057   0.59712   0.00000  Uiso   1.00
C460   C     0.04857   0.13502   0.92701   0.00000  Uiso   1.00
C461   C     0.03294   0.12481   0.97918   0.00000  Uiso   1.00
C462   C     0.13916   0.16887   0.98816   0.00000  Uiso   1.00
C463   C     0.07766   0.13966   0.50899   0.00000  Uiso   1.00
C464   C     0.15257   0.18661   0.93685   0.00000  Uiso   1.00
C465   C     0.18697   0.18241   0.51732   0.00000  Uiso   1.00
C466   C     0.24508   0.21712   0.99684   0.00000  Uiso   1.00
C467   C     0.25368   0.24008   0.94945   0.00000  Uiso   1.00
C468   C     0.20726   0.22702   0.92047   0.00000  Uiso   1.00
C469   C     0.17841   0.16278   0.56664   0.00000  Uiso   1.00
C470   C     0.28131   0.21340   0.57579   0.00000  Uiso   1.00
Cu471  Cu    0.10710   0.16105   0.74436   0.00000  Uiso   1.00
Cu472  Cu    0.22623   0.17228   0.75565   0.00000  Uiso   1.00
F473   F     0.08463   0.31531   0.74279   0.00000  Uiso   1.00
F474   F     0.01558   0.26331   0.50521   0.00000  Uiso   1.00
H475   H     0.00350   0.20566   0.78980   0.00000  Uiso   1.00
H476   H     0.01784   0.08770   0.87004   0.00000  Uiso   1.00
H477   H     0.32378   0.14468   0.88143   0.00000  Uiso   1.00
H478   H     0.25690   0.26046   0.85313   0.00000  Uiso   1.00
H479   H     0.21190   0.29759   0.89168   0.00000  Uiso   1.00
H480   H     0.32981   0.12764   0.71022   0.00000  Uiso   1.00
H481   H     0.29576   0.26995   0.93532   0.00000  Uiso   1.00
H482   H     0.13647   0.13446   0.58334   0.00000  Uiso   1.00
H483   H     0.06153   0.12909   0.54881   0.00000  Uiso   1.00
H484   H     0.31929   0.10314   0.99659   0.00000  Uiso   1.00
H485   H     0.23517   0.01300   0.75664   0.00000  Uiso   1.00
H486   H     0.00388   0.27233   0.60798   0.00000  Uiso   1.00
H487   H     0.03637   0.22012   0.58687   0.00000  Uiso   1.00
N488   N     0.31574   0.18074   0.76416   0.00000  Uiso   1.00
N489   N     0.01759   0.15259   0.73584   0.00000  Uiso   1.00
N490   N     0.32799   0.23127   0.60595   0.00000  Uiso   1.00
N491   N     0.00111   0.11389   0.89825   0.00000  Uiso   1.00
N492   N     0.21271   0.25932   0.87772   0.00000  Uiso   1.00
O493   O     0.12797   0.23807   0.74633   0.00000  Uiso   1.00
O494   O     0.22858   0.24755   0.75587   0.00000  Uiso   1.00
O495   O     0.09181   0.15960   0.81840   0.00000  Uiso   1.00
O496   O     0.19242   0.16908   0.82793   0.00000  Uiso   1.00
O497   O     0.10476   0.08578   0.74414   0.00000  Uiso   1.00
O498   O     0.20536   0.09526   0.75367   0.00000  Uiso   1.00
O499   O     0.14092   0.16425   0.67207   0.00000  Uiso   1.00
O500   O     0.24152   0.17373   0.68161   0.00000  Uiso   1.00
C501   C     0.51495   0.26672   0.75159   0.00000  Uiso   1.00
C502   C     0.44327   0.16430   0.90438   0.00000  Uiso   1.00
C503   C     0.52288   0.32259   0.75242   0.00000  Uiso   1.00
C504   C     0.46574   0.16520   0.84756   0.00000  Uiso   1.00
C505   C     0.47562   0.01091   0.74799   0.00000  Uiso   1.00
C506   C     0.48480   0.06668   0.74861   0.00000  Uiso   1.00
C507   C     0.53443   0.17094   0.65270   0.00000  Uiso   1.00
C508   C     0.62594   0.23087   0.52534   0.00000  Uiso   1.00
C509   C     0.55601   0.18057   0.59712   0.00000  Uiso   1.00
C510   C     0.38190   0.13502   0.92701   0.00000  Uiso   1.00
C511   C     0.36627   0.12481   0.97918   0.00000  Uiso   1.00
C512   C     0.47249   0.16887   0.98816   0.00000  Uiso   1.00
C513   C     0.41100   0.13966   0.50899   0.00000  Uiso   1.00
C514   C     0.48591   0.18661   0.93685   0.00000  Uiso   1.00
C515   C     0.52030   0.18241   0.51732   0.00000  Uiso   1.00
C516   C     0.57841   0.21712   0.99684   0.00000  Uiso   1.00
C517   C     0.58701   0.24008   0.94945   0.00000  Uiso   1.00
C518   C     0.54059   0.22702   0.92047   0.00000  Uiso   1.00
C519   C     0.51174   0.16278   0.56664   0.00000  Uiso   1.00
C520   C     0.61464   0.21340   0.57579   0.00000  Uiso   1.00
Cu521  Cu    0.44043   0.16105   0.74436   0.00000  Uiso   1.00
Cu522  Cu    0.55957   0.17228   0.75565   0.00000  Uiso   1.00
F523   F     0.41796   0.31531   0.74279   0.00000  Uiso   1.00
F524   F     0.34891   0.26331   0.50521   0.00000  Uiso   1.00
H525   H     0.33684   0.20566   0.78980   0.00000  Uiso   1.00
H526   H     0.35117   0.08770   0.87004   0.00000  Uiso   1.00
H527   H     0.65712   0.14468   0.88143   0.00000  Uiso   1.00
H528   H     0.59024   0.26046   0.85313   0.00000  Uiso   1.00
H529   H     0.54523   0.29759   0.89168   0.00000  Uiso   1.00
H530   H     0.66315   0.12764   0.71022   0.00000  Uiso   1.00
H531   H     0.62910   0.26995   0.93532   0.00000  Uiso   1.00
H532   H     0.46980   0.13446   0.58334   0.00000  Uiso   1.00
H533   H     0.39486   0.12909   0.54881   0.00000  Uiso   1.00
H534   H     0.65262   0.10314   0.99659   0.00000  Uiso   1.00
H535   H     0.56850   0.01300   0.75664   0.00000  Uiso   1.00
H536   H     0.33721   0.27233   0.60798   0.00000  Uiso   1.00
H537   H     0.36970   0.22012   0.58687   0.00000  Uiso   1.00
N538   N     0.64908   0.18074   0.76416   0.00000  Uiso   1.00
N539   N     0.35092   0.15259   0.73584   0.00000  Uiso   1.00
N540   N     0.66132   0.23127   0.60595   0.00000  Uiso   1.00
N541   N     0.33444   0.11389   0.89825   0.00000  Uiso   1.00
N542   N     0.54604   0.25932   0.87772   0.00000  Uiso   1.00
O543   O     0.46131   0.23807   0.74633   0.00000  Uiso   1.00
O544   O     0.56191   0.24755   0.75587   0.00000  Uiso   1.00
O545   O     0.42515   0.15960   0.81840   0.00000  Uiso   1.00
O546   O     0.52575   0.16908   0.82793   0.00000  Uiso   1.00
O547   O     0.43809   0.08578   0.74414   0.00000  Uiso   1.00
O548   O     0.53869   0.09526   0.75367   0.00000  Uiso   1.00
O549   O     0.47425   0.16425   0.67207   0.00000  Uiso   1.00
O550   O     0.57485   0.17373   0.68161   0.00000  Uiso   1.00
C551   C     0.84828   0.26672   0.75159   0.00000  Uiso   1.00
C552   C     0.77660   0.16430   0.90438   0.00000  Uiso   1.00
C553   C     0.85621   0.32259   0.75242   0.00000  Uiso   1.00
C554   C     0.79907   0.16520   0.84756   0.00000  Uiso   1.00
C555   C     0.80895   0.01091   0.74799   0.00000  Uiso   1.00
C556   C     0.81813   0.06668   0.74861   0.00000  Uiso   1.00
C557   C     0.86777   0.17094   0.65270   0.00000  Uiso   1.00
C558   C     0.95927   0.23087   0.52534   0.00000  Uiso   1.00
C559   C     0.88935   0.18057   0.59712   0.00000  Uiso   1.00
C560   C     0.71523   0.13502   0.92701   0.00000  Uiso   1.00
C561   C     0.69961   0.12481   0.97918   0.00000  Uiso   1.00
C562   C     0.80582   0.16887   0.98816   0.00000  Uiso   1.00
C563   C     0.74433   0.13966   0.50899   0.00000  Uiso   1.00
C564   C     0.81924   0.18661   0.93685   0.00000  Uiso   1.00
C565   C     0.85363   0.18241   0.51732   0.00000  Uiso   1.00
C566   C     0.91175   0.21712   0.99684   0.00000  Uiso   1.00
C567   C     0.92034   0.24008   0.94945   0.00000  Uiso   1.00
C568   C     0.87393   0.22702   0.92047   0.00000  Uiso   1.00
C569   C     0.84508   0.16278   0.56664   0.00000  Uiso   1.00
C570   C     0.94797   0.21340   0.57579   0.00000  Uiso   1.00
Cu571  Cu    0.77377   0.16105   0.74436   0.00000  Uiso   1.00
Cu572  Cu    0.89290   0.17228   0.75565   0.00000  Uiso   1.00
F573   F     0.75130   0.31531   0.74279   0.00000  Uiso   1.00
F574   F     0.68224   0.26331   0.50521   0.00000  Uiso   1.00
H575   H     0.67017   0.20566   0.78980   0.00000  Uiso   1.00
H576   H     0.68451   0.08770   0.87004   0.00000  Uiso   1.00
H577   H     0.99045   0.14468   0.88143   0.00000  Uiso   1.00
H578   H     0.92357   0.26046   0.85313   0.00000  Uiso   1.00
H579   H     0.87857   0.29759   0.89168   0.00000  Uiso   1.00
H580   H     0.99648   0.12764   0.71022   0.00000  Uiso   1.00
H581   H     0.96243   0.26995   0.93532   0.00000  Uiso   1.00
H582   H     0.80313   0.13446   0.58334   0.00000  Uiso   1.00
H583   H     0.72820   0.12909   0.54881   0.00000  Uiso   1.00
H584   H     0.98595   0.10314   0.99659   0.00000  Uiso   1.00
H585   H     0.90184   0.01300   0.75664   0.00000  Uiso   1.00
H586   H     0.67055   0.27233   0.60798   0.00000  Uiso   1.00
H587   H     0.70303   0.22012   0.58687   0.00000  Uiso   1.00
N588   N     0.98241   0.18074   0.76416   0.00000  Uiso   1.00
N589   N     0.68426   0.15259   0.73584   0.00000  Uiso   1.00
N590   N     0.99465   0.23127   0.60595   0.00000  Uiso   1.00
N591   N     0.66777   0.11389   0.89825   0.00000  Uiso   1.00
N592   N     0.87937   0.25932   0.87772   0.00000  Uiso   1.00
O593   O     0.79464   0.23807   0.74633   0.00000  Uiso   1.00
O594   O     0.89524   0.24755   0.75587   0.00000  Uiso   1.00
O595   O     0.75848   0.15960   0.81840   0.00000  Uiso   1.00
O596   O     0.85908   0.16908   0.82793   0.00000  Uiso   1.00
O597   O     0.77142   0.08578   0.74414   0.00000  Uiso   1.00
O598   O     0.87203   0.09526   0.75367   0.00000  Uiso   1.00
O599   O     0.80758   0.16425   0.67207   0.00000  Uiso   1.00
O600   O     0.90819   0.17373   0.68161   0.00000  Uiso   1.00
C601   C     0.18162   0.60006   0.75159   0.00000  Uiso   1.00
C602   C     0.10994   0.49763   0.90438   0.00000  Uiso   1.00
C603   C     0.18954   0.65592   0.75242   0.00000  Uiso   1.00
C604   C     0.13240   0.49854   0.84756   0.00000  Uiso   1.00
C605   C     0.14229   0.34424   0.74799   0.00000  Uiso   1.00
C606   C     0.15146   0.40002   0.74861   0.00000  Uiso   1.00
C607   C     0.20110   0.50427   0.65270   0.00000  Uiso   1.00
C608   C     0.29260   0.56420   0.52534   0.00000  Uiso   1.00
C609   C     0.22268   0.51390   0.59712   0.00000  Uiso   1.00
C610   C     0.04857   0.46836   0.92701   0.00000  Uiso   1.00
C611   C     0.03294   0.45815   0.97918   0.00000  Uiso   1.00
C612   C     0.13916   0.50221   0.98816   0.00000  Uiso   1.00
C613   C     0.07766   0.47300   0.50899   0.00000  Uiso   1.00
C614   C     0.15257   0.51994   0.93685   0.00000  Uiso   1.00
C615   C     0.18697   0.51574   0.51732   0.00000  Uiso   1.00
C616   C     0.24508   0.55045   0.99684   0.00000  Uiso   1.00
C617   C     0.25368   0.57341   0.94945   0.00000  Uiso   1.00
C618   C     0.20726   0.56036   0.92047   0.00000  Uiso   1.00
C619   C     0.17841   0.49612   0.56664   0.00000  Uiso   1.00
C620   C     0.28131   0.54674   0.57579   0.00000  Uiso   1.00
Cu621  Cu    0.10710   0.49439   0.74436   0.00000  Uiso   1.00
Cu622  Cu    0.22623   0.50561   0.75565   0.00000  Uiso   1.00
F623   F     0.08463   0.64865   0.74279   0.00000  Uiso   1.00
F624   F     0.01558   0.59665   0.50521   0.00000  Uiso   1.00
H625   H     0.00350   0.53900   0.78980   0.00000  Uiso   1.00
H626   H     0.01784   0.42103   0.87004   0.00000  Uiso   1.00
H627   H     0.32378   0.47802   0.88143   0.00000  Uiso   1.00
H628   H     0.25690   0.59379   0.85313   0.00000  Uiso   1.00
H629   H     0.21190   0.63092   0.89168   0.00000  Uiso   1.00
H630   H     0.32981   0.46097   0.71022   0.00000  Uiso   1.00
H631   H     0.29576   0.60329   0.93532   0.00000  Uiso   1.00
H632   H     0.13647   0.46780   0.58334   0.00000  Uiso   1.00
H633   H     0.06153   0.46242   0.54881   0.00000  Uiso   1.00
H634   H     0.31929   0.43647   0.99659   0.00000  Uiso   1.00
H635   H     0.23517   0.34633   0.75664   0.00000  Uiso   1.00
H636   H     0.00388   0.60566   0.60798   0.00000  Uiso   1.00
H637   H     0.03637   0.55345   0.58687   0.00000  Uiso   1.00
N638   N     0.31574   0.51407   0.76416   0.00000  Uiso   1.00
N639   N     0.01759   0.48593   0.73584   0.00000  Uiso   1.00
N640   N     0.32799   0.56460   0.60595   0.00000  Uiso   1.00
N641   N     0.00111   0.44723   0.89825   0.00000  Uiso   1.00
N642   N     0.21271   0.59265   0.87772   0.00000  Uiso   1.00
O643   O     0.12797   0.57141   0.74633   0.00000  Uiso   1.00
O644   O     0.22858   0.58089   0.75587   0.00000  Uiso   1.00
O645   O     0.09181   0.49293   0.81840   0.00000  Uiso   1.00
O646   O     0.19242   0.50241   0.82793   0.00000  Uiso   1.00
O647   O     0.10476   0.41911   0.74414   0.00000  Uiso   1.00
O648   O     0.20536   0.42859   0.75367   0.00000  Uiso   1.00
O649   O     0.14092   0.49759   0.67207   0.00000  Uiso   1.00
O650   O     0.24152   0.50707   0.68161   0.00000  Uiso   1.00
C651   C     0.51495   0.60006   0.75159   0.00000  Uiso   1.00
C652   C     0.44327   0.49763   0.90438   0.00000  Uiso   1.00
C653   C     0.52288   0.65592   0.75242   0.00000  Uiso   1.00
C654   C     0.46574   0.49854   0.84756   0.00000  Uiso   1.00
C655   C     0.47562   0.34424   0.74799   0.00000  Uiso   1.00
C656   C     0.48480   0.40002   0.74861   0.00000  Uiso   1.00
C657   C     0.53443   0.50427   0.65270   0.00000  Uiso   1.00
C658   C     0.62594   0.56420   0.52534   0.00000  Uiso   1.00
C659   C     0.55601   0.51390   0.59712   0.00000  Uiso   1.00
C660   C     0.38190   0.46836   0.92701   0.00000  Uiso   1.00
C661   C     0.36627   0.45815   0.97918   0.00000  Uiso   1.00
C662   C     0.47249   0.50221   0.98816   0.00000  Uiso   1.00
C663   C     0.41100   0.47300   0.50899   0.00000  Uiso   1.00
C664   C     0.48591   0.51994   0.93685   0.00000  Uiso   1.00
C665   C     0.52030   0.51574   0.51732   0.00000  Uiso   1.00
C666   C     0.57841   0.55045   0.99684   0.00000  Uiso   1.00
C667   C     0.58701   0.57341   0.94945   0.00000  Uiso   1.00
C668   C     0.54059   0.56036   0.92047   0.00000  Uiso   1.00
C669   C     0.51174   0.49612   0.56664   0.00000  Uiso   1.00
C670   C     0.61464   0.54674   0.57579   0.00000  Uiso   1.00
Cu671  Cu    0.44043   0.49439   0.74436   0.00000  Uiso   1.00
Cu672  Cu    0.55957   0.50561   0.75565   0.00000  Uiso   1.00
F673   F     0.41796   0.64865   0.74279   0.00000  Uiso   1.00
F674   F     0.34891   0.59665   0.50521   0.00000  Uiso   1.00
H675   H     0.33684   0.53900   0.78980   0.00000  Uiso   1.00
H676   H     0.35117   0.42103   0.87004   0.00000  Uiso   1.00
H677   H     0.65712   0.47802   0.88143   0.00000  Uiso   1.00
H678   H     0.59024   0.59379   0.85313   0.00000  Uiso   1.00
H679   H     0.54523   0.63092   0.89168   0.00000  Uiso   1.00
H680   H     0.66315   0.46097   0.71022   0.00000  Uiso   1.00
H681   H     0.62910   0.60329   0.93532   0.00000  Uiso   1.00
H682   H     0.46980   0.46780   0.58334   0.00000  Uiso   1.00
H683   H     0.39486   0.46242   0.54881   0.00000  Uiso   1.00
H684   H     0.65262   0.43647   0.99659   0.00000  Uiso   1.00
H685   H     0.56850   0.34633   0.75664   0.00000  Uiso   1.00
H686   H     0.33721   0.60566   0.60798   0.00000  Uiso   1.00
H687   H     0.36970   0.55345   0.58687   0.00000  Uiso   1.00
N688   N     0.64908   0.51407   0.76416   0.00000  Uiso   1.00
N689   N     0.35092   0.48593   0.73584   0.00000  Uiso   1.00
N690   N     0.66132   0.56460   0.60595   0.00000  Uiso   1.00
N691   N     0.33444   0.44723   0.89825   0.00000  Uiso   1.00
N692   N     0.54604   0.59265   0.87772   0.00000  Uiso   1.00
O693   O     0.46131   0.57141   0.74633   0.00000  Uiso   1.00
O694   O     0.56191   0.58089   0.75587   0.00000  Uiso   1.00
O695   O     0.42515   0.49293   0.81840   0.00000  Uiso   1.00
O696   O     0.52575   0.50241   0.82793   0.00000  Uiso   1.00
O697   O     0.43809   0.41911   0.74414   0.00000  Uiso   1.00
O698   O     0.53869   0.42859   0.75367   0.00000  Uiso   1.00
O699   O     0.47425   0.49759   0.67207   0.00000  Uiso   1.00
O700   O     0.57485   0.50707   0.68161   0.00000  Uiso   1.00
C701   C     0.84828   0.60006   0.75159   0.00000  Uiso   1.00
C702   C     0.77660   0.49763   0.90438   0.00000  Uiso   1.00
C703   C     0.85621   0.65592   0.75242   0.00000  Uiso   1.00
C704   C     0.79907   0.49854   0.84756   0.00000  Uiso   1.00
C705   C     0.80895   0.34424   0.74799   0.00000  Uiso   1.00
C706   C     0.81813   0.40002   0.74861   0.00000  Uiso   1.00
C707   C     0.86777   0.50427   0.65270   0.00000  Uiso   1.00
C708   C     0.95927   0.56420   0.52534   0.00000  Uiso   1.00
C709   C     0.88935   0.51390   0.59712   0.00000  Uiso   1.00
C710   C     0.71523   0.46836   0.92701   0.00000  Uiso   1.00
C711   C     0.69961   0.45815   0.97918   0.00000  Uiso   1.00
C712   C     0.80582   0.50221   0.98816   0.00000  Uiso   1.00
C713   C     0.74433   0.47300   0.50899   0.00000  Uiso   1.00
C714   C     0.81924   0.51994   0.93685   0.00000  Uiso   1.00
C715   C     0.85363   0.51574   0.51732   0.00000  Uiso   1.00
C716   C     0.91175   0.55045   0.99684   0.00000  Uiso   1.00
C717   C     0.92034   0.57341   0.94945   0.00000  Uiso   1.00
C718   C     0.87393   0.56036   0.92047   0.00000  Uiso   1.00
C719   C     0.84508   0.49612   0.56664   0.00000  Uiso   1.00
C720   C     0.94797   0.54674   0.57579   0.00000  Uiso   1.00
Cu721  Cu    0.77377   0.49439   0.74436   0.00000  Uiso   1.00
Cu722  Cu    0.89290   0.50561   0.75565   0.00000  Uiso   1.00
F723   F     0.75130   0.64865   0.74279   0.00000  Uiso   1.00
F724   F     0.68224   0.59665   0.50521   0.00000  Uiso   1.00
H725   H     0.67017   0.53900   0.78980   0.00000  Uiso   1.00
H726   H     0.68451   0.42103   0.87004   0.00000  Uiso   1.00
H727   H     0.99045   0.47802   0.88143   0.00000  Uiso   1.00
H728   H     0.92357   0.59379   0.85313   0.00000  Uiso   1.00
H729   H     0.87857   0.63092   0.89168   0.00000  Uiso   1.00
H730   H     0.99648   0.46097   0.71022   0.00000  Uiso   1.00
H731   H     0.96243   0.60329   0.93532   0.00000  Uiso   1.00
H732   H     0.80313   0.46780   0.58334   0.00000  Uiso   1.00
H733   H     0.72820   0.46242   0.54881   0.00000  Uiso   1.00
H734   H     0.98595   0.43647   0.99659   0.00000  Uiso   1.00
H735   H     0.90184   0.34633   0.75664   0.00000  Uiso   1.00
H736   H     0.67055   0.60566   0.60798   0.00000  Uiso   1.00
H737   H     0.70303   0.55345   0.58687   0.00000  Uiso   1.00
N738   N     0.98241   0.51407   0.76416   0.00000  Uiso   1.00
N739   N     0.68426   0.48593   0.73584   0.00000  Uiso   1.00
N740   N     0.99465   0.56460   0.60595   0.00000  Uiso   1.00
N741   N     0.66777   0.44723   0.89825   0.00000  Uiso   1.00
N742   N     0.87937   0.59265   0.87772   0.00000  Uiso   1.00
O743   O     0.79464   0.57141   0.74633   0.00000  Uiso   1.00
O744   O     0.89524   0.58089   0.75587   0.00000  Uiso   1.00
O745   O     0.75848   0.49293   0.81840   0.00000  Uiso   1.00
O746   O     0.85908   0.50241   0.82793   0.00000  Uiso   1.00
O747   O     0.77142   0.41911   0.74414   0.00000  Uiso   1.00
O748   O     0.87203   0.42859   0.75367   0.00000  Uiso   1.00
O749   O     0.80758   0.49759   0.67207   0.00000  Uiso   1.00
O750   O     0.90819   0.50707   0.68161   0.00000  Uiso   1.00
C751   C     0.18162   0.93339   0.75159   0.00000  Uiso   1.00
C752   C     0.10994   0.83096   0.90438   0.00000  Uiso   1.00
C753   C     0.18954   0.98925   0.75242   0.00000  Uiso   1.00
C754   C     0.13240   0.83187   0.84756   0.00000  Uiso   1.00
C755   C     0.14229   0.67758   0.74799   0.00000  Uiso   1.00
C756   C     0.15146   0.73335   0.74861   0.00000  Uiso   1.00
C757   C     0.20110   0.83760   0.65270   0.00000  Uiso   1.00
C758   C     0.29260   0.89753   0.52534   0.00000  Uiso   1.00
C759   C     0.22268   0.84723   0.59712   0.00000  Uiso   1.00
C760   C     0.04857   0.80169   0.92701   0.00000  Uiso   1.00
C761   C     0.03294   0.79148   0.97918   0.00000  Uiso   1.00
C762   C     0.13916   0.83554   0.98816   0.00000  Uiso   1.00
C763   C     0.07766   0.80633   0.50899   0.00000  Uiso   1.00
C764   C     0.15257   0.85327   0.93685   0.00000  Uiso   1.00
C765   C     0.18697   0.84907   0.51732   0.00000  Uiso   1.00
C766   C     0.24508   0.88379   0.99684   0.00000  Uiso   1.00
C767   C     0.25368   0.90674   0.94945   0.00000  Uiso   1.00
C768   C     0.20726   0.89369   0.92047   0.00000  Uiso   1.00
C769   C     0.17841   0.82945   0.56664   0.00000  Uiso   1.00
C770   C     0.28131   0.88007   0.57579   0.00000  Uiso   1.00
Cu771  Cu    0.10710   0.82772   0.74436   0.00000  Uiso   1.00
Cu772  Cu    0.22623   0.83895   0.75565   0.00000  Uiso   1.00
F773   F     0.08463   0.98198   0.74279   0.00000  Uiso   1.00
F774   F     0.01558   0.92998   0.50521   0.00000  Uiso   1.00
H775   H     0.00350   0.87233   0.78980   0.00000  Uiso   1.00
H776   H     0.01784   0.75436   0.87004   0.00000  Uiso   1.00
H777   H     0.32378   0.81135   0.88143   0.00000  Uiso   1.00
H778   H     0.25690   0.92712   0.85313   0.00000  Uiso   1.00
H779   H     0.21190   0.96425   0.89168   0.00000  Uiso   1.00
H780   H     0.32981   0.79431   0.71022   0.00000  Uiso   1.00
H781   H     0.29576   0.93662   0.93532   0.00000  Uiso   1.00
H782   H     0.13647   0.80113   0.58334   0.00000  Uiso   1.00
H783   H     0.06153   0.79576   0.54881   0.00000  Uiso   1.00
H784   H     0.31929   0.76981   0.99659   0.00000  Uiso   1.00
H785   H     0.23517   0.67966   0.75664   0.00000  Uiso   1.00
H786   H     0.00388   0.93899   0.60798   0.00000  Uiso   1.00
H787   H     0.03637   0.88678   0.58687   0.00000  Uiso   1.00
N788   N     0.31574   0.84741   0.76416   0.00000  Uiso   1.00
N789   N     0.01759   0.81926   0.73584   0.00000  Uiso   1.00
N790   N     0.32799   0.89794   0.60595   0.00000  Uiso   1.00
N791   N     0.00111   0.78056   0.89825   0.00000  Uiso   1.00
N792   N     0.21271   0.92599   0.87772   0.00000  Uiso   1.00
O793   O     0.12797   0.90474   0.74633   0.00000  Uiso   1.00
O794   O     0.22858   0.91422   0.75587   0.00000  Uiso   1.00
O795   O     0.09181   0.82627   0.81840   0.00000  Uiso   1.00
O796   O     0.19242   0.83575   0.82793   0.00000  Uiso   1.00
O797   O     0.10476   0.75245   0.74414   0.00000  Uiso   1.00
O798   O     0.20536   0.76193   0.75367   0.00000  Uiso   1.00
O799   O     0.14092   0.83092   0.67207   0.00000  Uiso   1.00
O800   O     0.24152   0.84040   0.68161   0.00000  Uiso   1.00
C801   C     0.51495   0.93339   0.75159   0.00000  Uiso   1.00
C802   C     0.44327   0.83096   0.90438   0.00000  Uiso   1.00
C803   C     0.52288   0.98925   0.75242   0.00000  Uiso   1.00
C804   C     0.46574   0.83187   0.84756   0.00000  Uiso   1.00
C805   C     0.47562   0.67758   0.74799   0.00000  Uiso   1.00
C806   C     0.48480   0.73335   0.74861   0.00000  Uiso   1.00
C807   C     0.53443   0.83760   0.65270   0.00000  Uiso   1.00
C808   C     0.62594   0.89753   0.52534   0.00000  Uiso   1.00
C809   C     0.55601   0.84723   0.59712   0.00000  Uiso   1.00
C810   C     0.38190   0.80169   0.92701   0.00000  Uiso   1.00
C811   C     0.36627   0.79148   0.97918   0.00000  Uiso   1.00
C812   C     0.47249   0.83554   0.98816   0.00000  Uiso   1.00
C813   C     0.41100   0.80633   0.50899   0.00000  Uiso   1.00
C814   C     0.48591   0.85327   0.93685   0.00000  Uiso   1.00
C815   C     0.52030   0.84907   0.51732   0.00000  Uiso   1.00
C816   C     0.57841   0.88379   0.99684   0.00000  Uiso   1.00
C817   C     0.58701   0.90674   0.94945   0.00000  Uiso   1.00
C818   C     0.54059   0.89369   0.92047   0.00000  Uiso   1.00
C819   C     0.51174   0.82945   0.56664   0.00000  Uiso   1.00
C820   C     0.61464   0.88007   0.57579   0.00000  Uiso   1.00
Cu821  Cu    0.44043   0.82772   0.74436   0.00000  Uiso   1.00
Cu822  Cu    0.55957   0.83895   0.75565   0.00000  Uiso   1.00
F823   F     0.41796   0.98198   0.74279   0.00000  Uiso   1.00
F824   F     0.34891   0.92998   0.50521   0.00000  Uiso   1.00
H825   H     0.33684   0.87233   0.78980   0.00000  Uiso   1.00
H826   H     0.35117   0.75436   0.87004   0.00000  Uiso   1.00
H827   H     0.65712   0.81135   0.88143   0.00000  Uiso   1.00
H828   H     0.59024   0.92712   0.85313   0.00000  Uiso   1.00
H829   H     0.54523   0.96425   0.89168   0.00000  Uiso   1.00
H830   H     0.66315   0.79431   0.71022   0.00000  Uiso   1.00
H831   H     0.62910   0.93662   0.93532   0.00000  Uiso   1.00
H832   H     0.46980   0.80113   0.58334   0.00000  Uiso   1.00
H833   H     0.39486   0.79576   0.54881   0.00000  Uiso   1.00
H834   H     0.65262   0.76981   0.99659   0.00000  Uiso   1.00
H835   H     0.56850   0.67966   0.75664   0.00000  Uiso   1.00
H836   H     0.33721   0.93899   0.60798   0.00000  Uiso   1.00
H837   H     0.36970   0.88678   0.58687   0.00000  Uiso   1.00
N838   N     0.64908   0.84741   0.76416   0.00000  Uiso   1.00
N839   N     0.35092   0.81926   0.73584   0.00000  Uiso   1.00
N840   N     0.66132   0.89794   0.60595   0.00000  Uiso   1.00
N841   N     0.33444   0.78056   0.89825   0.00000  Uiso   1.00
N842   N     0.54604   0.92599   0.87772   0.00000  Uiso   1.00
O843   O     0.46131   0.90474   0.74633   0.00000  Uiso   1.00
O844   O     0.56191   0.91422   0.75587   0.00000  Uiso   1.00
O845   O     0.42515   0.82627   0.81840   0.00000  Uiso   1.00
O846   O     0.52575   0.83575   0.82793   0.00000  Uiso   1.00
O847   O     0.43809   0.75245   0.74414   0.00000  Uiso   1.00
O848   O     0.53869   0.76193   0.75367   0.00000  Uiso   1.00
O849   O     0.47425   0.83092   0.67207   0.00000  Uiso   1.00
O850   O     0.57485   0.84040   0.68161   0.00000  Uiso   1.00
C851   C     0.84828   0.93339   0.75159   0.00000  Uiso   1.00
C852   C     0.77660   0.83096   0.90438   0.00000  Uiso   1.00
C853   C     0.85621   0.98925   0.75242   0.00000  Uiso   1.00
C854   C     0.79907   0.83187   0.84756   0.00000  Uiso   1.00
C855   C     0.80895   0.67758   0.74799   0.00000  Uiso   1.00
C856   C     0.81813   0.73335   0.74861   0.00000  Uiso   1.00
C857   C     0.86777   0.83760   0.65270   0.00000  Uiso   1.00
C858   C     0.95927   0.89753   0.52534   0.00000  Uiso   1.00
C859   C     0.88935   0.84723   0.59712   0.00000  Uiso   1.00
C860   C     0.71523   0.80169   0.92701   0.00000  Uiso   1.00
C861   C     0.69961   0.79148   0.97918   0.00000  Uiso   1.00
C862   C     0.80582   0.83554   0.98816   0.00000  Uiso   1.00
C863   C     0.74433   0.80633   0.50899   0.00000  Uiso   1.00
C864   C     0.81924   0.85327   0.93685   0.00000  Uiso   1.00
C865   C     0.85363   0.84907   0.51732   0.00000  Uiso   1.00
C866   C     0.91175   0.88379   0.99684   0.00000  Uiso   1.00
C867   C     0.92034   0.90674   0.94945   0.00000  Uiso   1.00
C868   C     0.87393   0.89369   0.92047   0.00000  Uiso   1.00
C869   C     0.84508   0.82945   0.56664   0.00000  Uiso   1.00
C870   C     0.94797   0.88007   0.57579   0.00000  Uiso   1.00
Cu871  Cu    0.77377   0.82772   0.74436   0.00000  Uiso   1.00
Cu872  Cu    0.89290   0.83895   0.75565   0.00000  Uiso   1.00
F873   F     0.75130   0.98198   0.74279   0.00000  Uiso   1.00
F874   F     0.68224   0.92998   0.50521   0.00000  Uiso   1.00
H875   H     0.67017   0.87233   0.78980   0.00000  Uiso   1.00
H876   H     0.68451   0.75436   0.87004   0.00000  Uiso   1.00
H877   H     0.99045   0.81135   0.88143   0.00000  Uiso   1.00
H878   H     0.92357   0.92712   0.85313   0.00000  Uiso   1.00
H879   H     0.87857   0.96425   0.89168   0.00000  Uiso   1.00
H880   H     0.99648   0.79431   0.71022   0.00000  Uiso   1.00
H881   H     0.96243   0.93662   0.93532   0.00000  Uiso   1.00
H882   H     0.80313   0.80113   0.58334   0.00000  Uiso   1.00
H883   H     0.72820   0.79576   0.54881   0.00000  Uiso   1.00
H884   H     0.98595   0.76981   0.99659   0.00000  Uiso   1.00
H885   H     0.90184   0.67966   0.75664   0.00000  Uiso   1.00
H886   H     0.67055   0.93899   0.60798   0.00000  Uiso   1.00
H887   H     0.70303   0.88678   0.58687   0.00000  Uiso   1.00
N888   N     0.98241   0.84741   0.76416   0.00000  Uiso   1.00
N889   N     0.68426   0.81926   0.73584   0.00000  Uiso   1.00
N890   N     0.99465   0.89794   0.60595   0.00000  Uiso   1.00
N891   N     0.66777   0.78056   0.89825   0.00000  Uiso   1.00
N892   N     0.87937   0.92599   0.87772   0.00000  Uiso   1.00
O893   O     0.79464   0.90474   0.74633   0.00000  Uiso   1.00
O894   O     0.89524   0.91422   0.75587   0.00000  Uiso   1.00
O895   O     0.75848   0.82627   0.81840   0.00000  Uiso   1.00
O896   O     0.85908   0.83575   0.82793   0.00000  Uiso   1.00
O897   O     0.77142   0.75245   0.74414   0.00000  Uiso   1.00
O898   O     0.87203   0.76193   0.75367   0.00000  Uiso   1.00
O899   O     0.80758   0.83092   0.67207   0.00000  Uiso   1.00
O900   O     0.90819   0.84040   0.68161   0.00000  Uiso   1.00
loop_
_geom_bond_atom_site_label_1
_geom_bond_atom_site_label_2
_geom_bond_distance
_geom_bond_site_symmetry_2
_ccdc_geom_bond_type
C1     O43     1.288   .     A
C1     O44     1.287   .     A
C1     C3      1.430   .     S
C2     C10     1.423   .     A
C2     C4      1.486   .     S
C2     C14     1.430   .     A
C3     C155    1.333   .     S
C3     H185    1.088   .     S
C4     O46     1.302   .     A
C4     O45     1.300   .     A
C5     C6      1.425   .     S
C5     C303    1.333   1_545 S
C5     F323    1.364   1_545 S
C6     O48     1.290   .     A
C6     O47     1.283   .     A
C7     O49     1.296   .     A
C7     O50     1.300   .     A
C7     C9      1.474   .     S
C8     C20     1.403   .     A
C8     C466    1.408   1_554 S
C8     F74     1.360   .     S
C9     C20     1.407   .     A
C9     C19     1.398   .     A
C10    N41     1.433   .     S
C10    C11     1.387   .     A
C11    C463    1.385   .     S
C11    H134    1.084   1_455 S
C12    C14     1.422   .     A
C12    C463    1.414   .     S
C12    C465    1.425   .     S
C13    H33     1.077   .     S
C13    C462    1.414   1_554 S
C13    C461    1.385   1_554 S
C14    C18     1.422   .     A
C15    C19     1.404   .     A
C15    C462    1.425   1_554 S
C15    C466    1.416   1_554 S
C16    C17     1.394   .     A
C16    C465    1.416   .     S
C16    C458    1.408   .     S
C17    C18     1.396   .     A
C17    H31     1.084   .     S
C18    N42     1.434   .     S
C19    H32     1.076   .     S
C20    N40     1.433   .     S
Cu21   O49     1.907   .     S
Cu21   Cu22    2.683   .     S
Cu21   O45     1.931   .     S
Cu21   O47     1.957   .     S
Cu21   O43     1.960   .     S
Cu21   N39     2.016   .     S
Cu22   O48     1.960   .     S
Cu22   O50     1.931   .     S
Cu22   O46     1.907   .     S
Cu22   N38     2.016   .     S
Cu22   O44     1.957   .     S
F23    C155    1.364   .     S
F24    C108    1.360   1_455 S
H25    N138    1.029   1_455 S
H26    N41     1.045   .     S
H27    N91     1.045   .     S
H28    N42     1.046   .     S
H29    N42     1.046   .     S
H30    N89     1.029   .     S
H34    C61     1.084   .     S
H35    C303    1.088   1_545 S
H36    N140    1.046   1_455 S
H37    N140    1.046   1_455 S
N38    H75     1.029   .     S
N38    N89     1.281   .     S
N39    N138    1.281   1_455 S
N39    H130    1.029   1_455 S
N40    H86     1.046   .     S
N40    H87     1.046   .     S
N41    H127    1.045   1_455 S
C51    O93     1.288   .     A
C51    O94     1.287   .     A
C51    C53     1.430   .     S
C52    C60     1.423   .     A
C52    C54     1.486   .     S
C52    C64     1.430   .     A
C53    C205    1.333   .     S
C53    H235    1.088   .     S
C54    O96     1.302   .     A
C54    O95     1.300   .     A
C55    C56     1.425   .     S
C55    C353    1.333   1_545 S
C55    F373    1.364   1_545 S
C56    O98     1.290   .     A
C56    O97     1.283   .     A
C57    O99     1.296   .     A
C57    O100    1.300   .     A
C57    C59     1.474   .     S
C58    C70     1.403   .     A
C58    C516    1.408   1_554 S
C58    F124    1.360   .     S
C59    C70     1.407   .     A
C59    C69     1.398   .     A
C60    N91     1.433   .     S
C60    C61     1.387   .     A
C61    C513    1.385   .     S
C62    C64     1.422   .     A
C62    C513    1.414   .     S
C62    C515    1.425   .     S
C63    H83     1.077   .     S
C63    C512    1.414   1_554 S
C63    C511    1.385   1_554 S
C64    C68     1.422   .     A
C65    C69     1.404   .     A
C65    C512    1.425   1_554 S
C65    C516    1.416   1_554 S
C66    C67     1.394   .     A
C66    C515    1.416   .     S
C66    C508    1.408   .     S
C67    C68     1.396   .     A
C67    H81     1.084   .     S
C68    N92     1.434   .     S
C69    H82     1.076   .     S
C70    N90     1.433   .     S
Cu71   O99     1.907   .     S
Cu71   Cu72    2.683   .     S
Cu71   O95     1.931   .     S
Cu71   O97     1.957   .     S
Cu71   O93     1.960   .     S
Cu71   N89     2.016   .     S
Cu72   O98     1.960   .     S
Cu72   O100    1.931   .     S
Cu72   O96     1.907   .     S
Cu72   N88     2.016   .     S
Cu72   O94     1.957   .     S
F73    C205    1.364   .     S
H76    N91     1.045   .     S
H77    N141    1.045   .     S
H78    N92     1.046   .     S
H79    N92     1.046   .     S
H80    N139    1.029   .     S
H84    C111    1.084   .     S
H85    C353    1.088   1_545 S
N88    H125    1.029   .     S
N88    N139    1.281   .     S
N90    H136    1.046   .     S
N90    H137    1.046   .     S
C101   O143    1.288   .     A
C101   O144    1.287   .     A
C101   C103    1.430   .     S
C102   C110    1.423   .     A
C102   C104    1.486   .     S
C102   C114    1.430   .     A
C103   C255    1.333   .     S
C103   H285    1.088   .     S
C104   O146    1.302   .     A
C104   O145    1.300   .     A
C105   C106    1.425   .     S
C105   C403    1.333   1_545 S
C105   F423    1.364   1_545 S
C106   O148    1.290   .     A
C106   O147    1.283   .     A
C107   O149    1.296   .     A
C107   O150    1.300   .     A
C107   C109    1.474   .     S
C108   C120    1.403   .     A
C108   C566    1.408   1_554 S
C108   F24     1.360   1_655 S
C109   C120    1.407   .     A
C109   C119    1.398   .     A
C110   N141    1.433   .     S
C110   C111    1.387   .     A
C111   C563    1.385   .     S
C112   C114    1.422   .     A
C112   C563    1.414   .     S
C112   C565    1.425   .     S
C113   H133    1.077   .     S
C113   C562    1.414   1_554 S
C113   C561    1.385   1_554 S
C114   C118    1.422   .     A
C115   C119    1.404   .     A
C115   C562    1.425   1_554 S
C115   C566    1.416   1_554 S
C116   C117    1.394   .     A
C116   C565    1.416   .     S
C116   C558    1.408   .     S
C117   C118    1.396   .     A
C117   H131    1.084   .     S
C118   N142    1.434   .     S
C119   H132    1.076   .     S
C120   N140    1.433   .     S
Cu121  O149    1.907   .     S
Cu121  Cu122   2.683   .     S
Cu121  O145    1.931   .     S
Cu121  O147    1.957   .     S
Cu121  O143    1.960   .     S
Cu121  N139    2.016   .     S
Cu122  O148    1.960   .     S
Cu122  O150    1.931   .     S
Cu122  O146    1.907   .     S
Cu122  N138    2.016   .     S
Cu122  O144    1.957   .     S
F123   C255    1.364   .     S
H126   N141    1.045   .     S
H127   N41     1.045   1_655 S
H128   N142    1.046   .     S
H129   N142    1.046   .     S
H130   N39     1.029   1_655 S
H134   C11     1.084   1_655 S
H135   C403    1.088   1_545 S
N138   H25     1.029   1_655 S
N138   N39     1.281   1_655 S
N140   H36     1.046   1_655 S
N140   H37     1.046   1_655 S
C151   O193    1.288   .     A
C151   O194    1.287   .     A
C151   C153    1.430   .     S
C152   C160    1.423   .     A
C152   C154    1.486   .     S
C152   C164    1.430   .     A
C153   C305    1.333   .     S
C153   H335    1.088   .     S
C154   O196    1.302   .     A
C154   O195    1.300   .     A
C155   C156    1.425   .     S
C156   O198    1.290   .     A
C156   O197    1.283   .     A
C157   O199    1.296   .     A
C157   O200    1.300   .     A
C157   C159    1.474   .     S
C158   C170    1.403   .     A
C158   C616    1.408   1_554 S
C158   F224    1.360   .     S
C159   C170    1.407   .     A
C159   C169    1.398   .     A
C160   N191    1.433   .     S
C160   C161    1.387   .     A
C161   C613    1.385   .     S
C161   H284    1.084   1_455 S
C162   C164    1.422   .     A
C162   C613    1.414   .     S
C162   C615    1.425   .     S
C163   H183    1.077   .     S
C163   C612    1.414   1_554 S
C163   C611    1.385   1_554 S
C164   C168    1.422   .     A
C165   C169    1.404   .     A
C165   C612    1.425   1_554 S
C165   C616    1.416   1_554 S
C166   C167    1.394   .     A
C166   C615    1.416   .     S
C166   C608    1.408   .     S
C167   C168    1.396   .     A
C167   H181    1.084   .     S
C168   N192    1.434   .     S
C169   H182    1.076   .     S
C170   N190    1.433   .     S
Cu171  O199    1.907   .     S
Cu171  Cu172   2.683   .     S
Cu171  O195    1.931   .     S
Cu171  O197    1.957   .     S
Cu171  O193    1.960   .     S
Cu171  N189    2.016   .     S
Cu172  O198    1.960   .     S
Cu172  O200    1.931   .     S
Cu172  O196    1.907   .     S
Cu172  N188    2.016   .     S
Cu172  O194    1.957   .     S
F173   C305    1.364   .     S
F174   C258    1.360   1_455 S
H175   N288    1.029   1_455 S
H176   N191    1.045   .     S
H177   N241    1.045   .     S
H178   N192    1.046   .     S
H179   N192    1.046   .     S
H180   N239    1.029   .     S
H184   C211    1.084   .     S
H186   N290    1.046   1_455 S
H187   N290    1.046   1_455 S
N188   H225    1.029   .     S
N188   N239    1.281   .     S
N189   N288    1.281   1_455 S
N189   H280    1.029   1_455 S
N190   H236    1.046   .     S
N190   H237    1.046   .     S
N191   H277    1.045   1_455 S
C201   O243    1.288   .     A
C201   O244    1.287   .     A
C201   C203    1.430   .     S
C202   C210    1.423   .     A
C202   C204    1.486   .     S
C202   C214    1.430   .     A
C203   C355    1.333   .     S
C203   H385    1.088   .     S
C204   O246    1.302   .     A
C204   O245    1.300   .     A
C205   C206    1.425   .     S
C206   O248    1.290   .     A
C206   O247    1.283   .     A
C207   O249    1.296   .     A
C207   O250    1.300   .     A
C207   C209    1.474   .     S
C208   C220    1.403   .     A
C208   C666    1.408   1_554 S
C208   F274    1.360   .     S
C209   C220    1.407   .     A
C209   C219    1.398   .     A
C210   N241    1.433   .     S
C210   C211    1.387   .     A
C211   C663    1.385   .     S
C212   C214    1.422   .     A
C212   C663    1.414   .     S
C212   C665    1.425   .     S
C213   H233    1.077   .     S
C213   C662    1.414   1_554 S
C213   C661    1.385   1_554 S
C214   C218    1.422   .     A
C215   C219    1.404   .     A
C215   C662    1.425   1_554 S
C215   C666    1.416   1_554 S
C216   C217    1.394   .     A
C216   C665    1.416   .     S
C216   C658    1.408   .     S
C217   C218    1.396   .     A
C217   H231    1.084   .     S
C218   N242    1.434   .     S
C219   H232    1.076   .     S
C220   N240    1.433   .     S
Cu221  O249    1.907   .     S
Cu221  Cu222   2.683   .     S
Cu221  O245    1.931   .     S
Cu221  O247    1.957   .     S
Cu221  O243    1.960   .     S
Cu221  N239    2.016   .     S
Cu222  O248    1.960   .     S
Cu222  O250    1.931   .     S
Cu222  O246    1.907   .     S
Cu222  N238    2.016   .     S
Cu222  O244    1.957   .     S
F223   C355    1.364   .     S
H226   N241    1.045   .     S
H227   N291    1.045   .     S
H228   N242    1.046   .     S
H229   N242    1.046   .     S
H230   N289    1.029   .     S
H234   C261    1.084   .     S
N238   H275    1.029   .     S
N238   N289    1.281   .     S
N240   H286    1.046   .     S
N240   H287    1.046   .     S
C251   O293    1.288   .     A
C251   O294    1.287   .     A
C251   C253    1.430   .     S
C252   C260    1.423   .     A
C252   C254    1.486   .     S
C252   C264    1.430   .     A
C253   C405    1.333   .     S
C253   H435    1.088   .     S
C254   O296    1.302   .     A
C254   O295    1.300   .     A
C255   C256    1.425   .     S
C256   O298    1.290   .     A
C256   O297    1.283   .     A
C257   O299    1.296   .     A
C257   O300    1.300   .     A
C257   C259    1.474   .     S
C258   C270    1.403   .     A
C258   C716    1.408   1_554 S
C258   F174    1.360   1_655 S
C259   C270    1.407   .     A
C259   C269    1.398   .     A
C260   N291    1.433   .     S
C260   C261    1.387   .     A
C261   C713    1.385   .     S
C262   C264    1.422   .     A
C262   C713    1.414   .     S
C262   C715    1.425   .     S
C263   H283    1.077   .     S
C263   C712    1.414   1_554 S
C263   C711    1.385   1_554 S
C264   C268    1.422   .     A
C265   C269    1.404   .     A
C265   C712    1.425   1_554 S
C265   C716    1.416   1_554 S
C266   C267    1.394   .     A
C266   C715    1.416   .     S
C266   C708    1.408   .     S
C267   C268    1.396   .     A
C267   H281    1.084   .     S
C268   N292    1.434   .     S
C269   H282    1.076   .     S
C270   N290    1.433   .     S
Cu271  O299    1.907   .     S
Cu271  Cu272   2.683   .     S
Cu271  O295    1.931   .     S
Cu271  O297    1.957   .     S
Cu271  O293    1.960   .     S
Cu271  N289    2.016   .     S
Cu272  O298    1.960   .     S
Cu272  O300    1.931   .     S
Cu272  O296    1.907   .     S
Cu272  N288    2.016   .     S
Cu272  O294    1.957   .     S
F273   C405    1.364   .     S
H276   N291    1.045   .     S
H277   N191    1.045   1_655 S
H278   N292    1.046   .     S
H279   N292    1.046   .     S
H280   N189    1.029   1_655 S
H284   C161    1.084   1_655 S
N288   H175    1.029   1_655 S
N288   N189    1.281   1_655 S
N290   H186    1.046   1_655 S
N290   H187    1.046   1_655 S
C301   O343    1.288   .     A
C301   O344    1.287   .     A
C301   C303    1.430   .     S
C302   C310    1.423   .     A
C302   C304    1.486   .     S
C302   C314    1.430   .     A
C303   C5      1.333   1_565 S
C303   H35     1.088   1_565 S
C304   O346    1.302   .     A
C304   O345    1.300   .     A
C305   C306    1.425   .     S
C306   O348    1.290   .     A
C306   O347    1.283   .     A
C307   O349    1.296   .     A
C307   O350    1.300   .     A
C307   C309    1.474   .     S
C308   C320    1.403   .     A
C308   C766    1.408   1_554 S
C308   F374    1.360   .     S
C309   C320    1.407   .     A
C309   C319    1.398   .     A
C310   N341    1.433   .     S
C310   C311    1.387   .     A
C311   C763    1.385   .     S
C311   H434    1.084   1_455 S
C312   C314    1.422   .     A
C312   C763    1.414   .     S
C312   C765    1.425   .     S
C313   H333    1.077   .     S
C313   C762    1.414   1_554 S
C313   C761    1.385   1_554 S
C314   C318    1.422   .     A
C315   C319    1.404   .     A
C315   C762    1.425   1_554 S
C315   C766    1.416   1_554 S
C316   C317    1.394   .     A
C316   C765    1.416   .     S
C316   C758    1.408   .     S
C317   C318    1.396   .     A
C317   H331    1.084   .     S
C318   N342    1.434   .     S
C319   H332    1.076   .     S
C320   N340    1.433   .     S
Cu321  O349    1.907   .     S
Cu321  Cu322   2.683   .     S
Cu321  O345    1.931   .     S
Cu321  O347    1.957   .     S
Cu321  O343    1.960   .     S
Cu321  N339    2.016   .     S
Cu322  O348    1.960   .     S
Cu322  O350    1.931   .     S
Cu322  O346    1.907   .     S
Cu322  N338    2.016   .     S
Cu322  O344    1.957   .     S
F323   C5      1.364   1_565 S
F324   C408    1.360   1_455 S
H325   N438    1.029   1_455 S
H326   N341    1.045   .     S
H327   N391    1.045   .     S
H328   N342    1.046   .     S
H329   N342    1.046   .     S
H330   N389    1.029   .     S
H334   C361    1.084   .     S
H336   N440    1.046   1_455 S
H337   N440    1.046   1_455 S
N338   H375    1.029   .     S
N338   N389    1.281   .     S
N339   N438    1.281   1_455 S
N339   H430    1.029   1_455 S
N340   H386    1.046   .     S
N340   H387    1.046   .     S
N341   H427    1.045   1_455 S
C351   O393    1.288   .     A
C351   O394    1.287   .     A
C351   C353    1.430   .     S
C352   C360    1.423   .     A
C352   C354    1.486   .     S
C352   C364    1.430   .     A
C353   C55     1.333   1_565 S
C353   H85     1.088   1_565 S
C354   O396    1.302   .     A
C354   O395    1.300   .     A
C355   C356    1.425   .     S
C356   O398    1.290   .     A
C356   O397    1.283   .     A
C357   O399    1.296   .     A
C357   O400    1.300   .     A
C357   C359    1.474   .     S
C358   C370    1.403   .     A
C358   C816    1.408   1_554 S
C358   F424    1.360   .     S
C359   C370    1.407   .     A
C359   C369    1.398   .     A
C360   N391    1.433   .     S
C360   C361    1.387   .     A
C361   C813    1.385   .     S
C362   C364    1.422   .     A
C362   C813    1.414   .     S
C362   C815    1.425   .     S
C363   H383    1.077   .     S
C363   C812    1.414   1_554 S
C363   C811    1.385   1_554 S
C364   C368    1.422   .     A
C365   C369    1.404   .     A
C365   C812    1.425   1_554 S
C365   C816    1.416   1_554 S
C366   C367    1.394   .     A
C366   C815    1.416   .     S
C366   C808    1.408   .     S
C367   C368    1.396   .     A
C367   H381    1.084   .     S
C368   N392    1.434   .     S
C369   H382    1.076   .     S
C370   N390    1.433   .     S
Cu371  O399    1.907   .     S
Cu371  Cu372   2.683   .     S
Cu371  O395    1.931   .     S
Cu371  O397    1.957   .     S
Cu371  O393    1.960   .     S
Cu371  N389    2.016   .     S
Cu372  O398    1.960   .     S
Cu372  O400    1.931   .     S
Cu372  O396    1.907   .     S
Cu372  N388    2.016   .     S
Cu372  O394    1.957   .     S
F373   C55     1.364   1_565 S
H376   N391    1.045   .     S
H377   N441    1.045   .     S
H378   N392    1.046   .     S
H379   N392    1.046   .     S
H380   N439    1.029   .     S
H384   C411    1.084   .     S
N388   H425    1.029   .     S
N388   N439    1.281   .     S
N390   H436    1.046   .     S
N390   H437    1.046   .     S
C401   O443    1.288   .     A
C401   O444    1.287   .     A
C401   C403    1.430   .     S
C402   C410    1.423   .     A
C402   C404    1.486   .     S
C402   C414    1.430   .     A
C403   C105    1.333   1_565 S
C403   H135    1.088   1_565 S
C404   O446    1.302   .     A
C404   O445    1.300   .     A
C405   C406    1.425   .     S
C406   O448    1.290   .     A
C406   O447    1.283   .     A
C407   O449    1.296   .     A
C407   O450    1.300   .     A
C407   C409    1.474   .     S
C408   C420    1.403   .     A
C408   C866    1.408   1_554 S
C408   F324    1.360   1_655 S
C409   C420    1.407   .     A
C409   C419    1.398   .     A
C410   N441    1.433   .     S
C410   C411    1.387   .     A
C411   C863    1.385   .     S
C412   C414    1.422   .     A
C412   C863    1.414   .     S
C412   C865    1.425   .     S
C413   H433    1.077   .     S
C413   C862    1.414   1_554 S
C413   C861    1.385   1_554 S
C414   C418    1.422   .     A
C415   C419    1.404   .     A
C415   C862    1.425   1_554 S
C415   C866    1.416   1_554 S
C416   C417    1.394   .     A
C416   C865    1.416   .     S
C416   C858    1.408   .     S
C417   C418    1.396   .     A
C417   H431    1.084   .     S
C418   N442    1.434   .     S
C419   H432    1.076   .     S
C420   N440    1.433   .     S
Cu421  O449    1.907   .     S
Cu421  Cu422   2.683   .     S
Cu421  O445    1.931   .     S
Cu421  O447    1.957   .     S
Cu421  O443    1.960   .     S
Cu421  N439    2.016   .     S
Cu422  O448    1.960   .     S
Cu422  O450    1.931   .     S
Cu422  O446    1.907   .     S
Cu422  N438    2.016   .     S
Cu422  O444    1.957   .     S
F423   C105    1.364   1_565 S
H426   N441    1.045   .     S
H427   N341    1.045   1_655 S
H428   N442    1.046   .     S
H429   N442    1.046   .     S
H430   N339    1.029   1_655 S
H434   C311    1.084   1_655 S
N438   H325    1.029   1_655 S
N438   N339    1.281   1_655 S
N440   H336    1.046   1_655 S
N440   H337    1.046   1_655 S
C451   O493    1.288   .     A
C451   O494    1.287   .     A
C451   C453    1.430   .     S
C452   C460    1.423   .     A
C452   C454    1.486   .     S
C452   C464    1.430   .     A
C453   C605    1.333   .     S
C453   H635    1.088   .     S
C454   O496    1.302   .     A
C454   O495    1.300   .     A
C455   C456    1.425   .     S
C455   C753    1.333   1_545 S
C455   F773    1.364   1_545 S
C456   O498    1.290   .     A
C456   O497    1.283   .     A
C457   O499    1.296   .     A
C457   O500    1.300   .     A
C457   C459    1.474   .     S
C458   C470    1.403   .     A
C458   F524    1.360   .     S
C459   C470    1.407   .     A
C459   C469    1.398   .     A
C460   N491    1.433   .     S
C460   C461    1.387   .     A
C461   C13     1.385   1_556 S
C461   H584    1.084   1_455 S
C462   C464    1.422   .     A
C462   C13     1.414   1_556 S
C462   C15     1.425   1_556 S
C463   H483    1.077   .     S
C464   C468    1.422   .     A
C465   C469    1.404   .     A
C466   C467    1.394   .     A
C466   C15     1.416   1_556 S
C466   C8      1.408   1_556 S
C467   C468    1.396   .     A
C467   H481    1.084   .     S
C468   N492    1.434   .     S
C469   H482    1.076   .     S
C470   N490    1.433   .     S
Cu471  O499    1.907   .     S
Cu471  Cu472   2.683   .     S
Cu471  O495    1.931   .     S
Cu471  O497    1.957   .     S
Cu471  O493    1.960   .     S
Cu471  N489    2.016   .     S
Cu472  O498    1.960   .     S
Cu472  O500    1.931   .     S
Cu472  O496    1.907   .     S
Cu472  N488    2.016   .     S
Cu472  O494    1.957   .     S
F473   C605    1.364   .     S
F474   C558    1.360   1_455 S
H475   N588    1.029   1_455 S
H476   N491    1.045   .     S
H477   N541    1.045   .     S
H478   N492    1.046   .     S
H479   N492    1.046   .     S
H480   N539    1.029   .     S
H484   C511    1.084   .     S
H485   C753    1.088   1_545 S
H486   N590    1.046   1_455 S
H487   N590    1.046   1_455 S
N488   H525    1.029   .     S
N488   N539    1.281   .     S
N489   N588    1.281   1_455 S
N489   H580    1.029   1_455 S
N490   H536    1.046   .     S
N490   H537    1.046   .     S
N491   H577    1.045   1_455 S
C501   O543    1.288   .     A
C501   O544    1.287   .     A
C501   C503    1.430   .     S
C502   C510    1.423   .     A
C502   C504    1.486   .     S
C502   C514    1.430   .     A
C503   C655    1.333   .     S
C503   H685    1.088   .     S
C504   O546    1.302   .     A
C504   O545    1.300   .     A
C505   C506    1.425   .     S
C505   C803    1.333   1_545 S
C505   F823    1.364   1_545 S
C506   O548    1.290   .     A
C506   O547    1.283   .     A
C507   O549    1.296   .     A
C507   O550    1.300   .     A
C507   C509    1.474   .     S
C508   C520    1.403   .     A
C508   F574    1.360   .     S
C509   C520    1.407   .     A
C509   C519    1.398   .     A
C510   N541    1.433   .     S
C510   C511    1.387   .     A
C511   C63     1.385   1_556 S
C512   C514    1.422   .     A
C512   C63     1.414   1_556 S
C512   C65     1.425   1_556 S
C513   H533    1.077   .     S
C514   C518    1.422   .     A
C515   C519    1.404   .     A
C516   C517    1.394   .     A
C516   C65     1.416   1_556 S
C516   C58     1.408   1_556 S
C517   C518    1.396   .     A
C517   H531    1.084   .     S
C518   N542    1.434   .     S
C519   H532    1.076   .     S
C520   N540    1.433   .     S
Cu521  O549    1.907   .     S
Cu521  Cu522   2.683   .     S
Cu521  O545    1.931   .     S
Cu521  O547    1.957   .     S
Cu521  O543    1.960   .     S
Cu521  N539    2.016   .     S
Cu522  O548    1.960   .     S
Cu522  O550    1.931   .     S
Cu522  O546    1.907   .     S
Cu522  N538    2.016   .     S
Cu522  O544    1.957   .     S
F523   C655    1.364   .     S
H526   N541    1.045   .     S
H527   N591    1.045   .     S
H528   N542    1.046   .     S
H529   N542    1.046   .     S
H530   N589    1.029   .     S
H534   C561    1.084   .     S
H535   C803    1.088   1_545 S
N538   H575    1.029   .     S
N538   N589    1.281   .     S
N540   H586    1.046   .     S
N540   H587    1.046   .     S
C551   O593    1.288   .     A
C551   O594    1.287   .     A
C551   C553    1.430   .     S
C552   C560    1.423   .     A
C552   C554    1.486   .     S
C552   C564    1.430   .     A
C553   C705    1.333   .     S
C553   H735    1.088   .     S
C554   O596    1.302   .     A
C554   O595    1.300   .     A
C555   C556    1.425   .     S
C555   C853    1.333   1_545 S
C555   F873    1.364   1_545 S
C556   O598    1.290   .     A
C556   O597    1.283   .     A
C557   O599    1.296   .     A
C557   O600    1.300   .     A
C557   C559    1.474   .     S
C558   C570    1.403   .     A
C558   F474    1.360   1_655 S
C559   C570    1.407   .     A
C559   C569    1.398   .     A
C560   N591    1.433   .     S
C560   C561    1.387   .     A
C561   C113    1.385   1_556 S
C562   C564    1.422   .     A
C562   C113    1.414   1_556 S
C562   C115    1.425   1_556 S
C563   H583    1.077   .     S
C564   C568    1.422   .     A
C565   C569    1.404   .     A
C566   C567    1.394   .     A
C566   C115    1.416   1_556 S
C566   C108    1.408   1_556 S
C567   C568    1.396   .     A
C567   H581    1.084   .     S
C568   N592    1.434   .     S
C569   H582    1.076   .     S
C570   N590    1.433   .     S
Cu571  O599    1.907   .     S
Cu571  Cu572   2.683   .     S
Cu571  O595    1.931   .     S
Cu571  O597    1.957   .     S
Cu571  O593    1.960   .     S
Cu571  N589    2.016   .     S
Cu572  O598    1.960   .     S
Cu572  O600    1.931   .     S
Cu572  O596    1.907   .     S
Cu572  N588    2.016   .     S
Cu572  O594    1.957   .     S
F573   C705    1.364   .     S
H576   N591    1.045   .     S
H577   N491    1.045   1_655 S
H578   N592    1.046   .     S
H579   N592    1.046   .     S
H580   N489    1.029   1_655 S
H584   C461    1.084   1_655 S
H585   C853    1.088   1_545 S
N588   H475    1.029   1_655 S
N588   N489    1.281   1_655 S
N590   H486    1.046   1_655 S
N590   H487    1.046   1_655 S
C601   O643    1.288   .     A
C601   O644    1.287   .     A
C601   C603    1.430   .     S
C602   C610    1.423   .     A
C602   C604    1.486   .     S
C602   C614    1.430   .     A
C603   C755    1.333   .     S
C603   H785    1.088   .     S
C604   O646    1.302   .     A
C604   O645    1.300   .     A
C605   C606    1.425   .     S
C606   O648    1.290   .     A
C606   O647    1.283   .     A
C607   O649    1.296   .     A
C607   O650    1.300   .     A
C607   C609    1.474   .     S
C608   C620    1.403   .     A
C608   F674    1.360   .     S
C609   C620    1.407   .     A
C609   C619    1.398   .     A
C610   N641    1.433   .     S
C610   C611    1.387   .     A
C611   C163    1.385   1_556 S
C611   H734    1.084   1_455 S
C612   C614    1.422   .     A
C612   C163    1.414   1_556 S
C612   C165    1.425   1_556 S
C613   H633    1.077   .     S
C614   C618    1.422   .     A
C615   C619    1.404   .     A
C616   C617    1.394   .     A
C616   C165    1.416   1_556 S
C616   C158    1.408   1_556 S
C617   C618    1.396   .     A
C617   H631    1.084   .     S
C618   N642    1.434   .     S
C619   H632    1.076   .     S
C620   N640    1.433   .     S
Cu621  O649    1.907   .     S
Cu621  Cu622   2.683   .     S
Cu621  O645    1.931   .     S
Cu621  O647    1.957   .     S
Cu621  O643    1.960   .     S
Cu621  N639    2.016   .     S
Cu622  O648    1.960   .     S
Cu622  O650    1.931   .     S
Cu622  O646    1.907   .     S
Cu622  N638    2.016   .     S
Cu622  O644    1.957   .     S
F623   C755    1.364   .     S
F624   C708    1.360   1_455 S
H625   N738    1.029   1_455 S
H626   N641    1.045   .     S
H627   N691    1.045   .     S
H628   N642    1.046   .     S
H629   N642    1.046   .     S
H630   N689    1.029   .     S
H634   C661    1.084   .     S
H636   N740    1.046   1_455 S
H637   N740    1.046   1_455 S
N638   H675    1.029   .     S
N638   N689    1.281   .     S
N639   N738    1.281   1_455 S
N639   H730    1.029   1_455 S
N640   H686    1.046   .     S
N640   H687    1.046   .     S
N641   H727    1.045   1_455 S
C651   O693    1.288   .     A
C651   O694    1.287   .     A
C651   C653    1.430   .     S
C652   C660    1.423   .     A
C652   C654    1.486   .     S
C652   C664    1.430   .     A
C653   C805    1.333   .     S
C653   H835    1.088   .     S
C654   O696    1.302   .     A
C654   O695    1.300   .     A
C655   C656    1.425   .     S
C656   O698    1.290   .     A
C656   O697    1.283   .     A
C657   O699    1.296   .     A
C657   O700    1.300   .     A
C657   C659    1.474   .     S
C658   C670    1.403   .     A
C658   F724    1.360   .     S
C659   C670    1.407   .     A
C659   C669    1.398   .     A
C660   N691    1.433   .     S
C660   C661    1.387   .     A
C661   C213    1.385   1_556 S
C662   C664    1.422   .     A
C662   C213    1.414   1_556 S
C662   C215    1.425   1_556 S
C663   H683    1.077   .     S
C664   C668    1.422   .     A
C665   C669    1.404   .     A
C666   C667    1.394   .     A
C666   C215    1.416   1_556 S
C666   C208    1.408   1_556 S
C667   C668    1.396   .     A
C667   H681    1.084   .     S
C668   N692    1.434   .     S
C669   H682    1.076   .     S
C670   N690    1.433   .     S
Cu671  O699    1.907   .     S
Cu671  Cu672   2.683   .     S
Cu671  O695    1.931   .     S
Cu671  O697    1.957   .     S
Cu671  O693    1.960   .     S
Cu671  N689    2.016   .     S
Cu672  O698    1.960   .     S
Cu672  O700    1.931   .     S
Cu672  O696    1.907   .     S
Cu672  N688    2.016   .     S
Cu672  O694    1.957   .     S
F673   C805    1.364   .     S
H676   N691    1.045   .     S
H677   N741    1.045   .     S
H678   N692    1.046   .     S
H679   N692    1.046   .     S
H680   N739    1.029   .     S
H684   C711    1.084   .     S
N688   H725    1.029   .     S
N688   N739    1.281   .     S
N690   H736    1.046   .     S
N690   H737    1.046   .     S
C701   O743    1.288   .     A
C701   O744    1.287   .     A
C701   C703    1.430   .     S
C702   C710    1.423   .     A
C702   C704    1.486   .     S
C702   C714    1.430   .     A
C703   C855    1.333   .     S
C703   H885    1.088   .     S
C704   O746    1.302   .     A
C704   O745    1.300   .     A
C705   C706    1.425   .     S
C706   O748    1.290   .     A
C706   O747    1.283   .     A
C707   O749    1.296   .     A
C707   O750    1.300   .     A
C707   C709    1.474   .     S
C708   C720    1.403   .     A
C708   F624    1.360   1_655 S
C709   C720    1.407   .     A
C709   C719    1.398   .     A
C710   N741    1.433   .     S
C710   C711    1.387   .     A
C711   C263    1.385   1_556 S
C712   C714    1.422   .     A
C712   C263    1.414   1_556 S
C712   C265    1.425   1_556 S
C713   H733    1.077   .     S
C714   C718    1.422   .     A
C715   C719    1.404   .     A
C716   C717    1.394   .     A
C716   C265    1.416   1_556 S
C716   C258    1.408   1_556 S
C717   C718    1.396   .     A
C717   H731    1.084   .     S
C718   N742    1.434   .     S
C719   H732    1.076   .     S
C720   N740    1.433   .     S
Cu721  O749    1.907   .     S
Cu721  Cu722   2.683   .     S
Cu721  O745    1.931   .     S
Cu721  O747    1.957   .     S
Cu721  O743    1.960   .     S
Cu721  N739    2.016   .     S
Cu722  O748    1.960   .     S
Cu722  O750    1.931   .     S
Cu722  O746    1.907   .     S
Cu722  N738    2.016   .     S
Cu722  O744    1.957   .     S
F723   C855    1.364   .     S
H726   N741    1.045   .     S
H727   N641    1.045   1_655 S
H728   N742    1.046   .     S
H729   N742    1.046   .     S
H730   N639    1.029   1_655 S
H734   C611    1.084   1_655 S
N738   H625    1.029   1_655 S
N738   N639    1.281   1_655 S
N740   H636    1.046   1_655 S
N740   H637    1.046   1_655 S
C751   O793    1.288   .     A
C751   O794    1.287   .     A
C751   C753    1.430   .     S
C752   C760    1.423   .     A
C752   C754    1.486   .     S
C752   C764    1.430   .     A
C753   C455    1.333   1_565 S
C753   H485    1.088   1_565 S
C754   O796    1.302   .     A
C754   O795    1.300   .     A
C755   C756    1.425   .     S
C756   O798    1.290   .     A
C756   O797    1.283   .     A
C757   O799    1.296   .     A
C757   O800    1.300   .     A
C757   C759    1.474   .     S
C758   C770    1.403   .     A
C758   F824    1.360   .     S
C759   C770    1.407   .     A
C759   C769    1.398   .     A
C760   N791    1.433   .     S
C760   C761    1.387   .     A
C761   C313    1.385   1_556 S
C761   H884    1.084   1_455 S
C762   C764    1.422   .     A
C762   C313    1.414   1_556 S
C762   C315    1.425   1_556 S
C763   H783    1.077   .     S
C764   C768    1.422   .     A
C765   C769    1.404   .     A
C766   C767    1.394   .     A
C766   C315    1.416   1_556 S
C766   C308    1.408   1_556 S
C767   C768    1.396   .     A
C767   H781    1.084   .     S
C768   N792    1.434   .     S
C769   H782    1.076   .     S
C770   N790    1.433   .     S
Cu771  O799    1.907   .     S
Cu771  Cu772   2.683   .     S
Cu771  O795    1.931   .     S
Cu771  O797    1.957   .     S
Cu771  O793    1.960   .     S
Cu771  N789    2.016   .     S
Cu772  O798    1.960   .     S
Cu772  O800    1.931   .     S
Cu772  O796    1.907   .     S
Cu772  N788    2.016   .     S
Cu772  O794    1.957   .     S
F773   C455    1.364   1_565 S
F774   C858    1.360   1_455 S
H775   N888    1.029   1_455 S
H776   N791    1.045   .     S
H777   N841    1.045   .     S
H778   N792    1.046   .     S
H779   N792    1.046   .     S
H780   N839    1.029   .     S
H784   C811    1.084   .     S
H786   N890    1.046   1_455 S
H787   N890    1.046   1_455 S
N788   H825    1.029   .     S
N788   N839    1.281   .     S
N789   N888    1.281   1_455 S
N789   H880    1.029   1_455 S
N790   H836    1.046   .     S
N790   H837    1.046   .     S
N791   H877    1.045   1_455 S
C801   O843    1.288   .     A
C801   O844    1.287   .     A
C801   C803    1.430   .     S
C802   C810    1.423   .     A
C802   C804    1.486   .     S
C802   C814    1.430   .     A
C803   C505    1.333   1_565 S
C803   H535    1.088   1_565 S
C804   O846    1.302   .     A
C804   O845    1.300   .     A
C805   C806    1.425   .     S
C806   O848    1.290   .     A
C806   O847    1.283   .     A
C807   O849    1.296   .     A
C807   O850    1.300   .     A
C807   C809    1.474   .     S
C808   C820    1.403   .     A
C808   F874    1.360   .     S
C809   C820    1.407   .     A
C809   C819    1.398   .     A
C810   N841    1.433   .     S
C810   C811    1.387   .     A
C811   C363    1.385   1_556 S
C812   C814    1.422   .     A
C812   C363    1.414   1_556 S
C812   C365    1.425   1_556 S
C813   H833    1.077   .     S
C814   C818    1.422   .     A
C815   C819    1.404   .     A
C816   C817    1.394   .     A
C816   C365    1.416   1_556 S
C816   C358    1.408   1_556 S
C817   C818    1.396   .     A
C817   H831    1.084   .     S
C818   N842    1.434   .     S
C819   H832    1.076   .     S
C820   N840    1.433   .     S
Cu821  O849    1.907   .     S
Cu821  Cu822   2.683   .     S
Cu821  O845    1.931   .     S
Cu821  O847    1.957   .     S
Cu821  O843    1.960   .     S
Cu821  N839    2.016   .     S
Cu822  O848    1.960   .     S
Cu822  O850    1.931   .     S
Cu822  O846    1.907   .     S
Cu822  N838    2.016   .     S
Cu822  O844    1.957   .     S
F823   C505    1.364   1_565 S
H826   N841    1.045   .     S
H827   N891    1.045   .     S
H828   N842    1.046   .     S
H829   N842    1.046   .     S
H830   N889    1.029   .     S
H834   C861    1.084   .     S
N838   H875    1.029   .     S
N838   N889    1.281   .     S
N840   H886    1.046   .     S
N840   H887    1.046   .     S
C851   O893    1.288   .     A
C851   O894    1.287   .     A
C851   C853    1.430   .     S
C852   C860    1.423   .     A
C852   C854    1.486   .     S
C852   C864    1.430   .     A
C853   C555    1.333   1_565 S
C853   H585    1.088   1_565 S
C854   O896    1.302   .     A
C854   O895    1.300   .     A
C855   C856    1.425   .     S
C856   O898    1.290   .     A
C856   O897    1.283   .     A
C857   O899    1.296   .     A
C857   O900    1.300   .     A
C857   C859    1.474   .     S
C858   C870    1.403   .     A
C858   F774    1.360   1_655 S
C859   C870    1.407   .     A
C859   C869    1.398   .     A
C860   N891    1.433   .     S
C860   C861    1.387   .     A
C861   C413    1.385   1_556 S
C862   C864    1.422   .     A
C862   C413    1.414   1_556 S
C862   C415    1.425   1_556 S
C863   H883    1.077   .     S
C864   C868    1.422   .     A
C865   C869    1.404   .     A
C866   C867    1.394   .     A
C866   C415    1.416   1_556 S
C866   C408    1.408   1_556 S
C867   C868    1.396   .     A
C867   H881    1.084   .     S
C868   N892    1.434   .     S
C869   H882    1.076   .     S
C870   N890    1.433   .     S
Cu871  O899    1.907   .     S
Cu871  Cu872   2.683   .     S
Cu871  O895    1.931   .     S
Cu871  O897    1.957   .     S
Cu871  O893    1.960   .     S
Cu871  N889    2.016   .     S
Cu872  O898    1.960   .     S
Cu872  O900    1.931   .     S
Cu872  O896    1.907   .     S
Cu872  N888    2.016   .     S
Cu872  O894    1.957   .     S
F873   C555    1.364   1_565 S
H876   N891    1.045   .     S
H877   N791    1.045   1_655 S
H878   N892    1.046   .     S
H879   N892    1.046   .     S
H880   N789    1.029   1_655 S
H884   C761    1.084   1_655 S
N888   H775    1.029   1_655 S
N888   N789    1.281   1_655 S
N890   H786    1.046   1_655 S
N890   H787    1.046   1_655 S
