data_str_m1_o1_o17_pcu_sym.53
_audit_creation_date              2020-01-03
_audit_creation_method            'Materials Studio'
_symmetry_space_group_name_H-M    'P1'
_symmetry_Int_Tables_number       1
_symmetry_cell_setting            triclinic
loop_
_symmetry_equiv_pos_as_xyz
  x,y,z
_cell_length_a                    36.6480
_cell_length_b                    36.6141
_cell_length_c                    34.4653
_cell_angle_alpha                 89.9716
_cell_angle_beta                  89.9814
_cell_angle_gamma                 89.9699
loop_
_atom_site_label
_atom_site_type_symbol
_atom_site_fract_x
_atom_site_fract_y
_atom_site_fract_z
_atom_site_U_iso_or_equiv
_atom_site_adp_type
_atom_site_occupancy
Zn1    Zn    0.20660   0.00000   0.21735   0.00000  Uiso   1.00
Zn2    Zn    0.29341   0.00000   0.78265   0.00000  Uiso   1.00
Zn3    Zn    0.00000   0.20659   0.21735   0.00000  Uiso   1.00
Zn4    Zn    0.00000   0.29340   0.78265   0.00000  Uiso   1.00
Zn5    Zn    0.29341   0.00000   0.21735   0.00000  Uiso   1.00
Zn6    Zn    0.20660   0.00000   0.78265   0.00000  Uiso   1.00
Zn7    Zn    0.00000   0.29340   0.21735   0.00000  Uiso   1.00
Zn8    Zn    0.00000   0.20659   0.78265   0.00000  Uiso   1.00
Zn9    Zn    0.45660   0.25000   0.71735   0.00000  Uiso   1.00
Zn10   Zn    0.04341   0.25000   0.28265   0.00000  Uiso   1.00
Zn11   Zn    0.25000   0.45659   0.71735   0.00000  Uiso   1.00
Zn12   Zn    0.25000   0.04341   0.28265   0.00000  Uiso   1.00
Zn13   Zn    0.04341   0.25000   0.71735   0.00000  Uiso   1.00
Zn14   Zn    0.45660   0.25000   0.28265   0.00000  Uiso   1.00
Zn15   Zn    0.25000   0.04341   0.71735   0.00000  Uiso   1.00
Zn16   Zn    0.25000   0.45659   0.28265   0.00000  Uiso   1.00
C17    C     0.00724   0.28355   0.41805   0.00000  Uiso   1.00
C18    C     0.49162   0.21840   0.58166   0.00000  Uiso   1.00
C19    C     0.21657   0.49877   0.41814   0.00000  Uiso   1.00
C20    C     0.28344   0.49923   0.58186   0.00000  Uiso   1.00
C21    C     0.49150   0.21853   0.41834   0.00000  Uiso   1.00
C22    C     0.00704   0.28346   0.58193   0.00000  Uiso   1.00
C23    C     0.28343   0.49917   0.41812   0.00000  Uiso   1.00
C24    C     0.21657   0.49880   0.58189   0.00000  Uiso   1.00
C25    C     0.25104   0.03401   0.91817   0.00000  Uiso   1.00
C26    C     0.25172   0.46690   0.08190   0.00000  Uiso   1.00
C27    C     0.46622   0.24851   0.91800   0.00000  Uiso   1.00
C28    C     0.03282   0.24921   0.08164   0.00000  Uiso   1.00
C29    C     0.25165   0.46717   0.91836   0.00000  Uiso   1.00
C30    C     0.25088   0.03383   0.08199   0.00000  Uiso   1.00
C31    C     0.03309   0.24890   0.91812   0.00000  Uiso   1.00
C32    C     0.46605   0.24828   0.08183   0.00000  Uiso   1.00
C33    C     0.49975   0.25082   0.39809   0.00000  Uiso   1.00
C34    C     0.49976   0.25070   0.60190   0.00000  Uiso   1.00
C35    C     0.25000   0.49996   0.39807   0.00000  Uiso   1.00
C36    C     0.25000   0.00001   0.60194   0.00000  Uiso   1.00
C37    C     0.25016   0.00050   0.89816   0.00000  Uiso   1.00
C38    C     0.25013   0.00029   0.10199   0.00000  Uiso   1.00
C39    C     0.49971   0.24987   0.89801   0.00000  Uiso   1.00
C40    C     0.49950   0.24987   0.10184   0.00000  Uiso   1.00
O41    O     0.25000  -0.00000   0.25000   0.00000  Uiso   1.00
O42    O     0.25000   0.00000   0.75000   0.00000  Uiso   1.00
O43    O     0.00000   0.25000   0.25000   0.00000  Uiso   1.00
O44    O     0.00000   0.25000   0.75000   0.00000  Uiso   1.00
O45    O     0.25000   0.46963   0.33755   0.00000  Uiso   1.00
O46    O     0.25000   0.03037   0.66245   0.00000  Uiso   1.00
O47    O     0.03037   0.25000   0.33755   0.00000  Uiso   1.00
O48    O     0.46964   0.25000   0.66245   0.00000  Uiso   1.00
O49    O     0.25000   0.03037   0.33755   0.00000  Uiso   1.00
O50    O     0.25000   0.46963   0.66245   0.00000  Uiso   1.00
O51    O     0.46964   0.25000   0.33755   0.00000  Uiso   1.00
O52    O     0.03037   0.25000   0.66245   0.00000  Uiso   1.00
O53    O     0.00000   0.21963   0.83755   0.00000  Uiso   1.00
O54    O     0.00000   0.28036   0.16245   0.00000  Uiso   1.00
O55    O     0.28037   0.00000   0.83755   0.00000  Uiso   1.00
O56    O     0.21964   0.00000   0.16245   0.00000  Uiso   1.00
O57    O     0.00000   0.28036   0.83755   0.00000  Uiso   1.00
O58    O     0.00000   0.21963   0.16245   0.00000  Uiso   1.00
O59    O     0.21964   0.00000   0.83755   0.00000  Uiso   1.00
O60    O     0.28037   0.00000   0.16245   0.00000  Uiso   1.00
H61    H     0.48405   0.15979   0.46537   0.00000  Uiso   1.00
H62    H     0.01346   0.34252   0.53467   0.00000  Uiso   1.00
H63    H     0.34243   0.00282   0.46530   0.00000  Uiso   1.00
H64    H     0.15753   0.00159   0.53470   0.00000  Uiso   1.00
H65    H     0.01341   0.34259   0.46541   0.00000  Uiso   1.00
H66    H     0.48413   0.15972   0.53458   0.00000  Uiso   1.00
H67    H     0.15753   0.00157   0.46537   0.00000  Uiso   1.00
H68    H     0.34243   0.00285   0.53463   0.00000  Uiso   1.00
H69    H     0.24965   0.40798   0.96539   0.00000  Uiso   1.00
H70    H     0.24702   0.09296   0.03481   0.00000  Uiso   1.00
H71    H     0.09200   0.25241   0.96533   0.00000  Uiso   1.00
H72    H     0.40699   0.25097   0.03453   0.00000  Uiso   1.00
H73    H     0.24711   0.09304   0.96546   0.00000  Uiso   1.00
H74    H     0.24953   0.40787   0.03468   0.00000  Uiso   1.00
H75    H     0.40707   0.25110   0.96518   0.00000  Uiso   1.00
H76    H     0.09189   0.25240   0.03462   0.00000  Uiso   1.00
O77    O     0.20725   0.07307   0.27302   0.00000  Uiso   1.00
O78    O     0.29276   0.42692   0.72698   0.00000  Uiso   1.00
O79    O     0.42693   0.20724   0.27302   0.00000  Uiso   1.00
O80    O     0.07308   0.29275   0.72698   0.00000  Uiso   1.00
O81    O     0.29276   0.42692   0.27302   0.00000  Uiso   1.00
O82    O     0.20725   0.07307   0.72698   0.00000  Uiso   1.00
O83    O     0.07308   0.29275   0.27302   0.00000  Uiso   1.00
O84    O     0.42693   0.20724   0.72698   0.00000  Uiso   1.00
O85    O     0.20725   0.42692   0.72698   0.00000  Uiso   1.00
O86    O     0.29276   0.07308   0.27302   0.00000  Uiso   1.00
O87    O     0.42693   0.29275   0.72698   0.00000  Uiso   1.00
O88    O     0.07308   0.20724   0.27302   0.00000  Uiso   1.00
O89    O     0.29276   0.07308   0.72698   0.00000  Uiso   1.00
O90    O     0.20725   0.42692   0.27302   0.00000  Uiso   1.00
O91    O     0.07308   0.20724   0.72698   0.00000  Uiso   1.00
O92    O     0.42693   0.29275   0.27302   0.00000  Uiso   1.00
O93    O     0.45725   0.32307   0.77302   0.00000  Uiso   1.00
O94    O     0.04276   0.17692   0.22698   0.00000  Uiso   1.00
O95    O     0.17693   0.45724   0.77302   0.00000  Uiso   1.00
O96    O     0.32308   0.04276   0.22698   0.00000  Uiso   1.00
O97    O     0.04276   0.17692   0.77302   0.00000  Uiso   1.00
O98    O     0.45725   0.32307   0.22698   0.00000  Uiso   1.00
O99    O     0.32308   0.04276   0.77302   0.00000  Uiso   1.00
O100   O     0.17693   0.45724   0.22698   0.00000  Uiso   1.00
O101   O     0.45725   0.17692   0.22698   0.00000  Uiso   1.00
O102   O     0.04276   0.32307   0.77302   0.00000  Uiso   1.00
O103   O     0.17693   0.04276   0.22698   0.00000  Uiso   1.00
O104   O     0.32308   0.45724   0.77302   0.00000  Uiso   1.00
O105   O     0.04276   0.32307   0.22698   0.00000  Uiso   1.00
O106   O     0.45725   0.17692   0.77302   0.00000  Uiso   1.00
O107   O     0.32308   0.45724   0.22698   0.00000  Uiso   1.00
O108   O     0.17693   0.04276   0.77302   0.00000  Uiso   1.00
C109   C     0.48750   0.18574   0.47989   0.00000  Uiso   1.00
C110   C     0.01043   0.31652   0.52017   0.00000  Uiso   1.00
C111   C     0.31634   0.00083   0.47984   0.00000  Uiso   1.00
C112   C     0.18364   0.49995   0.52016   0.00000  Uiso   1.00
C113   C     0.01045   0.31655   0.47987   0.00000  Uiso   1.00
C114   C     0.48754   0.18570   0.52009   0.00000  Uiso   1.00
C115   C     0.18364   0.49995   0.47989   0.00000  Uiso   1.00
C116   C     0.31634   0.00085   0.52011   0.00000  Uiso   1.00
C117   C     0.25099   0.43411   0.97994   0.00000  Uiso   1.00
C118   C     0.24920   0.06688   0.02026   0.00000  Uiso   1.00
C119   C     0.06589   0.25045   0.97982   0.00000  Uiso   1.00
C120   C     0.43312   0.24938   0.02002   0.00000  Uiso   1.00
C121   C     0.24926   0.06693   0.97997   0.00000  Uiso   1.00
C122   C     0.25096   0.43405   0.02019   0.00000  Uiso   1.00
C123   C     0.43317   0.24946   0.97973   0.00000  Uiso   1.00
C124   C     0.06582   0.25049   0.02007   0.00000  Uiso   1.00
C125   C     0.25000   0.49996   0.35578   0.00000  Uiso   1.00
C126   C     0.25000   0.49998   0.64422   0.00000  Uiso   1.00
C127   C     0.49997   0.25033   0.35578   0.00000  Uiso   1.00
C128   C     0.49997   0.25026   0.64421   0.00000  Uiso   1.00
C129   C     0.49987   0.24995   0.85576   0.00000  Uiso   1.00
C130   C     0.49981   0.24996   0.14419   0.00000  Uiso   1.00
C131   C     0.25004   0.00020   0.85580   0.00000  Uiso   1.00
C132   C     0.25005   0.00013   0.14425   0.00000  Uiso   1.00
C133   C     0.18006   0.07008   0.24990   0.00000  Uiso   1.00
C134   C     0.32001   0.43007   0.74991   0.00000  Uiso   1.00
C135   C     0.42997   0.18004   0.24987   0.00000  Uiso   1.00
C136   C     0.07002   0.31999   0.75009   0.00000  Uiso   1.00
C137   C     0.32001   0.43006   0.25008   0.00000  Uiso   1.00
C138   C     0.18006   0.07009   0.75010   0.00000  Uiso   1.00
C139   C     0.06993   0.32010   0.25030   0.00000  Uiso   1.00
C140   C     0.42998   0.18003   0.75013   0.00000  Uiso   1.00
C141   C     0.18001   0.43001   0.74992   0.00000  Uiso   1.00
C142   C     0.32004   0.06997   0.25017   0.00000  Uiso   1.00
C143   C     0.43001   0.32004   0.74998   0.00000  Uiso   1.00
C144   C     0.06997   0.18003   0.24998   0.00000  Uiso   1.00
C145   C     0.32003   0.06998   0.74983   0.00000  Uiso   1.00
C146   C     0.18000   0.43003   0.24989   0.00000  Uiso   1.00
C147   C     0.06998   0.18003   0.75003   0.00000  Uiso   1.00
C148   C     0.43000   0.32003   0.25000   0.00000  Uiso   1.00
C149   C     0.14358   0.38338   0.21574   0.00000  Uiso   1.00
C150   C     0.35808   0.11483   0.78532   0.00000  Uiso   1.00
C151   C     0.11565   0.14292   0.21481   0.00000  Uiso   1.00
C152   C     0.38431   0.35749   0.78484   0.00000  Uiso   1.00
C153   C     0.35812   0.11484   0.21468   0.00000  Uiso   1.00
C154   C     0.14393   0.38315   0.78422   0.00000  Uiso   1.00
C155   C     0.38436   0.35753   0.21512   0.00000  Uiso   1.00
C156   C     0.11558   0.14283   0.78523   0.00000  Uiso   1.00
C157   C     0.14232   0.11548   0.78525   0.00000  Uiso   1.00
C158   C     0.35704   0.38427   0.21517   0.00000  Uiso   1.00
C159   C     0.11613   0.35702   0.78466   0.00000  Uiso   1.00
C160   C     0.38564   0.14140   0.21468   0.00000  Uiso   1.00
C161   C     0.35698   0.38420   0.78479   0.00000  Uiso   1.00
C162   C     0.14236   0.11554   0.21478   0.00000  Uiso   1.00
C163   C     0.38561   0.14137   0.78532   0.00000  Uiso   1.00
C164   C     0.11763   0.35540   0.21618   0.00000  Uiso   1.00
C165   C     0.39175   0.13534   0.71490   0.00000  Uiso   1.00
C166   C     0.10630   0.36687   0.28500   0.00000  Uiso   1.00
C167   C     0.36601   0.39318   0.71492   0.00000  Uiso   1.00
C168   C     0.13480   0.10790   0.28485   0.00000  Uiso   1.00
C169   C     0.10700   0.36595   0.71505   0.00000  Uiso   1.00
C170   C     0.39171   0.13532   0.28511   0.00000  Uiso   1.00
C171   C     0.13486   0.10798   0.71515   0.00000  Uiso   1.00
C172   C     0.36596   0.39310   0.28507   0.00000  Uiso   1.00
C173   C     0.39276   0.36580   0.28503   0.00000  Uiso   1.00
C174   C     0.10750   0.13460   0.71522   0.00000  Uiso   1.00
C175   C     0.36428   0.10880   0.28518   0.00000  Uiso   1.00
C176   C     0.13368   0.39336   0.71488   0.00000  Uiso   1.00
C177   C     0.10743   0.13452   0.28480   0.00000  Uiso   1.00
C178   C     0.39282   0.36589   0.71496   0.00000  Uiso   1.00
C179   C     0.13275   0.39454   0.28484   0.00000  Uiso   1.00
C180   C     0.36430   0.10884   0.71482   0.00000  Uiso   1.00
C181   C     0.49246   0.21832   0.45908   0.00000  Uiso   1.00
C182   C     0.00598   0.28387   0.54105   0.00000  Uiso   1.00
C183   C     0.28348   0.49923   0.45898   0.00000  Uiso   1.00
C184   C     0.21652   0.49882   0.54103   0.00000  Uiso   1.00
C185   C     0.00604   0.28392   0.45895   0.00000  Uiso   1.00
C186   C     0.49252   0.21825   0.54091   0.00000  Uiso   1.00
C187   C     0.21652   0.49879   0.45900   0.00000  Uiso   1.00
C188   C     0.28348   0.49926   0.54100   0.00000  Uiso   1.00
C189   C     0.25182   0.46707   0.95914   0.00000  Uiso   1.00
C190   C     0.25093   0.03396   0.04113   0.00000  Uiso   1.00
C191   C     0.03305   0.24889   0.95894   0.00000  Uiso   1.00
C192   C     0.46598   0.24830   0.04093   0.00000  Uiso   1.00
C193   C     0.25103   0.03407   0.95907   0.00000  Uiso   1.00
C194   C     0.25179   0.46694   0.04107   0.00000  Uiso   1.00
C195   C     0.46608   0.24843   0.95886   0.00000  Uiso   1.00
C196   C     0.03291   0.24898   0.04087   0.00000  Uiso   1.00
C197   C     0.09850   0.34776   0.25055   0.00000  Uiso   1.00
C198   C     0.40216   0.15167   0.75012   0.00000  Uiso   1.00
C199   C     0.15202   0.09826   0.24983   0.00000  Uiso   1.00
C200   C     0.34808   0.40204   0.74985   0.00000  Uiso   1.00
C201   C     0.40214   0.15169   0.24989   0.00000  Uiso   1.00
C202   C     0.09786   0.34834   0.75002   0.00000  Uiso   1.00
C203   C     0.34808   0.40203   0.25013   0.00000  Uiso   1.00
C204   C     0.15203   0.09828   0.75018   0.00000  Uiso   1.00
C205   C     0.09813   0.15208   0.75019   0.00000  Uiso   1.00
C206   C     0.40196   0.34820   0.25005   0.00000  Uiso   1.00
C207   C     0.15198   0.40188   0.74966   0.00000  Uiso   1.00
C208   C     0.34765   0.09853   0.25002   0.00000  Uiso   1.00
C209   C     0.40197   0.34821   0.74992   0.00000  Uiso   1.00
C210   C     0.09813   0.15209   0.24984   0.00000  Uiso   1.00
C211   C     0.34763   0.09855   0.74997   0.00000  Uiso   1.00
C212   C     0.15131   0.40262   0.25009   0.00000  Uiso   1.00
C213   C     0.49934   0.25111   0.47946   0.00000  Uiso   1.00
C214   C     0.49934   0.25108   0.52053   0.00000  Uiso   1.00
C215   C     0.25000   0.49888   0.47945   0.00000  Uiso   1.00
C216   C     0.25000   0.49890   0.52055   0.00000  Uiso   1.00
C217   C     0.25155   0.00055   0.97957   0.00000  Uiso   1.00
C218   C     0.25150   0.00049   0.02064   0.00000  Uiso   1.00
C219   C     0.49953   0.24852   0.97936   0.00000  Uiso   1.00
C220   C     0.49947   0.24849   0.02044   0.00000  Uiso   1.00
N221   N     0.16396   0.39044   0.18105   0.00000  Uiso   1.00
O222   O     0.18615   0.36575   0.16760   0.00000  Uiso   1.00
O223   O     0.15611   0.41880   0.15990   0.00000  Uiso   1.00
N224   N     0.33903   0.10631   0.82065   0.00000  Uiso   1.00
O225   O     0.30357   0.10782   0.82184   0.00000  Uiso   1.00
O226   O     0.35694   0.09695   0.85167   0.00000  Uiso   1.00
N227   N     0.10706   0.16200   0.17948   0.00000  Uiso   1.00
O228   O     0.10713   0.19753   0.17864   0.00000  Uiso   1.00
O229   O     0.10039   0.14397   0.14775   0.00000  Uiso   1.00
N230   N     0.39229   0.33803   0.81991   0.00000  Uiso   1.00
O231   O     0.36748   0.31725   0.83546   0.00000  Uiso   1.00
O232   O     0.42142   0.34610   0.83968   0.00000  Uiso   1.00
N233   N     0.33909   0.10636   0.17935   0.00000  Uiso   1.00
O234   O     0.30364   0.10791   0.17815   0.00000  Uiso   1.00
O235   O     0.35702   0.09696   0.14835   0.00000  Uiso   1.00
N236   N     0.16588   0.38867   0.81810   0.00000  Uiso   1.00
O237   O     0.20067   0.38178   0.81653   0.00000  Uiso   1.00
O238   O     0.15076   0.39609   0.85134   0.00000  Uiso   1.00
N239   N     0.39235   0.33809   0.18005   0.00000  Uiso   1.00
O240   O     0.36752   0.31739   0.16448   0.00000  Uiso   1.00
O241   O     0.42155   0.34608   0.16034   0.00000  Uiso   1.00
N242   N     0.10686   0.16175   0.82060   0.00000  Uiso   1.00
O243   O     0.10691   0.19728   0.82158   0.00000  Uiso   1.00
O244   O     0.10013   0.14359   0.85225   0.00000  Uiso   1.00
N245   N     0.16138   0.10710   0.82044   0.00000  Uiso   1.00
O246   O     0.18178   0.13185   0.83661   0.00000  Uiso   1.00
O247   O     0.15313   0.07771   0.83974   0.00000  Uiso   1.00
N248   N     0.33780   0.39263   0.17990   0.00000  Uiso   1.00
O249   O     0.30230   0.39229   0.17921   0.00000  Uiso   1.00
O250   O     0.35568   0.39923   0.14804   0.00000  Uiso   1.00
N251   N     0.10849   0.33732   0.81965   0.00000  Uiso   1.00
O252   O     0.13297   0.31546   0.83410   0.00000  Uiso   1.00
O253   O     0.07990   0.34573   0.84017   0.00000  Uiso   1.00
N254   N     0.39455   0.16025   0.17949   0.00000  Uiso   1.00
O255   O     0.38593   0.19453   0.17563   0.00000  Uiso   1.00
O256   O     0.41591   0.14495   0.15411   0.00000  Uiso   1.00
N257   N     0.33764   0.39246   0.82004   0.00000  Uiso   1.00
O258   O     0.30214   0.39211   0.82064   0.00000  Uiso   1.00
O259   O     0.35542   0.39899   0.85196   0.00000  Uiso   1.00
N260   N     0.16144   0.10721   0.17959   0.00000  Uiso   1.00
O261   O     0.18192   0.13195   0.16347   0.00000  Uiso   1.00
O262   O     0.15313   0.07788   0.16024   0.00000  Uiso   1.00
N263   N     0.39450   0.16019   0.82051   0.00000  Uiso   1.00
O264   O     0.38581   0.19444   0.82439   0.00000  Uiso   1.00
O265   O     0.41590   0.14490   0.84587   0.00000  Uiso   1.00
N266   N     0.11256   0.33300   0.18253   0.00000  Uiso   1.00
O267   O     0.11826   0.29800   0.18495   0.00000  Uiso   1.00
O268   O     0.10640   0.34776   0.14881   0.00000  Uiso   1.00
N269   N     0.40975   0.14482   0.67930   0.00000  Uiso   1.00
O270   O     0.44515   0.14337   0.67697   0.00000  Uiso   1.00
O271   O     0.39077   0.15307   0.64862   0.00000  Uiso   1.00
N272   N     0.08636   0.35919   0.31979   0.00000  Uiso   1.00
O273   O     0.06531   0.38405   0.33486   0.00000  Uiso   1.00
O274   O     0.09345   0.32964   0.33933   0.00000  Uiso   1.00
N275   N     0.35775   0.41248   0.67964   0.00000  Uiso   1.00
O276   O     0.35752   0.44802   0.67911   0.00000  Uiso   1.00
O277   O     0.35188   0.39466   0.64759   0.00000  Uiso   1.00
N278   N     0.14306   0.08874   0.32003   0.00000  Uiso   1.00
O279   O     0.11850   0.06777   0.33574   0.00000  Uiso   1.00
O280   O     0.17208   0.09732   0.33973   0.00000  Uiso   1.00
N281   N     0.08758   0.35753   0.68019   0.00000  Uiso   1.00
O282   O     0.05351   0.36696   0.67678   0.00000  Uiso   1.00
O283   O     0.10206   0.33556   0.65485   0.00000  Uiso   1.00
N284   N     0.40967   0.14479   0.32071   0.00000  Uiso   1.00
O285   O     0.44506   0.14335   0.32307   0.00000  Uiso   1.00
O286   O     0.39065   0.15300   0.35138   0.00000  Uiso   1.00
N287   N     0.14316   0.08887   0.67997   0.00000  Uiso   1.00
O288   O     0.11862   0.06793   0.66422   0.00000  Uiso   1.00
O289   O     0.17220   0.09748   0.66029   0.00000  Uiso   1.00
N290   N     0.35769   0.41236   0.32036   0.00000  Uiso   1.00
O291   O     0.35746   0.44790   0.32091   0.00000  Uiso   1.00
O292   O     0.35182   0.39450   0.35241   0.00000  Uiso   1.00
N293   N     0.41259   0.35801   0.31993   0.00000  Uiso   1.00
O294   O     0.43398   0.38269   0.33473   0.00000  Uiso   1.00
O295   O     0.40524   0.32869   0.33978   0.00000  Uiso   1.00
N296   N     0.08802   0.14260   0.68010   0.00000  Uiso   1.00
O297   O     0.05268   0.13957   0.67924   0.00000  Uiso   1.00
O298   O     0.10557   0.15030   0.64831   0.00000  Uiso   1.00
N299   N     0.35536   0.09038   0.32063   0.00000  Uiso   1.00
O300   O     0.37986   0.07028   0.33769   0.00000  Uiso   1.00
O301   O     0.32580   0.09915   0.33934   0.00000  Uiso   1.00
N302   N     0.14086   0.41368   0.67999   0.00000  Uiso   1.00
O303   O     0.14027   0.44922   0.68047   0.00000  Uiso   1.00
O304   O     0.14780   0.39683   0.64760   0.00000  Uiso   1.00
N305   N     0.08792   0.14249   0.31992   0.00000  Uiso   1.00
O306   O     0.05257   0.13959   0.32075   0.00000  Uiso   1.00
O307   O     0.10546   0.15008   0.35172   0.00000  Uiso   1.00
N308   N     0.41270   0.35818   0.68006   0.00000  Uiso   1.00
O309   O     0.43381   0.38302   0.66510   0.00000  Uiso   1.00
O310   O     0.40555   0.32878   0.66030   0.00000  Uiso   1.00
N311   N     0.14032   0.41465   0.31976   0.00000  Uiso   1.00
O312   O     0.14113   0.45018   0.31922   0.00000  Uiso   1.00
O313   O     0.14557   0.39758   0.35240   0.00000  Uiso   1.00
N314   N     0.35539   0.09046   0.67936   0.00000  Uiso   1.00
O315   O     0.37989   0.07036   0.66231   0.00000  Uiso   1.00
O316   O     0.32583   0.09925   0.66066   0.00000  Uiso   1.00
N317   N     0.01604   0.31617   0.39673   0.00000  Uiso   1.00
O318   O     0.49473   0.32772   0.36913   0.00000  Uiso   1.00
O319   O     0.04609   0.33375   0.40407   0.00000  Uiso   1.00
N320   N     0.48216   0.18588   0.60262   0.00000  Uiso   1.00
O321   O     0.00463   0.17215   0.62787   0.00000  Uiso   1.00
O322   O     0.45090   0.17007   0.59658   0.00000  Uiso   1.00
N323   N     0.18291   0.49598   0.39694   0.00000  Uiso   1.00
O324   O     0.17485   0.01975   0.37024   0.00000  Uiso   1.00
O325   O     0.16155   0.46806   0.40231   0.00000  Uiso   1.00
N326   N     0.31714   0.49680   0.60305   0.00000  Uiso   1.00
O327   O     0.32489   0.02060   0.62979   0.00000  Uiso   1.00
O328   O     0.33887   0.46916   0.59762   0.00000  Uiso   1.00
N329   N     0.48193   0.18606   0.39740   0.00000  Uiso   1.00
O330   O     0.00443   0.17220   0.37224   0.00000  Uiso   1.00
O331   O     0.45062   0.17034   0.40346   0.00000  Uiso   1.00
N332   N     0.01524   0.31616   0.60328   0.00000  Uiso   1.00
O333   O     0.49302   0.32792   0.62994   0.00000  Uiso   1.00
O334   O     0.04553   0.33365   0.59685   0.00000  Uiso   1.00
N335   N     0.31714   0.49670   0.39691   0.00000  Uiso   1.00
O336   O     0.32490   0.02045   0.37010   0.00000  Uiso   1.00
O337   O     0.33885   0.46905   0.40240   0.00000  Uiso   1.00
N338   N     0.18291   0.49601   0.60312   0.00000  Uiso   1.00
O339   O     0.17485   0.01976   0.62981   0.00000  Uiso   1.00
O340   O     0.16156   0.46808   0.59779   0.00000  Uiso   1.00
N341   N     0.25360   0.06772   0.89691   0.00000  Uiso   1.00
O342   O     0.23031   0.07526   0.86962   0.00000  Uiso   1.00
O343   O     0.28102   0.08959   0.90276   0.00000  Uiso   1.00
N344   N     0.25499   0.43319   0.10304   0.00000  Uiso   1.00
O345   O     0.23136   0.42471   0.12970   0.00000  Uiso   1.00
O346   O     0.28317   0.41218   0.09758   0.00000  Uiso   1.00
N347   N     0.43262   0.24545   0.89672   0.00000  Uiso   1.00
O348   O     0.42459   0.26890   0.86970   0.00000  Uiso   1.00
O349   O     0.41134   0.21750   0.90230   0.00000  Uiso   1.00
N350   N     0.06649   0.24797   0.10277   0.00000  Uiso   1.00
O351   O     0.07480   0.27414   0.12658   0.00000  Uiso   1.00
O352   O     0.08839   0.22022   0.09901   0.00000  Uiso   1.00
N353   N     0.25384   0.43350   0.89724   0.00000  Uiso   1.00
O354   O     0.22819   0.42465   0.87304   0.00000  Uiso   1.00
O355   O     0.28207   0.41227   0.90123   0.00000  Uiso   1.00
N356   N     0.25341   0.06752   0.10325   0.00000  Uiso   1.00
O357   O     0.22996   0.07511   0.13040   0.00000  Uiso   1.00
O358   O     0.28091   0.08933   0.09754   0.00000  Uiso   1.00
N359   N     0.06683   0.24615   0.89699   0.00000  Uiso   1.00
O360   O     0.07486   0.26982   0.87020   0.00000  Uiso   1.00
O361   O     0.08834   0.21837   0.90262   0.00000  Uiso   1.00
N362   N     0.43243   0.24510   0.10310   0.00000  Uiso   1.00
O363   O     0.42440   0.26836   0.13029   0.00000  Uiso   1.00
O364   O     0.41113   0.21721   0.09731   0.00000  Uiso   1.00
Zn365  Zn    0.70660   0.00000   0.21735   0.00000  Uiso   1.00
Zn366  Zn    0.79341   0.00000   0.78265   0.00000  Uiso   1.00
Zn367  Zn    0.50000   0.20659   0.21735   0.00000  Uiso   1.00
Zn368  Zn    0.50000   0.29340   0.78265   0.00000  Uiso   1.00
Zn369  Zn    0.79341   0.00000   0.21735   0.00000  Uiso   1.00
Zn370  Zn    0.70660   0.00000   0.78265   0.00000  Uiso   1.00
Zn371  Zn    0.50000   0.29340   0.21735   0.00000  Uiso   1.00
Zn372  Zn    0.50000   0.20659   0.78265   0.00000  Uiso   1.00
Zn373  Zn    0.95660   0.25000   0.71735   0.00000  Uiso   1.00
Zn374  Zn    0.54341   0.25000   0.28265   0.00000  Uiso   1.00
Zn375  Zn    0.75000   0.45659   0.71735   0.00000  Uiso   1.00
Zn376  Zn    0.75000   0.04341   0.28265   0.00000  Uiso   1.00
Zn377  Zn    0.54341   0.25000   0.71735   0.00000  Uiso   1.00
Zn378  Zn    0.95660   0.25000   0.28265   0.00000  Uiso   1.00
Zn379  Zn    0.75000   0.04341   0.71735   0.00000  Uiso   1.00
Zn380  Zn    0.75000   0.45659   0.28265   0.00000  Uiso   1.00
C381   C     0.50724   0.28355   0.41805   0.00000  Uiso   1.00
C382   C     0.99162   0.21840   0.58166   0.00000  Uiso   1.00
C383   C     0.71657   0.49877   0.41814   0.00000  Uiso   1.00
C384   C     0.78344   0.49923   0.58186   0.00000  Uiso   1.00
C385   C     0.99150   0.21853   0.41834   0.00000  Uiso   1.00
C386   C     0.50704   0.28346   0.58193   0.00000  Uiso   1.00
C387   C     0.78343   0.49917   0.41812   0.00000  Uiso   1.00
C388   C     0.71657   0.49880   0.58189   0.00000  Uiso   1.00
C389   C     0.75104   0.03401   0.91817   0.00000  Uiso   1.00
C390   C     0.75172   0.46690   0.08190   0.00000  Uiso   1.00
C391   C     0.96622   0.24851   0.91800   0.00000  Uiso   1.00
C392   C     0.53282   0.24921   0.08164   0.00000  Uiso   1.00
C393   C     0.75165   0.46717   0.91836   0.00000  Uiso   1.00
C394   C     0.75088   0.03383   0.08199   0.00000  Uiso   1.00
C395   C     0.53309   0.24890   0.91812   0.00000  Uiso   1.00
C396   C     0.96605   0.24828   0.08183   0.00000  Uiso   1.00
C397   C     0.99975   0.25082   0.39809   0.00000  Uiso   1.00
C398   C     0.99976   0.25070   0.60190   0.00000  Uiso   1.00
C399   C     0.75000   0.49996   0.39807   0.00000  Uiso   1.00
C400   C     0.75000   0.00001   0.60194   0.00000  Uiso   1.00
C401   C     0.75016   0.00050   0.89816   0.00000  Uiso   1.00
C402   C     0.75013   0.00029   0.10199   0.00000  Uiso   1.00
C403   C     0.99971   0.24987   0.89801   0.00000  Uiso   1.00
C404   C     0.99950   0.24987   0.10184   0.00000  Uiso   1.00
O405   O     0.75000  -0.00000   0.25000   0.00000  Uiso   1.00
O406   O     0.75000   0.00000   0.75000   0.00000  Uiso   1.00
O407   O     0.50000   0.25000   0.25000   0.00000  Uiso   1.00
O408   O     0.50000   0.25000   0.75000   0.00000  Uiso   1.00
O409   O     0.75000   0.46963   0.33755   0.00000  Uiso   1.00
O410   O     0.75000   0.03037   0.66245   0.00000  Uiso   1.00
O411   O     0.53037   0.25000   0.33755   0.00000  Uiso   1.00
O412   O     0.96964   0.25000   0.66245   0.00000  Uiso   1.00
O413   O     0.75000   0.03037   0.33755   0.00000  Uiso   1.00
O414   O     0.75000   0.46963   0.66245   0.00000  Uiso   1.00
O415   O     0.96964   0.25000   0.33755   0.00000  Uiso   1.00
O416   O     0.53037   0.25000   0.66245   0.00000  Uiso   1.00
O417   O     0.50000   0.21963   0.83755   0.00000  Uiso   1.00
O418   O     0.50000   0.28036   0.16245   0.00000  Uiso   1.00
O419   O     0.78037   0.00000   0.83755   0.00000  Uiso   1.00
O420   O     0.71964   0.00000   0.16245   0.00000  Uiso   1.00
O421   O     0.50000   0.28036   0.83755   0.00000  Uiso   1.00
O422   O     0.50000   0.21963   0.16245   0.00000  Uiso   1.00
O423   O     0.71964   0.00000   0.83755   0.00000  Uiso   1.00
O424   O     0.78037   0.00000   0.16245   0.00000  Uiso   1.00
H425   H     0.98405   0.15979   0.46537   0.00000  Uiso   1.00
H426   H     0.51346   0.34252   0.53467   0.00000  Uiso   1.00
H427   H     0.84243   0.00282   0.46530   0.00000  Uiso   1.00
H428   H     0.65753   0.00159   0.53470   0.00000  Uiso   1.00
H429   H     0.51341   0.34259   0.46541   0.00000  Uiso   1.00
H430   H     0.98413   0.15972   0.53458   0.00000  Uiso   1.00
H431   H     0.65753   0.00157   0.46537   0.00000  Uiso   1.00
H432   H     0.84243   0.00285   0.53463   0.00000  Uiso   1.00
H433   H     0.74965   0.40798   0.96539   0.00000  Uiso   1.00
H434   H     0.74702   0.09296   0.03481   0.00000  Uiso   1.00
H435   H     0.59200   0.25241   0.96533   0.00000  Uiso   1.00
H436   H     0.90699   0.25097   0.03453   0.00000  Uiso   1.00
H437   H     0.74711   0.09304   0.96546   0.00000  Uiso   1.00
H438   H     0.74953   0.40787   0.03468   0.00000  Uiso   1.00
H439   H     0.90707   0.25110   0.96518   0.00000  Uiso   1.00
H440   H     0.59189   0.25240   0.03462   0.00000  Uiso   1.00
O441   O     0.70725   0.07307   0.27302   0.00000  Uiso   1.00
O442   O     0.79276   0.42692   0.72698   0.00000  Uiso   1.00
O443   O     0.92693   0.20724   0.27302   0.00000  Uiso   1.00
O444   O     0.57308   0.29275   0.72698   0.00000  Uiso   1.00
O445   O     0.79276   0.42692   0.27302   0.00000  Uiso   1.00
O446   O     0.70725   0.07307   0.72698   0.00000  Uiso   1.00
O447   O     0.57308   0.29275   0.27302   0.00000  Uiso   1.00
O448   O     0.92693   0.20724   0.72698   0.00000  Uiso   1.00
O449   O     0.70725   0.42692   0.72698   0.00000  Uiso   1.00
O450   O     0.79276   0.07308   0.27302   0.00000  Uiso   1.00
O451   O     0.92693   0.29275   0.72698   0.00000  Uiso   1.00
O452   O     0.57308   0.20724   0.27302   0.00000  Uiso   1.00
O453   O     0.79276   0.07308   0.72698   0.00000  Uiso   1.00
O454   O     0.70725   0.42692   0.27302   0.00000  Uiso   1.00
O455   O     0.57308   0.20724   0.72698   0.00000  Uiso   1.00
O456   O     0.92693   0.29275   0.27302   0.00000  Uiso   1.00
O457   O     0.95725   0.32307   0.77302   0.00000  Uiso   1.00
O458   O     0.54276   0.17692   0.22698   0.00000  Uiso   1.00
O459   O     0.67693   0.45724   0.77302   0.00000  Uiso   1.00
O460   O     0.82308   0.04276   0.22698   0.00000  Uiso   1.00
O461   O     0.54276   0.17692   0.77302   0.00000  Uiso   1.00
O462   O     0.95725   0.32307   0.22698   0.00000  Uiso   1.00
O463   O     0.82308   0.04276   0.77302   0.00000  Uiso   1.00
O464   O     0.67693   0.45724   0.22698   0.00000  Uiso   1.00
O465   O     0.95725   0.17692   0.22698   0.00000  Uiso   1.00
O466   O     0.54276   0.32307   0.77302   0.00000  Uiso   1.00
O467   O     0.67693   0.04276   0.22698   0.00000  Uiso   1.00
O468   O     0.82308   0.45724   0.77302   0.00000  Uiso   1.00
O469   O     0.54276   0.32307   0.22698   0.00000  Uiso   1.00
O470   O     0.95725   0.17692   0.77302   0.00000  Uiso   1.00
O471   O     0.82308   0.45724   0.22698   0.00000  Uiso   1.00
O472   O     0.67693   0.04276   0.77302   0.00000  Uiso   1.00
C473   C     0.98750   0.18574   0.47989   0.00000  Uiso   1.00
C474   C     0.51043   0.31652   0.52017   0.00000  Uiso   1.00
C475   C     0.81634   0.00083   0.47984   0.00000  Uiso   1.00
C476   C     0.68364   0.49995   0.52016   0.00000  Uiso   1.00
C477   C     0.51045   0.31655   0.47987   0.00000  Uiso   1.00
C478   C     0.98754   0.18570   0.52009   0.00000  Uiso   1.00
C479   C     0.68364   0.49995   0.47989   0.00000  Uiso   1.00
C480   C     0.81634   0.00085   0.52011   0.00000  Uiso   1.00
C481   C     0.75099   0.43411   0.97994   0.00000  Uiso   1.00
C482   C     0.74920   0.06688   0.02026   0.00000  Uiso   1.00
C483   C     0.56589   0.25045   0.97982   0.00000  Uiso   1.00
C484   C     0.93312   0.24938   0.02002   0.00000  Uiso   1.00
C485   C     0.74926   0.06693   0.97997   0.00000  Uiso   1.00
C486   C     0.75096   0.43405   0.02019   0.00000  Uiso   1.00
C487   C     0.93317   0.24946   0.97973   0.00000  Uiso   1.00
C488   C     0.56582   0.25049   0.02007   0.00000  Uiso   1.00
C489   C     0.75000   0.49996   0.35578   0.00000  Uiso   1.00
C490   C     0.75000   0.49998   0.64422   0.00000  Uiso   1.00
C491   C     0.99997   0.25033   0.35578   0.00000  Uiso   1.00
C492   C     0.99997   0.25026   0.64421   0.00000  Uiso   1.00
C493   C     0.99987   0.24995   0.85576   0.00000  Uiso   1.00
C494   C     0.99981   0.24996   0.14419   0.00000  Uiso   1.00
C495   C     0.75004   0.00020   0.85580   0.00000  Uiso   1.00
C496   C     0.75005   0.00013   0.14425   0.00000  Uiso   1.00
C497   C     0.68006   0.07008   0.24990   0.00000  Uiso   1.00
C498   C     0.82001   0.43007   0.74991   0.00000  Uiso   1.00
C499   C     0.92997   0.18004   0.24987   0.00000  Uiso   1.00
C500   C     0.57002   0.31999   0.75009   0.00000  Uiso   1.00
C501   C     0.82001   0.43006   0.25008   0.00000  Uiso   1.00
C502   C     0.68006   0.07009   0.75010   0.00000  Uiso   1.00
C503   C     0.56993   0.32010   0.25030   0.00000  Uiso   1.00
C504   C     0.92998   0.18003   0.75013   0.00000  Uiso   1.00
C505   C     0.68001   0.43001   0.74992   0.00000  Uiso   1.00
C506   C     0.82004   0.06997   0.25017   0.00000  Uiso   1.00
C507   C     0.93001   0.32004   0.74998   0.00000  Uiso   1.00
C508   C     0.56997   0.18003   0.24998   0.00000  Uiso   1.00
C509   C     0.82003   0.06998   0.74983   0.00000  Uiso   1.00
C510   C     0.68000   0.43003   0.24989   0.00000  Uiso   1.00
C511   C     0.56998   0.18003   0.75003   0.00000  Uiso   1.00
C512   C     0.93000   0.32003   0.25000   0.00000  Uiso   1.00
C513   C     0.64358   0.38338   0.21574   0.00000  Uiso   1.00
C514   C     0.85808   0.11483   0.78532   0.00000  Uiso   1.00
C515   C     0.61565   0.14292   0.21481   0.00000  Uiso   1.00
C516   C     0.88431   0.35749   0.78484   0.00000  Uiso   1.00
C517   C     0.85812   0.11484   0.21468   0.00000  Uiso   1.00
C518   C     0.64393   0.38315   0.78422   0.00000  Uiso   1.00
C519   C     0.88436   0.35753   0.21512   0.00000  Uiso   1.00
C520   C     0.61558   0.14283   0.78523   0.00000  Uiso   1.00
C521   C     0.64232   0.11548   0.78525   0.00000  Uiso   1.00
C522   C     0.85704   0.38427   0.21517   0.00000  Uiso   1.00
C523   C     0.61613   0.35702   0.78466   0.00000  Uiso   1.00
C524   C     0.88564   0.14140   0.21468   0.00000  Uiso   1.00
C525   C     0.85698   0.38420   0.78479   0.00000  Uiso   1.00
C526   C     0.64236   0.11554   0.21478   0.00000  Uiso   1.00
C527   C     0.88561   0.14137   0.78532   0.00000  Uiso   1.00
C528   C     0.61763   0.35540   0.21618   0.00000  Uiso   1.00
C529   C     0.89175   0.13534   0.71490   0.00000  Uiso   1.00
C530   C     0.60630   0.36687   0.28500   0.00000  Uiso   1.00
C531   C     0.86601   0.39318   0.71492   0.00000  Uiso   1.00
C532   C     0.63480   0.10790   0.28485   0.00000  Uiso   1.00
C533   C     0.60700   0.36595   0.71505   0.00000  Uiso   1.00
C534   C     0.89171   0.13532   0.28511   0.00000  Uiso   1.00
C535   C     0.63486   0.10798   0.71515   0.00000  Uiso   1.00
C536   C     0.86596   0.39310   0.28507   0.00000  Uiso   1.00
C537   C     0.89276   0.36580   0.28503   0.00000  Uiso   1.00
C538   C     0.60750   0.13460   0.71522   0.00000  Uiso   1.00
C539   C     0.86428   0.10880   0.28518   0.00000  Uiso   1.00
C540   C     0.63368   0.39336   0.71488   0.00000  Uiso   1.00
C541   C     0.60743   0.13452   0.28480   0.00000  Uiso   1.00
C542   C     0.89282   0.36589   0.71496   0.00000  Uiso   1.00
C543   C     0.63275   0.39454   0.28484   0.00000  Uiso   1.00
C544   C     0.86430   0.10884   0.71482   0.00000  Uiso   1.00
C545   C     0.99246   0.21832   0.45908   0.00000  Uiso   1.00
C546   C     0.50598   0.28387   0.54105   0.00000  Uiso   1.00
C547   C     0.78348   0.49923   0.45898   0.00000  Uiso   1.00
C548   C     0.71652   0.49882   0.54103   0.00000  Uiso   1.00
C549   C     0.50604   0.28392   0.45895   0.00000  Uiso   1.00
C550   C     0.99252   0.21825   0.54091   0.00000  Uiso   1.00
C551   C     0.71652   0.49879   0.45900   0.00000  Uiso   1.00
C552   C     0.78348   0.49926   0.54100   0.00000  Uiso   1.00
C553   C     0.75182   0.46707   0.95914   0.00000  Uiso   1.00
C554   C     0.75093   0.03396   0.04113   0.00000  Uiso   1.00
C555   C     0.53305   0.24889   0.95894   0.00000  Uiso   1.00
C556   C     0.96598   0.24830   0.04093   0.00000  Uiso   1.00
C557   C     0.75103   0.03407   0.95907   0.00000  Uiso   1.00
C558   C     0.75179   0.46694   0.04107   0.00000  Uiso   1.00
C559   C     0.96608   0.24843   0.95886   0.00000  Uiso   1.00
C560   C     0.53291   0.24898   0.04087   0.00000  Uiso   1.00
C561   C     0.59850   0.34776   0.25055   0.00000  Uiso   1.00
C562   C     0.90216   0.15167   0.75012   0.00000  Uiso   1.00
C563   C     0.65202   0.09826   0.24983   0.00000  Uiso   1.00
C564   C     0.84808   0.40204   0.74985   0.00000  Uiso   1.00
C565   C     0.90214   0.15169   0.24989   0.00000  Uiso   1.00
C566   C     0.59786   0.34834   0.75002   0.00000  Uiso   1.00
C567   C     0.84808   0.40203   0.25013   0.00000  Uiso   1.00
C568   C     0.65203   0.09828   0.75018   0.00000  Uiso   1.00
C569   C     0.59813   0.15208   0.75019   0.00000  Uiso   1.00
C570   C     0.90196   0.34820   0.25005   0.00000  Uiso   1.00
C571   C     0.65198   0.40188   0.74966   0.00000  Uiso   1.00
C572   C     0.84765   0.09853   0.25002   0.00000  Uiso   1.00
C573   C     0.90197   0.34821   0.74992   0.00000  Uiso   1.00
C574   C     0.59813   0.15209   0.24984   0.00000  Uiso   1.00
C575   C     0.84763   0.09855   0.74997   0.00000  Uiso   1.00
C576   C     0.65131   0.40262   0.25009   0.00000  Uiso   1.00
C577   C     0.99934   0.25111   0.47946   0.00000  Uiso   1.00
C578   C     0.99934   0.25108   0.52053   0.00000  Uiso   1.00
C579   C     0.75000   0.49888   0.47945   0.00000  Uiso   1.00
C580   C     0.75000   0.49890   0.52055   0.00000  Uiso   1.00
C581   C     0.75155   0.00055   0.97957   0.00000  Uiso   1.00
C582   C     0.75150   0.00049   0.02064   0.00000  Uiso   1.00
C583   C     0.99953   0.24852   0.97936   0.00000  Uiso   1.00
C584   C     0.99947   0.24849   0.02044   0.00000  Uiso   1.00
N585   N     0.66396   0.39044   0.18105   0.00000  Uiso   1.00
O586   O     0.68615   0.36575   0.16760   0.00000  Uiso   1.00
O587   O     0.65611   0.41880   0.15990   0.00000  Uiso   1.00
N588   N     0.83903   0.10631   0.82065   0.00000  Uiso   1.00
O589   O     0.80357   0.10782   0.82184   0.00000  Uiso   1.00
O590   O     0.85694   0.09695   0.85167   0.00000  Uiso   1.00
N591   N     0.60706   0.16200   0.17948   0.00000  Uiso   1.00
O592   O     0.60713   0.19753   0.17864   0.00000  Uiso   1.00
O593   O     0.60039   0.14397   0.14775   0.00000  Uiso   1.00
N594   N     0.89229   0.33803   0.81991   0.00000  Uiso   1.00
O595   O     0.86748   0.31725   0.83546   0.00000  Uiso   1.00
O596   O     0.92142   0.34610   0.83968   0.00000  Uiso   1.00
N597   N     0.83909   0.10636   0.17935   0.00000  Uiso   1.00
O598   O     0.80364   0.10791   0.17815   0.00000  Uiso   1.00
O599   O     0.85702   0.09696   0.14835   0.00000  Uiso   1.00
N600   N     0.66588   0.38867   0.81810   0.00000  Uiso   1.00
O601   O     0.70067   0.38178   0.81653   0.00000  Uiso   1.00
O602   O     0.65076   0.39609   0.85134   0.00000  Uiso   1.00
N603   N     0.89235   0.33809   0.18005   0.00000  Uiso   1.00
O604   O     0.86752   0.31739   0.16448   0.00000  Uiso   1.00
O605   O     0.92155   0.34608   0.16034   0.00000  Uiso   1.00
N606   N     0.60686   0.16175   0.82060   0.00000  Uiso   1.00
O607   O     0.60691   0.19728   0.82158   0.00000  Uiso   1.00
O608   O     0.60013   0.14359   0.85225   0.00000  Uiso   1.00
N609   N     0.66138   0.10710   0.82044   0.00000  Uiso   1.00
O610   O     0.68178   0.13185   0.83661   0.00000  Uiso   1.00
O611   O     0.65313   0.07771   0.83974   0.00000  Uiso   1.00
N612   N     0.83780   0.39263   0.17990   0.00000  Uiso   1.00
O613   O     0.80230   0.39229   0.17921   0.00000  Uiso   1.00
O614   O     0.85568   0.39923   0.14804   0.00000  Uiso   1.00
N615   N     0.60849   0.33732   0.81965   0.00000  Uiso   1.00
O616   O     0.63297   0.31546   0.83410   0.00000  Uiso   1.00
O617   O     0.57990   0.34573   0.84017   0.00000  Uiso   1.00
N618   N     0.89455   0.16025   0.17949   0.00000  Uiso   1.00
O619   O     0.88593   0.19453   0.17563   0.00000  Uiso   1.00
O620   O     0.91591   0.14495   0.15411   0.00000  Uiso   1.00
N621   N     0.83764   0.39246   0.82004   0.00000  Uiso   1.00
O622   O     0.80214   0.39211   0.82064   0.00000  Uiso   1.00
O623   O     0.85542   0.39899   0.85196   0.00000  Uiso   1.00
N624   N     0.66144   0.10721   0.17959   0.00000  Uiso   1.00
O625   O     0.68192   0.13195   0.16347   0.00000  Uiso   1.00
O626   O     0.65313   0.07788   0.16024   0.00000  Uiso   1.00
N627   N     0.89450   0.16019   0.82051   0.00000  Uiso   1.00
O628   O     0.88581   0.19444   0.82439   0.00000  Uiso   1.00
O629   O     0.91590   0.14490   0.84587   0.00000  Uiso   1.00
N630   N     0.61256   0.33300   0.18253   0.00000  Uiso   1.00
O631   O     0.61826   0.29800   0.18495   0.00000  Uiso   1.00
O632   O     0.60640   0.34776   0.14881   0.00000  Uiso   1.00
N633   N     0.90975   0.14482   0.67930   0.00000  Uiso   1.00
O634   O     0.94515   0.14337   0.67697   0.00000  Uiso   1.00
O635   O     0.89077   0.15307   0.64862   0.00000  Uiso   1.00
N636   N     0.58636   0.35919   0.31979   0.00000  Uiso   1.00
O637   O     0.56531   0.38405   0.33486   0.00000  Uiso   1.00
O638   O     0.59345   0.32964   0.33933   0.00000  Uiso   1.00
N639   N     0.85775   0.41248   0.67964   0.00000  Uiso   1.00
O640   O     0.85752   0.44802   0.67911   0.00000  Uiso   1.00
O641   O     0.85188   0.39466   0.64759   0.00000  Uiso   1.00
N642   N     0.64306   0.08874   0.32003   0.00000  Uiso   1.00
O643   O     0.61850   0.06777   0.33574   0.00000  Uiso   1.00
O644   O     0.67208   0.09732   0.33973   0.00000  Uiso   1.00
N645   N     0.58758   0.35753   0.68019   0.00000  Uiso   1.00
O646   O     0.55351   0.36696   0.67678   0.00000  Uiso   1.00
O647   O     0.60206   0.33556   0.65485   0.00000  Uiso   1.00
N648   N     0.90967   0.14479   0.32071   0.00000  Uiso   1.00
O649   O     0.94506   0.14335   0.32307   0.00000  Uiso   1.00
O650   O     0.89065   0.15300   0.35138   0.00000  Uiso   1.00
N651   N     0.64316   0.08887   0.67997   0.00000  Uiso   1.00
O652   O     0.61862   0.06793   0.66422   0.00000  Uiso   1.00
O653   O     0.67220   0.09748   0.66029   0.00000  Uiso   1.00
N654   N     0.85769   0.41236   0.32036   0.00000  Uiso   1.00
O655   O     0.85746   0.44790   0.32091   0.00000  Uiso   1.00
O656   O     0.85182   0.39450   0.35241   0.00000  Uiso   1.00
N657   N     0.91259   0.35801   0.31993   0.00000  Uiso   1.00
O658   O     0.93398   0.38269   0.33473   0.00000  Uiso   1.00
O659   O     0.90524   0.32869   0.33978   0.00000  Uiso   1.00
N660   N     0.58802   0.14260   0.68010   0.00000  Uiso   1.00
O661   O     0.55268   0.13957   0.67924   0.00000  Uiso   1.00
O662   O     0.60557   0.15030   0.64831   0.00000  Uiso   1.00
N663   N     0.85536   0.09038   0.32063   0.00000  Uiso   1.00
O664   O     0.87986   0.07028   0.33769   0.00000  Uiso   1.00
O665   O     0.82580   0.09915   0.33934   0.00000  Uiso   1.00
N666   N     0.64086   0.41368   0.67999   0.00000  Uiso   1.00
O667   O     0.64027   0.44922   0.68047   0.00000  Uiso   1.00
O668   O     0.64780   0.39683   0.64760   0.00000  Uiso   1.00
N669   N     0.58792   0.14249   0.31992   0.00000  Uiso   1.00
O670   O     0.55257   0.13959   0.32075   0.00000  Uiso   1.00
O671   O     0.60546   0.15008   0.35172   0.00000  Uiso   1.00
N672   N     0.91270   0.35818   0.68006   0.00000  Uiso   1.00
O673   O     0.93381   0.38302   0.66510   0.00000  Uiso   1.00
O674   O     0.90555   0.32878   0.66030   0.00000  Uiso   1.00
N675   N     0.64032   0.41465   0.31976   0.00000  Uiso   1.00
O676   O     0.64113   0.45018   0.31922   0.00000  Uiso   1.00
O677   O     0.64557   0.39758   0.35240   0.00000  Uiso   1.00
N678   N     0.85539   0.09046   0.67936   0.00000  Uiso   1.00
O679   O     0.87989   0.07036   0.66231   0.00000  Uiso   1.00
O680   O     0.82583   0.09925   0.66066   0.00000  Uiso   1.00
N681   N     0.51604   0.31617   0.39673   0.00000  Uiso   1.00
O682   O     0.99473   0.32772   0.36913   0.00000  Uiso   1.00
O683   O     0.54609   0.33375   0.40407   0.00000  Uiso   1.00
N684   N     0.98216   0.18588   0.60262   0.00000  Uiso   1.00
O685   O     0.50463   0.17215   0.62787   0.00000  Uiso   1.00
O686   O     0.95090   0.17007   0.59658   0.00000  Uiso   1.00
N687   N     0.68291   0.49598   0.39694   0.00000  Uiso   1.00
O688   O     0.67485   0.01975   0.37024   0.00000  Uiso   1.00
O689   O     0.66155   0.46806   0.40231   0.00000  Uiso   1.00
N690   N     0.81714   0.49680   0.60305   0.00000  Uiso   1.00
O691   O     0.82489   0.02060   0.62979   0.00000  Uiso   1.00
O692   O     0.83887   0.46916   0.59762   0.00000  Uiso   1.00
N693   N     0.98193   0.18606   0.39740   0.00000  Uiso   1.00
O694   O     0.50443   0.17220   0.37224   0.00000  Uiso   1.00
O695   O     0.95062   0.17034   0.40346   0.00000  Uiso   1.00
N696   N     0.51524   0.31616   0.60328   0.00000  Uiso   1.00
O697   O     0.99302   0.32792   0.62994   0.00000  Uiso   1.00
O698   O     0.54553   0.33365   0.59685   0.00000  Uiso   1.00
N699   N     0.81714   0.49670   0.39691   0.00000  Uiso   1.00
O700   O     0.82490   0.02045   0.37010   0.00000  Uiso   1.00
O701   O     0.83885   0.46905   0.40240   0.00000  Uiso   1.00
N702   N     0.68291   0.49601   0.60312   0.00000  Uiso   1.00
O703   O     0.67485   0.01976   0.62981   0.00000  Uiso   1.00
O704   O     0.66156   0.46808   0.59779   0.00000  Uiso   1.00
N705   N     0.75360   0.06772   0.89691   0.00000  Uiso   1.00
O706   O     0.73031   0.07526   0.86962   0.00000  Uiso   1.00
O707   O     0.78102   0.08959   0.90276   0.00000  Uiso   1.00
N708   N     0.75499   0.43319   0.10304   0.00000  Uiso   1.00
O709   O     0.73136   0.42471   0.12970   0.00000  Uiso   1.00
O710   O     0.78317   0.41218   0.09758   0.00000  Uiso   1.00
N711   N     0.93262   0.24545   0.89672   0.00000  Uiso   1.00
O712   O     0.92459   0.26890   0.86970   0.00000  Uiso   1.00
O713   O     0.91134   0.21750   0.90230   0.00000  Uiso   1.00
N714   N     0.56649   0.24797   0.10277   0.00000  Uiso   1.00
O715   O     0.57480   0.27414   0.12658   0.00000  Uiso   1.00
O716   O     0.58839   0.22022   0.09901   0.00000  Uiso   1.00
N717   N     0.75384   0.43350   0.89724   0.00000  Uiso   1.00
O718   O     0.72819   0.42465   0.87304   0.00000  Uiso   1.00
O719   O     0.78207   0.41227   0.90123   0.00000  Uiso   1.00
N720   N     0.75341   0.06752   0.10325   0.00000  Uiso   1.00
O721   O     0.72996   0.07511   0.13040   0.00000  Uiso   1.00
O722   O     0.78091   0.08933   0.09754   0.00000  Uiso   1.00
N723   N     0.56683   0.24615   0.89699   0.00000  Uiso   1.00
O724   O     0.57486   0.26982   0.87020   0.00000  Uiso   1.00
O725   O     0.58834   0.21837   0.90262   0.00000  Uiso   1.00
N726   N     0.93243   0.24510   0.10310   0.00000  Uiso   1.00
O727   O     0.92440   0.26836   0.13029   0.00000  Uiso   1.00
O728   O     0.91113   0.21721   0.09731   0.00000  Uiso   1.00
Zn729  Zn    0.20660   0.50000   0.21735   0.00000  Uiso   1.00
Zn730  Zn    0.29341   0.50000   0.78265   0.00000  Uiso   1.00
Zn731  Zn    0.00000   0.70659   0.21735   0.00000  Uiso   1.00
Zn732  Zn    0.00000   0.79340   0.78265   0.00000  Uiso   1.00
Zn733  Zn    0.29341   0.50000   0.21735   0.00000  Uiso   1.00
Zn734  Zn    0.20660   0.50000   0.78265   0.00000  Uiso   1.00
Zn735  Zn    0.00000   0.79340   0.21735   0.00000  Uiso   1.00
Zn736  Zn    0.00000   0.70659   0.78265   0.00000  Uiso   1.00
Zn737  Zn    0.45660   0.75000   0.71735   0.00000  Uiso   1.00
Zn738  Zn    0.04341   0.75000   0.28265   0.00000  Uiso   1.00
Zn739  Zn    0.25000   0.95659   0.71735   0.00000  Uiso   1.00
Zn740  Zn    0.25000   0.54341   0.28265   0.00000  Uiso   1.00
Zn741  Zn    0.04341   0.75000   0.71735   0.00000  Uiso   1.00
Zn742  Zn    0.45660   0.75000   0.28265   0.00000  Uiso   1.00
Zn743  Zn    0.25000   0.54341   0.71735   0.00000  Uiso   1.00
Zn744  Zn    0.25000   0.95659   0.28265   0.00000  Uiso   1.00
C745   C     0.00724   0.78355   0.41805   0.00000  Uiso   1.00
C746   C     0.49162   0.71840   0.58166   0.00000  Uiso   1.00
C747   C     0.21657   0.99877   0.41814   0.00000  Uiso   1.00
C748   C     0.28344   0.99923   0.58186   0.00000  Uiso   1.00
C749   C     0.49150   0.71853   0.41834   0.00000  Uiso   1.00
C750   C     0.00704   0.78346   0.58193   0.00000  Uiso   1.00
C751   C     0.28343   0.99917   0.41812   0.00000  Uiso   1.00
C752   C     0.21657   0.99880   0.58189   0.00000  Uiso   1.00
C753   C     0.25104   0.53401   0.91817   0.00000  Uiso   1.00
C754   C     0.25172   0.96690   0.08190   0.00000  Uiso   1.00
C755   C     0.46622   0.74851   0.91800   0.00000  Uiso   1.00
C756   C     0.03282   0.74921   0.08164   0.00000  Uiso   1.00
C757   C     0.25165   0.96717   0.91836   0.00000  Uiso   1.00
C758   C     0.25088   0.53383   0.08199   0.00000  Uiso   1.00
C759   C     0.03309   0.74890   0.91812   0.00000  Uiso   1.00
C760   C     0.46605   0.74828   0.08183   0.00000  Uiso   1.00
C761   C     0.49975   0.75082   0.39809   0.00000  Uiso   1.00
C762   C     0.49976   0.75070   0.60190   0.00000  Uiso   1.00
C763   C     0.25000   0.99996   0.39807   0.00000  Uiso   1.00
C764   C     0.25000   0.50001   0.60194   0.00000  Uiso   1.00
C765   C     0.25016   0.50050   0.89816   0.00000  Uiso   1.00
C766   C     0.25013   0.50029   0.10199   0.00000  Uiso   1.00
C767   C     0.49971   0.74987   0.89801   0.00000  Uiso   1.00
C768   C     0.49950   0.74987   0.10184   0.00000  Uiso   1.00
O769   O     0.25000   0.50000   0.25000   0.00000  Uiso   1.00
O770   O     0.25000   0.50000   0.75000   0.00000  Uiso   1.00
O771   O     0.00000   0.75000   0.25000   0.00000  Uiso   1.00
O772   O     0.00000   0.75000   0.75000   0.00000  Uiso   1.00
O773   O     0.25000   0.96963   0.33755   0.00000  Uiso   1.00
O774   O     0.25000   0.53037   0.66245   0.00000  Uiso   1.00
O775   O     0.03037   0.75000   0.33755   0.00000  Uiso   1.00
O776   O     0.46964   0.75000   0.66245   0.00000  Uiso   1.00
O777   O     0.25000   0.53037   0.33755   0.00000  Uiso   1.00
O778   O     0.25000   0.96963   0.66245   0.00000  Uiso   1.00
O779   O     0.46964   0.75000   0.33755   0.00000  Uiso   1.00
O780   O     0.03037   0.75000   0.66245   0.00000  Uiso   1.00
O781   O     0.00000   0.71963   0.83755   0.00000  Uiso   1.00
O782   O     0.00000   0.78036   0.16245   0.00000  Uiso   1.00
O783   O     0.28037   0.50000   0.83755   0.00000  Uiso   1.00
O784   O     0.21964   0.50000   0.16245   0.00000  Uiso   1.00
O785   O     0.00000   0.78036   0.83755   0.00000  Uiso   1.00
O786   O     0.00000   0.71963   0.16245   0.00000  Uiso   1.00
O787   O     0.21964   0.50000   0.83755   0.00000  Uiso   1.00
O788   O     0.28037   0.50000   0.16245   0.00000  Uiso   1.00
H789   H     0.48405   0.65979   0.46537   0.00000  Uiso   1.00
H790   H     0.01346   0.84252   0.53467   0.00000  Uiso   1.00
H791   H     0.34243   0.50282   0.46530   0.00000  Uiso   1.00
H792   H     0.15753   0.50159   0.53470   0.00000  Uiso   1.00
H793   H     0.01341   0.84259   0.46541   0.00000  Uiso   1.00
H794   H     0.48413   0.65972   0.53458   0.00000  Uiso   1.00
H795   H     0.15753   0.50157   0.46537   0.00000  Uiso   1.00
H796   H     0.34243   0.50285   0.53463   0.00000  Uiso   1.00
H797   H     0.24965   0.90798   0.96539   0.00000  Uiso   1.00
H798   H     0.24702   0.59296   0.03481   0.00000  Uiso   1.00
H799   H     0.09200   0.75241   0.96533   0.00000  Uiso   1.00
H800   H     0.40699   0.75097   0.03453   0.00000  Uiso   1.00
H801   H     0.24711   0.59304   0.96546   0.00000  Uiso   1.00
H802   H     0.24953   0.90787   0.03468   0.00000  Uiso   1.00
H803   H     0.40707   0.75110   0.96518   0.00000  Uiso   1.00
H804   H     0.09189   0.75240   0.03462   0.00000  Uiso   1.00
O805   O     0.20725   0.57307   0.27302   0.00000  Uiso   1.00
O806   O     0.29276   0.92692   0.72698   0.00000  Uiso   1.00
O807   O     0.42693   0.70724   0.27302   0.00000  Uiso   1.00
O808   O     0.07308   0.79275   0.72698   0.00000  Uiso   1.00
O809   O     0.29276   0.92692   0.27302   0.00000  Uiso   1.00
O810   O     0.20725   0.57307   0.72698   0.00000  Uiso   1.00
O811   O     0.07308   0.79275   0.27302   0.00000  Uiso   1.00
O812   O     0.42693   0.70724   0.72698   0.00000  Uiso   1.00
O813   O     0.20725   0.92692   0.72698   0.00000  Uiso   1.00
O814   O     0.29276   0.57308   0.27302   0.00000  Uiso   1.00
O815   O     0.42693   0.79275   0.72698   0.00000  Uiso   1.00
O816   O     0.07308   0.70724   0.27302   0.00000  Uiso   1.00
O817   O     0.29276   0.57308   0.72698   0.00000  Uiso   1.00
O818   O     0.20725   0.92692   0.27302   0.00000  Uiso   1.00
O819   O     0.07308   0.70724   0.72698   0.00000  Uiso   1.00
O820   O     0.42693   0.79275   0.27302   0.00000  Uiso   1.00
O821   O     0.45725   0.82307   0.77302   0.00000  Uiso   1.00
O822   O     0.04276   0.67692   0.22698   0.00000  Uiso   1.00
O823   O     0.17693   0.95724   0.77302   0.00000  Uiso   1.00
O824   O     0.32308   0.54276   0.22698   0.00000  Uiso   1.00
O825   O     0.04276   0.67692   0.77302   0.00000  Uiso   1.00
O826   O     0.45725   0.82307   0.22698   0.00000  Uiso   1.00
O827   O     0.32308   0.54276   0.77302   0.00000  Uiso   1.00
O828   O     0.17693   0.95724   0.22698   0.00000  Uiso   1.00
O829   O     0.45725   0.67692   0.22698   0.00000  Uiso   1.00
O830   O     0.04276   0.82307   0.77302   0.00000  Uiso   1.00
O831   O     0.17693   0.54276   0.22698   0.00000  Uiso   1.00
O832   O     0.32308   0.95724   0.77302   0.00000  Uiso   1.00
O833   O     0.04276   0.82307   0.22698   0.00000  Uiso   1.00
O834   O     0.45725   0.67692   0.77302   0.00000  Uiso   1.00
O835   O     0.32308   0.95724   0.22698   0.00000  Uiso   1.00
O836   O     0.17693   0.54276   0.77302   0.00000  Uiso   1.00
C837   C     0.48750   0.68574   0.47989   0.00000  Uiso   1.00
C838   C     0.01043   0.81652   0.52017   0.00000  Uiso   1.00
C839   C     0.31634   0.50083   0.47984   0.00000  Uiso   1.00
C840   C     0.18364   0.99995   0.52016   0.00000  Uiso   1.00
C841   C     0.01045   0.81655   0.47987   0.00000  Uiso   1.00
C842   C     0.48754   0.68570   0.52009   0.00000  Uiso   1.00
C843   C     0.18364   0.99995   0.47989   0.00000  Uiso   1.00
C844   C     0.31634   0.50085   0.52011   0.00000  Uiso   1.00
C845   C     0.25099   0.93411   0.97994   0.00000  Uiso   1.00
C846   C     0.24920   0.56688   0.02026   0.00000  Uiso   1.00
C847   C     0.06589   0.75045   0.97982   0.00000  Uiso   1.00
C848   C     0.43312   0.74938   0.02002   0.00000  Uiso   1.00
C849   C     0.24926   0.56693   0.97997   0.00000  Uiso   1.00
C850   C     0.25096   0.93405   0.02019   0.00000  Uiso   1.00
C851   C     0.43317   0.74946   0.97973   0.00000  Uiso   1.00
C852   C     0.06582   0.75049   0.02007   0.00000  Uiso   1.00
C853   C     0.25000   0.99996   0.35578   0.00000  Uiso   1.00
C854   C     0.25000   0.99998   0.64422   0.00000  Uiso   1.00
C855   C     0.49997   0.75033   0.35578   0.00000  Uiso   1.00
C856   C     0.49997   0.75026   0.64421   0.00000  Uiso   1.00
C857   C     0.49987   0.74995   0.85576   0.00000  Uiso   1.00
C858   C     0.49981   0.74996   0.14419   0.00000  Uiso   1.00
C859   C     0.25004   0.50020   0.85580   0.00000  Uiso   1.00
C860   C     0.25005   0.50013   0.14425   0.00000  Uiso   1.00
C861   C     0.18006   0.57008   0.24990   0.00000  Uiso   1.00
C862   C     0.32001   0.93007   0.74991   0.00000  Uiso   1.00
C863   C     0.42997   0.68004   0.24987   0.00000  Uiso   1.00
C864   C     0.07002   0.81999   0.75009   0.00000  Uiso   1.00
C865   C     0.32001   0.93006   0.25008   0.00000  Uiso   1.00
C866   C     0.18006   0.57009   0.75010   0.00000  Uiso   1.00
C867   C     0.06993   0.82010   0.25030   0.00000  Uiso   1.00
C868   C     0.42998   0.68003   0.75013   0.00000  Uiso   1.00
C869   C     0.18001   0.93001   0.74992   0.00000  Uiso   1.00
C870   C     0.32004   0.56997   0.25017   0.00000  Uiso   1.00
C871   C     0.43001   0.82004   0.74998   0.00000  Uiso   1.00
C872   C     0.06997   0.68003   0.24998   0.00000  Uiso   1.00
C873   C     0.32003   0.56998   0.74983   0.00000  Uiso   1.00
C874   C     0.18000   0.93003   0.24989   0.00000  Uiso   1.00
C875   C     0.06998   0.68003   0.75003   0.00000  Uiso   1.00
C876   C     0.43000   0.82003   0.25000   0.00000  Uiso   1.00
C877   C     0.14358   0.88338   0.21574   0.00000  Uiso   1.00
C878   C     0.35808   0.61483   0.78532   0.00000  Uiso   1.00
C879   C     0.11565   0.64292   0.21481   0.00000  Uiso   1.00
C880   C     0.38431   0.85749   0.78484   0.00000  Uiso   1.00
C881   C     0.35812   0.61484   0.21468   0.00000  Uiso   1.00
C882   C     0.14393   0.88315   0.78422   0.00000  Uiso   1.00
C883   C     0.38436   0.85753   0.21512   0.00000  Uiso   1.00
C884   C     0.11558   0.64283   0.78523   0.00000  Uiso   1.00
C885   C     0.14232   0.61548   0.78525   0.00000  Uiso   1.00
C886   C     0.35704   0.88427   0.21517   0.00000  Uiso   1.00
C887   C     0.11613   0.85702   0.78466   0.00000  Uiso   1.00
C888   C     0.38564   0.64140   0.21468   0.00000  Uiso   1.00
C889   C     0.35698   0.88420   0.78479   0.00000  Uiso   1.00
C890   C     0.14236   0.61554   0.21478   0.00000  Uiso   1.00
C891   C     0.38561   0.64137   0.78532   0.00000  Uiso   1.00
C892   C     0.11763   0.85540   0.21618   0.00000  Uiso   1.00
C893   C     0.39175   0.63534   0.71490   0.00000  Uiso   1.00
C894   C     0.10630   0.86687   0.28500   0.00000  Uiso   1.00
C895   C     0.36601   0.89318   0.71492   0.00000  Uiso   1.00
C896   C     0.13480   0.60790   0.28485   0.00000  Uiso   1.00
C897   C     0.10700   0.86595   0.71505   0.00000  Uiso   1.00
C898   C     0.39171   0.63532   0.28511   0.00000  Uiso   1.00
C899   C     0.13486   0.60798   0.71515   0.00000  Uiso   1.00
C900   C     0.36596   0.89310   0.28507   0.00000  Uiso   1.00
C901   C     0.39276   0.86580   0.28503   0.00000  Uiso   1.00
C902   C     0.10750   0.63460   0.71522   0.00000  Uiso   1.00
C903   C     0.36428   0.60880   0.28518   0.00000  Uiso   1.00
C904   C     0.13368   0.89336   0.71488   0.00000  Uiso   1.00
C905   C     0.10743   0.63452   0.28480   0.00000  Uiso   1.00
C906   C     0.39282   0.86589   0.71496   0.00000  Uiso   1.00
C907   C     0.13275   0.89454   0.28484   0.00000  Uiso   1.00
C908   C     0.36430   0.60884   0.71482   0.00000  Uiso   1.00
C909   C     0.49246   0.71832   0.45908   0.00000  Uiso   1.00
C910   C     0.00598   0.78387   0.54105   0.00000  Uiso   1.00
C911   C     0.28348   0.99923   0.45898   0.00000  Uiso   1.00
C912   C     0.21652   0.99882   0.54103   0.00000  Uiso   1.00
C913   C     0.00604   0.78392   0.45895   0.00000  Uiso   1.00
C914   C     0.49252   0.71825   0.54091   0.00000  Uiso   1.00
C915   C     0.21652   0.99879   0.45900   0.00000  Uiso   1.00
C916   C     0.28348   0.99926   0.54100   0.00000  Uiso   1.00
C917   C     0.25182   0.96707   0.95914   0.00000  Uiso   1.00
C918   C     0.25093   0.53396   0.04113   0.00000  Uiso   1.00
C919   C     0.03305   0.74889   0.95894   0.00000  Uiso   1.00
C920   C     0.46598   0.74830   0.04093   0.00000  Uiso   1.00
C921   C     0.25103   0.53407   0.95907   0.00000  Uiso   1.00
C922   C     0.25179   0.96694   0.04107   0.00000  Uiso   1.00
C923   C     0.46608   0.74843   0.95886   0.00000  Uiso   1.00
C924   C     0.03291   0.74898   0.04087   0.00000  Uiso   1.00
C925   C     0.09850   0.84776   0.25055   0.00000  Uiso   1.00
C926   C     0.40216   0.65167   0.75012   0.00000  Uiso   1.00
C927   C     0.15202   0.59826   0.24983   0.00000  Uiso   1.00
C928   C     0.34808   0.90204   0.74985   0.00000  Uiso   1.00
C929   C     0.40214   0.65169   0.24989   0.00000  Uiso   1.00
C930   C     0.09786   0.84834   0.75002   0.00000  Uiso   1.00
C931   C     0.34808   0.90203   0.25013   0.00000  Uiso   1.00
C932   C     0.15203   0.59828   0.75018   0.00000  Uiso   1.00
C933   C     0.09813   0.65208   0.75019   0.00000  Uiso   1.00
C934   C     0.40196   0.84820   0.25005   0.00000  Uiso   1.00
C935   C     0.15198   0.90188   0.74966   0.00000  Uiso   1.00
C936   C     0.34765   0.59853   0.25002   0.00000  Uiso   1.00
C937   C     0.40197   0.84821   0.74992   0.00000  Uiso   1.00
C938   C     0.09813   0.65209   0.24984   0.00000  Uiso   1.00
C939   C     0.34763   0.59855   0.74997   0.00000  Uiso   1.00
C940   C     0.15131   0.90262   0.25009   0.00000  Uiso   1.00
C941   C     0.49934   0.75111   0.47946   0.00000  Uiso   1.00
C942   C     0.49934   0.75108   0.52053   0.00000  Uiso   1.00
C943   C     0.25000   0.99888   0.47945   0.00000  Uiso   1.00
C944   C     0.25000   0.99890   0.52055   0.00000  Uiso   1.00
C945   C     0.25155   0.50055   0.97957   0.00000  Uiso   1.00
C946   C     0.25150   0.50049   0.02064   0.00000  Uiso   1.00
C947   C     0.49953   0.74852   0.97936   0.00000  Uiso   1.00
C948   C     0.49947   0.74849   0.02044   0.00000  Uiso   1.00
N949   N     0.16396   0.89044   0.18105   0.00000  Uiso   1.00
O950   O     0.18615   0.86575   0.16760   0.00000  Uiso   1.00
O951   O     0.15611   0.91880   0.15990   0.00000  Uiso   1.00
N952   N     0.33903   0.60631   0.82065   0.00000  Uiso   1.00
O953   O     0.30357   0.60782   0.82184   0.00000  Uiso   1.00
O954   O     0.35694   0.59695   0.85167   0.00000  Uiso   1.00
N955   N     0.10706   0.66200   0.17948   0.00000  Uiso   1.00
O956   O     0.10713   0.69753   0.17864   0.00000  Uiso   1.00
O957   O     0.10039   0.64397   0.14775   0.00000  Uiso   1.00
N958   N     0.39229   0.83803   0.81991   0.00000  Uiso   1.00
O959   O     0.36748   0.81725   0.83546   0.00000  Uiso   1.00
O960   O     0.42142   0.84610   0.83968   0.00000  Uiso   1.00
N961   N     0.33909   0.60636   0.17935   0.00000  Uiso   1.00
O962   O     0.30364   0.60791   0.17815   0.00000  Uiso   1.00
O963   O     0.35702   0.59696   0.14835   0.00000  Uiso   1.00
N964   N     0.16588   0.88867   0.81810   0.00000  Uiso   1.00
O965   O     0.20067   0.88178   0.81653   0.00000  Uiso   1.00
O966   O     0.15076   0.89609   0.85134   0.00000  Uiso   1.00
N967   N     0.39235   0.83809   0.18005   0.00000  Uiso   1.00
O968   O     0.36752   0.81739   0.16448   0.00000  Uiso   1.00
O969   O     0.42155   0.84608   0.16034   0.00000  Uiso   1.00
N970   N     0.10686   0.66175   0.82060   0.00000  Uiso   1.00
O971   O     0.10691   0.69728   0.82158   0.00000  Uiso   1.00
O972   O     0.10013   0.64359   0.85225   0.00000  Uiso   1.00
N973   N     0.16138   0.60710   0.82044   0.00000  Uiso   1.00
O974   O     0.18178   0.63185   0.83661   0.00000  Uiso   1.00
O975   O     0.15313   0.57771   0.83974   0.00000  Uiso   1.00
N976   N     0.33780   0.89263   0.17990   0.00000  Uiso   1.00
O977   O     0.30230   0.89229   0.17921   0.00000  Uiso   1.00
O978   O     0.35568   0.89923   0.14804   0.00000  Uiso   1.00
N979   N     0.10849   0.83732   0.81965   0.00000  Uiso   1.00
O980   O     0.13297   0.81546   0.83410   0.00000  Uiso   1.00
O981   O     0.07990   0.84573   0.84017   0.00000  Uiso   1.00
N982   N     0.39455   0.66025   0.17949   0.00000  Uiso   1.00
O983   O     0.38593   0.69453   0.17563   0.00000  Uiso   1.00
O984   O     0.41591   0.64495   0.15411   0.00000  Uiso   1.00
N985   N     0.33764   0.89246   0.82004   0.00000  Uiso   1.00
O986   O     0.30214   0.89211   0.82064   0.00000  Uiso   1.00
O987   O     0.35542   0.89899   0.85196   0.00000  Uiso   1.00
N988   N     0.16144   0.60721   0.17959   0.00000  Uiso   1.00
O989   O     0.18192   0.63195   0.16347   0.00000  Uiso   1.00
O990   O     0.15313   0.57788   0.16024   0.00000  Uiso   1.00
N991   N     0.39450   0.66019   0.82051   0.00000  Uiso   1.00
O992   O     0.38581   0.69444   0.82439   0.00000  Uiso   1.00
O993   O     0.41590   0.64490   0.84587   0.00000  Uiso   1.00
N994   N     0.11256   0.83300   0.18253   0.00000  Uiso   1.00
O995   O     0.11826   0.79800   0.18495   0.00000  Uiso   1.00
O996   O     0.10640   0.84776   0.14881   0.00000  Uiso   1.00
N997   N     0.40975   0.64482   0.67930   0.00000  Uiso   1.00
O998   O     0.44515   0.64337   0.67697   0.00000  Uiso   1.00
O999   O     0.39077   0.65307   0.64862   0.00000  Uiso   1.00
N1000  N     0.08636   0.85919   0.31979   0.00000  Uiso   1.00
O1001  O     0.06531   0.88405   0.33486   0.00000  Uiso   1.00
O1002  O     0.09345   0.82964   0.33933   0.00000  Uiso   1.00
N1003  N     0.35775   0.91248   0.67964   0.00000  Uiso   1.00
O1004  O     0.35752   0.94802   0.67911   0.00000  Uiso   1.00
O1005  O     0.35188   0.89466   0.64759   0.00000  Uiso   1.00
N1006  N     0.14306   0.58874   0.32003   0.00000  Uiso   1.00
O1007  O     0.11850   0.56777   0.33574   0.00000  Uiso   1.00
O1008  O     0.17208   0.59732   0.33973   0.00000  Uiso   1.00
N1009  N     0.08758   0.85753   0.68019   0.00000  Uiso   1.00
O1010  O     0.05351   0.86696   0.67678   0.00000  Uiso   1.00
O1011  O     0.10206   0.83556   0.65485   0.00000  Uiso   1.00
N1012  N     0.40967   0.64479   0.32071   0.00000  Uiso   1.00
O1013  O     0.44506   0.64335   0.32307   0.00000  Uiso   1.00
O1014  O     0.39065   0.65300   0.35138   0.00000  Uiso   1.00
N1015  N     0.14316   0.58887   0.67997   0.00000  Uiso   1.00
O1016  O     0.11862   0.56793   0.66422   0.00000  Uiso   1.00
O1017  O     0.17220   0.59748   0.66029   0.00000  Uiso   1.00
N1018  N     0.35769   0.91236   0.32036   0.00000  Uiso   1.00
O1019  O     0.35746   0.94790   0.32091   0.00000  Uiso   1.00
O1020  O     0.35182   0.89450   0.35241   0.00000  Uiso   1.00
N1021  N     0.41259   0.85801   0.31993   0.00000  Uiso   1.00
O1022  O     0.43398   0.88269   0.33473   0.00000  Uiso   1.00
O1023  O     0.40524   0.82869   0.33978   0.00000  Uiso   1.00
N1024  N     0.08802   0.64260   0.68010   0.00000  Uiso   1.00
O1025  O     0.05268   0.63957   0.67924   0.00000  Uiso   1.00
O1026  O     0.10557   0.65030   0.64831   0.00000  Uiso   1.00
N1027  N     0.35536   0.59038   0.32063   0.00000  Uiso   1.00
O1028  O     0.37986   0.57028   0.33769   0.00000  Uiso   1.00
O1029  O     0.32580   0.59915   0.33934   0.00000  Uiso   1.00
N1030  N     0.14086   0.91368   0.67999   0.00000  Uiso   1.00
O1031  O     0.14027   0.94922   0.68047   0.00000  Uiso   1.00
O1032  O     0.14780   0.89683   0.64760   0.00000  Uiso   1.00
N1033  N     0.08792   0.64249   0.31992   0.00000  Uiso   1.00
O1034  O     0.05257   0.63959   0.32075   0.00000  Uiso   1.00
O1035  O     0.10546   0.65008   0.35172   0.00000  Uiso   1.00
N1036  N     0.41270   0.85818   0.68006   0.00000  Uiso   1.00
O1037  O     0.43381   0.88302   0.66510   0.00000  Uiso   1.00
O1038  O     0.40555   0.82878   0.66030   0.00000  Uiso   1.00
N1039  N     0.14032   0.91465   0.31976   0.00000  Uiso   1.00
O1040  O     0.14113   0.95018   0.31922   0.00000  Uiso   1.00
O1041  O     0.14557   0.89758   0.35240   0.00000  Uiso   1.00
N1042  N     0.35539   0.59046   0.67936   0.00000  Uiso   1.00
O1043  O     0.37989   0.57036   0.66231   0.00000  Uiso   1.00
O1044  O     0.32583   0.59925   0.66066   0.00000  Uiso   1.00
N1045  N     0.01604   0.81617   0.39673   0.00000  Uiso   1.00
O1046  O     0.49473   0.82772   0.36913   0.00000  Uiso   1.00
O1047  O     0.04609   0.83375   0.40407   0.00000  Uiso   1.00
N1048  N     0.48216   0.68588   0.60262   0.00000  Uiso   1.00
O1049  O     0.00463   0.67215   0.62787   0.00000  Uiso   1.00
O1050  O     0.45090   0.67007   0.59658   0.00000  Uiso   1.00
N1051  N     0.18291   0.99598   0.39694   0.00000  Uiso   1.00
O1052  O     0.17485   0.51975   0.37024   0.00000  Uiso   1.00
O1053  O     0.16155   0.96806   0.40231   0.00000  Uiso   1.00
N1054  N     0.31714   0.99680   0.60305   0.00000  Uiso   1.00
O1055  O     0.32489   0.52060   0.62979   0.00000  Uiso   1.00
O1056  O     0.33887   0.96916   0.59762   0.00000  Uiso   1.00
N1057  N     0.48193   0.68606   0.39740   0.00000  Uiso   1.00
O1058  O     0.00443   0.67220   0.37224   0.00000  Uiso   1.00
O1059  O     0.45062   0.67034   0.40346   0.00000  Uiso   1.00
N1060  N     0.01524   0.81616   0.60328   0.00000  Uiso   1.00
O1061  O     0.49302   0.82792   0.62994   0.00000  Uiso   1.00
O1062  O     0.04553   0.83365   0.59685   0.00000  Uiso   1.00
N1063  N     0.31714   0.99670   0.39691   0.00000  Uiso   1.00
O1064  O     0.32490   0.52045   0.37010   0.00000  Uiso   1.00
O1065  O     0.33885   0.96905   0.40240   0.00000  Uiso   1.00
N1066  N     0.18291   0.99601   0.60312   0.00000  Uiso   1.00
O1067  O     0.17485   0.51976   0.62981   0.00000  Uiso   1.00
O1068  O     0.16156   0.96808   0.59779   0.00000  Uiso   1.00
N1069  N     0.25360   0.56772   0.89691   0.00000  Uiso   1.00
O1070  O     0.23031   0.57526   0.86962   0.00000  Uiso   1.00
O1071  O     0.28102   0.58959   0.90276   0.00000  Uiso   1.00
N1072  N     0.25499   0.93319   0.10304   0.00000  Uiso   1.00
O1073  O     0.23136   0.92471   0.12970   0.00000  Uiso   1.00
O1074  O     0.28317   0.91218   0.09758   0.00000  Uiso   1.00
N1075  N     0.43262   0.74545   0.89672   0.00000  Uiso   1.00
O1076  O     0.42459   0.76890   0.86970   0.00000  Uiso   1.00
O1077  O     0.41134   0.71750   0.90230   0.00000  Uiso   1.00
N1078  N     0.06649   0.74797   0.10277   0.00000  Uiso   1.00
O1079  O     0.07480   0.77414   0.12658   0.00000  Uiso   1.00
O1080  O     0.08839   0.72022   0.09901   0.00000  Uiso   1.00
N1081  N     0.25384   0.93350   0.89724   0.00000  Uiso   1.00
O1082  O     0.22819   0.92465   0.87304   0.00000  Uiso   1.00
O1083  O     0.28207   0.91227   0.90123   0.00000  Uiso   1.00
N1084  N     0.25341   0.56752   0.10325   0.00000  Uiso   1.00
O1085  O     0.22996   0.57511   0.13040   0.00000  Uiso   1.00
O1086  O     0.28091   0.58933   0.09754   0.00000  Uiso   1.00
N1087  N     0.06683   0.74615   0.89699   0.00000  Uiso   1.00
O1088  O     0.07486   0.76982   0.87020   0.00000  Uiso   1.00
O1089  O     0.08834   0.71837   0.90262   0.00000  Uiso   1.00
N1090  N     0.43243   0.74510   0.10310   0.00000  Uiso   1.00
O1091  O     0.42440   0.76836   0.13029   0.00000  Uiso   1.00
O1092  O     0.41113   0.71721   0.09731   0.00000  Uiso   1.00
Zn1093 Zn    0.70660   0.50000   0.21735   0.00000  Uiso   1.00
Zn1094 Zn    0.79341   0.50000   0.78265   0.00000  Uiso   1.00
Zn1095 Zn    0.50000   0.70659   0.21735   0.00000  Uiso   1.00
Zn1096 Zn    0.50000   0.79340   0.78265   0.00000  Uiso   1.00
Zn1097 Zn    0.79341   0.50000   0.21735   0.00000  Uiso   1.00
Zn1098 Zn    0.70660   0.50000   0.78265   0.00000  Uiso   1.00
Zn1099 Zn    0.50000   0.79340   0.21735   0.00000  Uiso   1.00
Zn1100 Zn    0.50000   0.70659   0.78265   0.00000  Uiso   1.00
Zn1101 Zn    0.95660   0.75000   0.71735   0.00000  Uiso   1.00
Zn1102 Zn    0.54341   0.75000   0.28265   0.00000  Uiso   1.00
Zn1103 Zn    0.75000   0.95659   0.71735   0.00000  Uiso   1.00
Zn1104 Zn    0.75000   0.54341   0.28265   0.00000  Uiso   1.00
Zn1105 Zn    0.54341   0.75000   0.71735   0.00000  Uiso   1.00
Zn1106 Zn    0.95660   0.75000   0.28265   0.00000  Uiso   1.00
Zn1107 Zn    0.75000   0.54341   0.71735   0.00000  Uiso   1.00
Zn1108 Zn    0.75000   0.95659   0.28265   0.00000  Uiso   1.00
C1109  C     0.50724   0.78355   0.41805   0.00000  Uiso   1.00
C1110  C     0.99162   0.71840   0.58166   0.00000  Uiso   1.00
C1111  C     0.71657   0.99877   0.41814   0.00000  Uiso   1.00
C1112  C     0.78344   0.99923   0.58186   0.00000  Uiso   1.00
C1113  C     0.99150   0.71853   0.41834   0.00000  Uiso   1.00
C1114  C     0.50704   0.78346   0.58193   0.00000  Uiso   1.00
C1115  C     0.78343   0.99917   0.41812   0.00000  Uiso   1.00
C1116  C     0.71657   0.99880   0.58189   0.00000  Uiso   1.00
C1117  C     0.75104   0.53401   0.91817   0.00000  Uiso   1.00
C1118  C     0.75172   0.96690   0.08190   0.00000  Uiso   1.00
C1119  C     0.96622   0.74851   0.91800   0.00000  Uiso   1.00
C1120  C     0.53282   0.74921   0.08164   0.00000  Uiso   1.00
C1121  C     0.75165   0.96717   0.91836   0.00000  Uiso   1.00
C1122  C     0.75088   0.53383   0.08199   0.00000  Uiso   1.00
C1123  C     0.53309   0.74890   0.91812   0.00000  Uiso   1.00
C1124  C     0.96605   0.74828   0.08183   0.00000  Uiso   1.00
C1125  C     0.99975   0.75082   0.39809   0.00000  Uiso   1.00
C1126  C     0.99976   0.75070   0.60190   0.00000  Uiso   1.00
C1127  C     0.75000   0.99996   0.39807   0.00000  Uiso   1.00
C1128  C     0.75000   0.50001   0.60194   0.00000  Uiso   1.00
C1129  C     0.75016   0.50050   0.89816   0.00000  Uiso   1.00
C1130  C     0.75013   0.50029   0.10199   0.00000  Uiso   1.00
C1131  C     0.99971   0.74987   0.89801   0.00000  Uiso   1.00
C1132  C     0.99950   0.74987   0.10184   0.00000  Uiso   1.00
O1133  O     0.75000   0.50000   0.25000   0.00000  Uiso   1.00
O1134  O     0.75000   0.50000   0.75000   0.00000  Uiso   1.00
O1135  O     0.50000   0.75000   0.25000   0.00000  Uiso   1.00
O1136  O     0.50000   0.75000   0.75000   0.00000  Uiso   1.00
O1137  O     0.75000   0.96963   0.33755   0.00000  Uiso   1.00
O1138  O     0.75000   0.53037   0.66245   0.00000  Uiso   1.00
O1139  O     0.53037   0.75000   0.33755   0.00000  Uiso   1.00
O1140  O     0.96964   0.75000   0.66245   0.00000  Uiso   1.00
O1141  O     0.75000   0.53037   0.33755   0.00000  Uiso   1.00
O1142  O     0.75000   0.96963   0.66245   0.00000  Uiso   1.00
O1143  O     0.96964   0.75000   0.33755   0.00000  Uiso   1.00
O1144  O     0.53037   0.75000   0.66245   0.00000  Uiso   1.00
O1145  O     0.50000   0.71963   0.83755   0.00000  Uiso   1.00
O1146  O     0.50000   0.78036   0.16245   0.00000  Uiso   1.00
O1147  O     0.78037   0.50000   0.83755   0.00000  Uiso   1.00
O1148  O     0.71964   0.50000   0.16245   0.00000  Uiso   1.00
O1149  O     0.50000   0.78036   0.83755   0.00000  Uiso   1.00
O1150  O     0.50000   0.71963   0.16245   0.00000  Uiso   1.00
O1151  O     0.71964   0.50000   0.83755   0.00000  Uiso   1.00
O1152  O     0.78037   0.50000   0.16245   0.00000  Uiso   1.00
H1153  H     0.98405   0.65979   0.46537   0.00000  Uiso   1.00
H1154  H     0.51346   0.84252   0.53467   0.00000  Uiso   1.00
H1155  H     0.84243   0.50282   0.46530   0.00000  Uiso   1.00
H1156  H     0.65753   0.50159   0.53470   0.00000  Uiso   1.00
H1157  H     0.51341   0.84259   0.46541   0.00000  Uiso   1.00
H1158  H     0.98413   0.65972   0.53458   0.00000  Uiso   1.00
H1159  H     0.65753   0.50157   0.46537   0.00000  Uiso   1.00
H1160  H     0.84243   0.50285   0.53463   0.00000  Uiso   1.00
H1161  H     0.74965   0.90798   0.96539   0.00000  Uiso   1.00
H1162  H     0.74702   0.59296   0.03481   0.00000  Uiso   1.00
H1163  H     0.59200   0.75241   0.96533   0.00000  Uiso   1.00
H1164  H     0.90699   0.75097   0.03453   0.00000  Uiso   1.00
H1165  H     0.74711   0.59304   0.96546   0.00000  Uiso   1.00
H1166  H     0.74953   0.90787   0.03468   0.00000  Uiso   1.00
H1167  H     0.90707   0.75110   0.96518   0.00000  Uiso   1.00
H1168  H     0.59189   0.75240   0.03462   0.00000  Uiso   1.00
O1169  O     0.70725   0.57307   0.27302   0.00000  Uiso   1.00
O1170  O     0.79276   0.92692   0.72698   0.00000  Uiso   1.00
O1171  O     0.92693   0.70724   0.27302   0.00000  Uiso   1.00
O1172  O     0.57308   0.79275   0.72698   0.00000  Uiso   1.00
O1173  O     0.79276   0.92692   0.27302   0.00000  Uiso   1.00
O1174  O     0.70725   0.57307   0.72698   0.00000  Uiso   1.00
O1175  O     0.57308   0.79275   0.27302   0.00000  Uiso   1.00
O1176  O     0.92693   0.70724   0.72698   0.00000  Uiso   1.00
O1177  O     0.70725   0.92692   0.72698   0.00000  Uiso   1.00
O1178  O     0.79276   0.57308   0.27302   0.00000  Uiso   1.00
O1179  O     0.92693   0.79275   0.72698   0.00000  Uiso   1.00
O1180  O     0.57308   0.70724   0.27302   0.00000  Uiso   1.00
O1181  O     0.79276   0.57308   0.72698   0.00000  Uiso   1.00
O1182  O     0.70725   0.92692   0.27302   0.00000  Uiso   1.00
O1183  O     0.57308   0.70724   0.72698   0.00000  Uiso   1.00
O1184  O     0.92693   0.79275   0.27302   0.00000  Uiso   1.00
O1185  O     0.95725   0.82307   0.77302   0.00000  Uiso   1.00
O1186  O     0.54276   0.67692   0.22698   0.00000  Uiso   1.00
O1187  O     0.67693   0.95724   0.77302   0.00000  Uiso   1.00
O1188  O     0.82308   0.54276   0.22698   0.00000  Uiso   1.00
O1189  O     0.54276   0.67692   0.77302   0.00000  Uiso   1.00
O1190  O     0.95725   0.82307   0.22698   0.00000  Uiso   1.00
O1191  O     0.82308   0.54276   0.77302   0.00000  Uiso   1.00
O1192  O     0.67693   0.95724   0.22698   0.00000  Uiso   1.00
O1193  O     0.95725   0.67692   0.22698   0.00000  Uiso   1.00
O1194  O     0.54276   0.82307   0.77302   0.00000  Uiso   1.00
O1195  O     0.67693   0.54276   0.22698   0.00000  Uiso   1.00
O1196  O     0.82308   0.95724   0.77302   0.00000  Uiso   1.00
O1197  O     0.54276   0.82307   0.22698   0.00000  Uiso   1.00
O1198  O     0.95725   0.67692   0.77302   0.00000  Uiso   1.00
O1199  O     0.82308   0.95724   0.22698   0.00000  Uiso   1.00
O1200  O     0.67693   0.54276   0.77302   0.00000  Uiso   1.00
C1201  C     0.98750   0.68574   0.47989   0.00000  Uiso   1.00
C1202  C     0.51043   0.81652   0.52017   0.00000  Uiso   1.00
C1203  C     0.81634   0.50083   0.47984   0.00000  Uiso   1.00
C1204  C     0.68364   0.99995   0.52016   0.00000  Uiso   1.00
C1205  C     0.51045   0.81655   0.47987   0.00000  Uiso   1.00
C1206  C     0.98754   0.68570   0.52009   0.00000  Uiso   1.00
C1207  C     0.68364   0.99995   0.47989   0.00000  Uiso   1.00
C1208  C     0.81634   0.50085   0.52011   0.00000  Uiso   1.00
C1209  C     0.75099   0.93411   0.97994   0.00000  Uiso   1.00
C1210  C     0.74920   0.56688   0.02026   0.00000  Uiso   1.00
C1211  C     0.56589   0.75045   0.97982   0.00000  Uiso   1.00
C1212  C     0.93312   0.74938   0.02002   0.00000  Uiso   1.00
C1213  C     0.74926   0.56693   0.97997   0.00000  Uiso   1.00
C1214  C     0.75096   0.93405   0.02019   0.00000  Uiso   1.00
C1215  C     0.93317   0.74946   0.97973   0.00000  Uiso   1.00
C1216  C     0.56582   0.75049   0.02007   0.00000  Uiso   1.00
C1217  C     0.75000   0.99996   0.35578   0.00000  Uiso   1.00
C1218  C     0.75000   0.99998   0.64422   0.00000  Uiso   1.00
C1219  C     0.99997   0.75033   0.35578   0.00000  Uiso   1.00
C1220  C     0.99997   0.75026   0.64421   0.00000  Uiso   1.00
C1221  C     0.99987   0.74995   0.85576   0.00000  Uiso   1.00
C1222  C     0.99981   0.74996   0.14419   0.00000  Uiso   1.00
C1223  C     0.75004   0.50020   0.85580   0.00000  Uiso   1.00
C1224  C     0.75005   0.50013   0.14425   0.00000  Uiso   1.00
C1225  C     0.68006   0.57008   0.24990   0.00000  Uiso   1.00
C1226  C     0.82001   0.93007   0.74991   0.00000  Uiso   1.00
C1227  C     0.92997   0.68004   0.24987   0.00000  Uiso   1.00
C1228  C     0.57002   0.81999   0.75009   0.00000  Uiso   1.00
C1229  C     0.82001   0.93006   0.25008   0.00000  Uiso   1.00
C1230  C     0.68006   0.57009   0.75010   0.00000  Uiso   1.00
C1231  C     0.56993   0.82010   0.25030   0.00000  Uiso   1.00
C1232  C     0.92998   0.68003   0.75013   0.00000  Uiso   1.00
C1233  C     0.68001   0.93001   0.74992   0.00000  Uiso   1.00
C1234  C     0.82004   0.56997   0.25017   0.00000  Uiso   1.00
C1235  C     0.93001   0.82004   0.74998   0.00000  Uiso   1.00
C1236  C     0.56997   0.68003   0.24998   0.00000  Uiso   1.00
C1237  C     0.82003   0.56998   0.74983   0.00000  Uiso   1.00
C1238  C     0.68000   0.93003   0.24989   0.00000  Uiso   1.00
C1239  C     0.56998   0.68003   0.75003   0.00000  Uiso   1.00
C1240  C     0.93000   0.82003   0.25000   0.00000  Uiso   1.00
C1241  C     0.64358   0.88338   0.21574   0.00000  Uiso   1.00
C1242  C     0.85808   0.61483   0.78532   0.00000  Uiso   1.00
C1243  C     0.61565   0.64292   0.21481   0.00000  Uiso   1.00
C1244  C     0.88431   0.85749   0.78484   0.00000  Uiso   1.00
C1245  C     0.85812   0.61484   0.21468   0.00000  Uiso   1.00
C1246  C     0.64393   0.88315   0.78422   0.00000  Uiso   1.00
C1247  C     0.88436   0.85753   0.21512   0.00000  Uiso   1.00
C1248  C     0.61558   0.64283   0.78523   0.00000  Uiso   1.00
C1249  C     0.64232   0.61548   0.78525   0.00000  Uiso   1.00
C1250  C     0.85704   0.88427   0.21517   0.00000  Uiso   1.00
C1251  C     0.61613   0.85702   0.78466   0.00000  Uiso   1.00
C1252  C     0.88564   0.64140   0.21468   0.00000  Uiso   1.00
C1253  C     0.85698   0.88420   0.78479   0.00000  Uiso   1.00
C1254  C     0.64236   0.61554   0.21478   0.00000  Uiso   1.00
C1255  C     0.88561   0.64137   0.78532   0.00000  Uiso   1.00
C1256  C     0.61763   0.85540   0.21618   0.00000  Uiso   1.00
C1257  C     0.89175   0.63534   0.71490   0.00000  Uiso   1.00
C1258  C     0.60630   0.86687   0.28500   0.00000  Uiso   1.00
C1259  C     0.86601   0.89318   0.71492   0.00000  Uiso   1.00
C1260  C     0.63480   0.60790   0.28485   0.00000  Uiso   1.00
C1261  C     0.60700   0.86595   0.71505   0.00000  Uiso   1.00
C1262  C     0.89171   0.63532   0.28511   0.00000  Uiso   1.00
C1263  C     0.63486   0.60798   0.71515   0.00000  Uiso   1.00
C1264  C     0.86596   0.89310   0.28507   0.00000  Uiso   1.00
C1265  C     0.89276   0.86580   0.28503   0.00000  Uiso   1.00
C1266  C     0.60750   0.63460   0.71522   0.00000  Uiso   1.00
C1267  C     0.86428   0.60880   0.28518   0.00000  Uiso   1.00
C1268  C     0.63368   0.89336   0.71488   0.00000  Uiso   1.00
C1269  C     0.60743   0.63452   0.28480   0.00000  Uiso   1.00
C1270  C     0.89282   0.86589   0.71496   0.00000  Uiso   1.00
C1271  C     0.63275   0.89454   0.28484   0.00000  Uiso   1.00
C1272  C     0.86430   0.60884   0.71482   0.00000  Uiso   1.00
C1273  C     0.99246   0.71832   0.45908   0.00000  Uiso   1.00
C1274  C     0.50598   0.78387   0.54105   0.00000  Uiso   1.00
C1275  C     0.78348   0.99923   0.45898   0.00000  Uiso   1.00
C1276  C     0.71652   0.99882   0.54103   0.00000  Uiso   1.00
C1277  C     0.50604   0.78392   0.45895   0.00000  Uiso   1.00
C1278  C     0.99252   0.71825   0.54091   0.00000  Uiso   1.00
C1279  C     0.71652   0.99879   0.45900   0.00000  Uiso   1.00
C1280  C     0.78348   0.99926   0.54100   0.00000  Uiso   1.00
C1281  C     0.75182   0.96707   0.95914   0.00000  Uiso   1.00
C1282  C     0.75093   0.53396   0.04113   0.00000  Uiso   1.00
C1283  C     0.53305   0.74889   0.95894   0.00000  Uiso   1.00
C1284  C     0.96598   0.74830   0.04093   0.00000  Uiso   1.00
C1285  C     0.75103   0.53407   0.95907   0.00000  Uiso   1.00
C1286  C     0.75179   0.96694   0.04107   0.00000  Uiso   1.00
C1287  C     0.96608   0.74843   0.95886   0.00000  Uiso   1.00
C1288  C     0.53291   0.74898   0.04087   0.00000  Uiso   1.00
C1289  C     0.59850   0.84776   0.25055   0.00000  Uiso   1.00
C1290  C     0.90216   0.65167   0.75012   0.00000  Uiso   1.00
C1291  C     0.65202   0.59826   0.24983   0.00000  Uiso   1.00
C1292  C     0.84808   0.90204   0.74985   0.00000  Uiso   1.00
C1293  C     0.90214   0.65169   0.24989   0.00000  Uiso   1.00
C1294  C     0.59786   0.84834   0.75002   0.00000  Uiso   1.00
C1295  C     0.84808   0.90203   0.25013   0.00000  Uiso   1.00
C1296  C     0.65203   0.59828   0.75018   0.00000  Uiso   1.00
C1297  C     0.59813   0.65208   0.75019   0.00000  Uiso   1.00
C1298  C     0.90196   0.84820   0.25005   0.00000  Uiso   1.00
C1299  C     0.65198   0.90188   0.74966   0.00000  Uiso   1.00
C1300  C     0.84765   0.59853   0.25002   0.00000  Uiso   1.00
C1301  C     0.90197   0.84821   0.74992   0.00000  Uiso   1.00
C1302  C     0.59813   0.65209   0.24984   0.00000  Uiso   1.00
C1303  C     0.84763   0.59855   0.74997   0.00000  Uiso   1.00
C1304  C     0.65131   0.90262   0.25009   0.00000  Uiso   1.00
C1305  C     0.99934   0.75111   0.47946   0.00000  Uiso   1.00
C1306  C     0.99934   0.75108   0.52053   0.00000  Uiso   1.00
C1307  C     0.75000   0.99888   0.47945   0.00000  Uiso   1.00
C1308  C     0.75000   0.99890   0.52055   0.00000  Uiso   1.00
C1309  C     0.75155   0.50055   0.97957   0.00000  Uiso   1.00
C1310  C     0.75150   0.50049   0.02064   0.00000  Uiso   1.00
C1311  C     0.99953   0.74852   0.97936   0.00000  Uiso   1.00
C1312  C     0.99947   0.74849   0.02044   0.00000  Uiso   1.00
N1313  N     0.66396   0.89044   0.18105   0.00000  Uiso   1.00
O1314  O     0.68615   0.86575   0.16760   0.00000  Uiso   1.00
O1315  O     0.65611   0.91880   0.15990   0.00000  Uiso   1.00
N1316  N     0.83903   0.60631   0.82065   0.00000  Uiso   1.00
O1317  O     0.80357   0.60782   0.82184   0.00000  Uiso   1.00
O1318  O     0.85694   0.59695   0.85167   0.00000  Uiso   1.00
N1319  N     0.60706   0.66200   0.17948   0.00000  Uiso   1.00
O1320  O     0.60713   0.69753   0.17864   0.00000  Uiso   1.00
O1321  O     0.60039   0.64397   0.14775   0.00000  Uiso   1.00
N1322  N     0.89229   0.83803   0.81991   0.00000  Uiso   1.00
O1323  O     0.86748   0.81725   0.83546   0.00000  Uiso   1.00
O1324  O     0.92142   0.84610   0.83968   0.00000  Uiso   1.00
N1325  N     0.83909   0.60636   0.17935   0.00000  Uiso   1.00
O1326  O     0.80364   0.60791   0.17815   0.00000  Uiso   1.00
O1327  O     0.85702   0.59696   0.14835   0.00000  Uiso   1.00
N1328  N     0.66588   0.88867   0.81810   0.00000  Uiso   1.00
O1329  O     0.70067   0.88178   0.81653   0.00000  Uiso   1.00
O1330  O     0.65076   0.89609   0.85134   0.00000  Uiso   1.00
N1331  N     0.89235   0.83809   0.18005   0.00000  Uiso   1.00
O1332  O     0.86752   0.81739   0.16448   0.00000  Uiso   1.00
O1333  O     0.92155   0.84608   0.16034   0.00000  Uiso   1.00
N1334  N     0.60686   0.66175   0.82060   0.00000  Uiso   1.00
O1335  O     0.60691   0.69728   0.82158   0.00000  Uiso   1.00
O1336  O     0.60013   0.64359   0.85225   0.00000  Uiso   1.00
N1337  N     0.66138   0.60710   0.82044   0.00000  Uiso   1.00
O1338  O     0.68178   0.63185   0.83661   0.00000  Uiso   1.00
O1339  O     0.65313   0.57771   0.83974   0.00000  Uiso   1.00
N1340  N     0.83780   0.89263   0.17990   0.00000  Uiso   1.00
O1341  O     0.80230   0.89229   0.17921   0.00000  Uiso   1.00
O1342  O     0.85568   0.89923   0.14804   0.00000  Uiso   1.00
N1343  N     0.60849   0.83732   0.81965   0.00000  Uiso   1.00
O1344  O     0.63297   0.81546   0.83410   0.00000  Uiso   1.00
O1345  O     0.57990   0.84573   0.84017   0.00000  Uiso   1.00
N1346  N     0.89455   0.66025   0.17949   0.00000  Uiso   1.00
O1347  O     0.88593   0.69453   0.17563   0.00000  Uiso   1.00
O1348  O     0.91591   0.64495   0.15411   0.00000  Uiso   1.00
N1349  N     0.83764   0.89246   0.82004   0.00000  Uiso   1.00
O1350  O     0.80214   0.89211   0.82064   0.00000  Uiso   1.00
O1351  O     0.85542   0.89899   0.85196   0.00000  Uiso   1.00
N1352  N     0.66144   0.60721   0.17959   0.00000  Uiso   1.00
O1353  O     0.68192   0.63195   0.16347   0.00000  Uiso   1.00
O1354  O     0.65313   0.57788   0.16024   0.00000  Uiso   1.00
N1355  N     0.89450   0.66019   0.82051   0.00000  Uiso   1.00
O1356  O     0.88581   0.69444   0.82439   0.00000  Uiso   1.00
O1357  O     0.91590   0.64490   0.84587   0.00000  Uiso   1.00
N1358  N     0.61256   0.83300   0.18253   0.00000  Uiso   1.00
O1359  O     0.61826   0.79800   0.18495   0.00000  Uiso   1.00
O1360  O     0.60640   0.84776   0.14881   0.00000  Uiso   1.00
N1361  N     0.90975   0.64482   0.67930   0.00000  Uiso   1.00
O1362  O     0.94515   0.64337   0.67697   0.00000  Uiso   1.00
O1363  O     0.89077   0.65307   0.64862   0.00000  Uiso   1.00
N1364  N     0.58636   0.85919   0.31979   0.00000  Uiso   1.00
O1365  O     0.56531   0.88405   0.33486   0.00000  Uiso   1.00
O1366  O     0.59345   0.82964   0.33933   0.00000  Uiso   1.00
N1367  N     0.85775   0.91248   0.67964   0.00000  Uiso   1.00
O1368  O     0.85752   0.94802   0.67911   0.00000  Uiso   1.00
O1369  O     0.85188   0.89466   0.64759   0.00000  Uiso   1.00
N1370  N     0.64306   0.58874   0.32003   0.00000  Uiso   1.00
O1371  O     0.61850   0.56777   0.33574   0.00000  Uiso   1.00
O1372  O     0.67208   0.59732   0.33973   0.00000  Uiso   1.00
N1373  N     0.58758   0.85753   0.68019   0.00000  Uiso   1.00
O1374  O     0.55351   0.86696   0.67678   0.00000  Uiso   1.00
O1375  O     0.60206   0.83556   0.65485   0.00000  Uiso   1.00
N1376  N     0.90967   0.64479   0.32071   0.00000  Uiso   1.00
O1377  O     0.94506   0.64335   0.32307   0.00000  Uiso   1.00
O1378  O     0.89065   0.65300   0.35138   0.00000  Uiso   1.00
N1379  N     0.64316   0.58887   0.67997   0.00000  Uiso   1.00
O1380  O     0.61862   0.56793   0.66422   0.00000  Uiso   1.00
O1381  O     0.67220   0.59748   0.66029   0.00000  Uiso   1.00
N1382  N     0.85769   0.91236   0.32036   0.00000  Uiso   1.00
O1383  O     0.85746   0.94790   0.32091   0.00000  Uiso   1.00
O1384  O     0.85182   0.89450   0.35241   0.00000  Uiso   1.00
N1385  N     0.91259   0.85801   0.31993   0.00000  Uiso   1.00
O1386  O     0.93398   0.88269   0.33473   0.00000  Uiso   1.00
O1387  O     0.90524   0.82869   0.33978   0.00000  Uiso   1.00
N1388  N     0.58802   0.64260   0.68010   0.00000  Uiso   1.00
O1389  O     0.55268   0.63957   0.67924   0.00000  Uiso   1.00
O1390  O     0.60557   0.65030   0.64831   0.00000  Uiso   1.00
N1391  N     0.85536   0.59038   0.32063   0.00000  Uiso   1.00
O1392  O     0.87986   0.57028   0.33769   0.00000  Uiso   1.00
O1393  O     0.82580   0.59915   0.33934   0.00000  Uiso   1.00
N1394  N     0.64086   0.91368   0.67999   0.00000  Uiso   1.00
O1395  O     0.64027   0.94922   0.68047   0.00000  Uiso   1.00
O1396  O     0.64780   0.89683   0.64760   0.00000  Uiso   1.00
N1397  N     0.58792   0.64249   0.31992   0.00000  Uiso   1.00
O1398  O     0.55257   0.63959   0.32075   0.00000  Uiso   1.00
O1399  O     0.60546   0.65008   0.35172   0.00000  Uiso   1.00
N1400  N     0.91270   0.85818   0.68006   0.00000  Uiso   1.00
O1401  O     0.93381   0.88302   0.66510   0.00000  Uiso   1.00
O1402  O     0.90555   0.82878   0.66030   0.00000  Uiso   1.00
N1403  N     0.64032   0.91465   0.31976   0.00000  Uiso   1.00
O1404  O     0.64113   0.95018   0.31922   0.00000  Uiso   1.00
O1405  O     0.64557   0.89758   0.35240   0.00000  Uiso   1.00
N1406  N     0.85539   0.59046   0.67936   0.00000  Uiso   1.00
O1407  O     0.87989   0.57036   0.66231   0.00000  Uiso   1.00
O1408  O     0.82583   0.59925   0.66066   0.00000  Uiso   1.00
N1409  N     0.51604   0.81617   0.39673   0.00000  Uiso   1.00
O1410  O     0.99473   0.82772   0.36913   0.00000  Uiso   1.00
O1411  O     0.54609   0.83375   0.40407   0.00000  Uiso   1.00
N1412  N     0.98216   0.68588   0.60262   0.00000  Uiso   1.00
O1413  O     0.50463   0.67215   0.62787   0.00000  Uiso   1.00
O1414  O     0.95090   0.67007   0.59658   0.00000  Uiso   1.00
N1415  N     0.68291   0.99598   0.39694   0.00000  Uiso   1.00
O1416  O     0.67485   0.51975   0.37024   0.00000  Uiso   1.00
O1417  O     0.66155   0.96806   0.40231   0.00000  Uiso   1.00
N1418  N     0.81714   0.99680   0.60305   0.00000  Uiso   1.00
O1419  O     0.82489   0.52060   0.62979   0.00000  Uiso   1.00
O1420  O     0.83887   0.96916   0.59762   0.00000  Uiso   1.00
N1421  N     0.98193   0.68606   0.39740   0.00000  Uiso   1.00
O1422  O     0.50443   0.67220   0.37224   0.00000  Uiso   1.00
O1423  O     0.95062   0.67034   0.40346   0.00000  Uiso   1.00
N1424  N     0.51524   0.81616   0.60328   0.00000  Uiso   1.00
O1425  O     0.99302   0.82792   0.62994   0.00000  Uiso   1.00
O1426  O     0.54553   0.83365   0.59685   0.00000  Uiso   1.00
N1427  N     0.81714   0.99670   0.39691   0.00000  Uiso   1.00
O1428  O     0.82490   0.52045   0.37010   0.00000  Uiso   1.00
O1429  O     0.83885   0.96905   0.40240   0.00000  Uiso   1.00
N1430  N     0.68291   0.99601   0.60312   0.00000  Uiso   1.00
O1431  O     0.67485   0.51976   0.62981   0.00000  Uiso   1.00
O1432  O     0.66156   0.96808   0.59779   0.00000  Uiso   1.00
N1433  N     0.75360   0.56772   0.89691   0.00000  Uiso   1.00
O1434  O     0.73031   0.57526   0.86962   0.00000  Uiso   1.00
O1435  O     0.78102   0.58959   0.90276   0.00000  Uiso   1.00
N1436  N     0.75499   0.93319   0.10304   0.00000  Uiso   1.00
O1437  O     0.73136   0.92471   0.12970   0.00000  Uiso   1.00
O1438  O     0.78317   0.91218   0.09758   0.00000  Uiso   1.00
N1439  N     0.93262   0.74545   0.89672   0.00000  Uiso   1.00
O1440  O     0.92459   0.76890   0.86970   0.00000  Uiso   1.00
O1441  O     0.91134   0.71750   0.90230   0.00000  Uiso   1.00
N1442  N     0.56649   0.74797   0.10277   0.00000  Uiso   1.00
O1443  O     0.57480   0.77414   0.12658   0.00000  Uiso   1.00
O1444  O     0.58839   0.72022   0.09901   0.00000  Uiso   1.00
N1445  N     0.75384   0.93350   0.89724   0.00000  Uiso   1.00
O1446  O     0.72819   0.92465   0.87304   0.00000  Uiso   1.00
O1447  O     0.78207   0.91227   0.90123   0.00000  Uiso   1.00
N1448  N     0.75341   0.56752   0.10325   0.00000  Uiso   1.00
O1449  O     0.72996   0.57511   0.13040   0.00000  Uiso   1.00
O1450  O     0.78091   0.58933   0.09754   0.00000  Uiso   1.00
N1451  N     0.56683   0.74615   0.89699   0.00000  Uiso   1.00
O1452  O     0.57486   0.76982   0.87020   0.00000  Uiso   1.00
O1453  O     0.58834   0.71837   0.90262   0.00000  Uiso   1.00
N1454  N     0.93243   0.74510   0.10310   0.00000  Uiso   1.00
O1455  O     0.92440   0.76836   0.13029   0.00000  Uiso   1.00
O1456  O     0.91113   0.71721   0.09731   0.00000  Uiso   1.00
loop_
_geom_bond_atom_site_label_1
_geom_bond_atom_site_label_2
_geom_bond_distance
_geom_bond_site_symmetry_2
_ccdc_geom_bond_type
Zn1    O56     1.951   .     S
Zn1    O103    1.934   .     S
Zn1    O41     1.949   .     S
Zn1    O828    1.935   1_545 S
Zn2    O55     1.951   .     S
Zn2    O42     1.949   .     S
Zn2    O99     1.935   .     S
Zn2    O832    1.934   1_545 S
Zn3    O58     1.951   .     S
Zn3    O43     1.948   .     S
Zn3    O94     1.935   .     S
Zn3    O465    1.936   1_455 S
Zn4    O457    1.935   1_455 S
Zn4    O57     1.951   .     S
Zn4    O44     1.948   .     S
Zn4    O102    1.936   .     S
Zn5    O60     1.952   .     S
Zn5    O96     1.935   .     S
Zn5    O41     1.948   .     S
Zn5    O835    1.934   1_545 S
Zn6    O42     1.948   .     S
Zn6    O59     1.952   .     S
Zn6    O108    1.934   .     S
Zn6    O823    1.935   1_545 S
Zn7    O43     1.947   .     S
Zn7    O105    1.936   .     S
Zn7    O54     1.952   .     S
Zn7    O462    1.935   1_455 S
Zn8    O53     1.952   .     S
Zn8    O470    1.936   1_455 S
Zn8    O44     1.947   .     S
Zn8    O97     1.935   .     S
Zn9    O48     1.951   .     S
Zn9    O87     1.934   .     S
Zn9    O84     1.935   .     S
Zn9    O408    1.949   .     S
Zn10   O47     1.951   .     S
Zn10   O88     1.934   .     S
Zn10   O83     1.935   .     S
Zn10   O43     1.949   .     S
Zn11   O50     1.951   .     S
Zn11   O85     1.936   .     S
Zn11   O78     1.935   .     S
Zn11   O770    1.948   .     S
Zn12   O49     1.951   .     S
Zn12   O86     1.936   .     S
Zn12   O77     1.935   .     S
Zn12   O41     1.948   .     S
Zn13   O91     1.934   .     S
Zn13   O44     1.948   .     S
Zn13   O80     1.935   .     S
Zn13   O52     1.952   .     S
Zn14   O51     1.952   .     S
Zn14   O79     1.935   .     S
Zn14   O92     1.934   .     S
Zn14   O407    1.948   .     S
Zn15   O42     1.947   .     S
Zn15   O82     1.935   .     S
Zn15   O89     1.936   .     S
Zn15   O46     1.952   .     S
Zn16   O45     1.952   .     S
Zn16   O81     1.935   .     S
Zn16   O769    1.947   .     S
Zn16   O90     1.936   .     S
C17    C185    1.411   .     A
C17    N317    1.439   .     S
C17    C397    1.409   1_455 S
C18    N320    1.435   .     S
C18    C186    1.405   .     A
C18    C34     1.406   .     A
C19    C35     1.407   .     A
C19    C187    1.408   .     A
C19    N323    1.438   .     S
C20    C188    1.408   .     A
C20    N326    1.438   .     S
C20    C764    1.407   .     S
C21    C33     1.406   .     A
C21    C181    1.405   .     A
C21    N329    1.435   .     S
C22    C182    1.410   .     A
C22    N332    1.437   .     S
C22    C398    1.408   1_455 S
C23    C183    1.408   .     A
C23    N335    1.438   .     S
C23    C35     1.407   .     A
C24    C184    1.408   .     A
C24    N338    1.438   .     S
C24    C764    1.407   .     S
C25    C193    1.410   .     A
C25    N341    1.438   .     S
C25    C37     1.408   .     A
C26    C194    1.407   .     A
C26    N344    1.438   .     S
C26    C766    1.407   .     S
C27    C195    1.408   .     A
C27    N347    1.438   .     S
C27    C39     1.408   .     A
C28    N350    1.434   .     S
C28    C196    1.405   .     A
C28    C404    1.406   1_455 S
C29    C189    1.406   .     A
C29    N353    1.434   .     S
C29    C765    1.406   .     S
C30    C38     1.408   .     A
C30    C190    1.408   .     A
C30    N356    1.438   .     S
C31    N359    1.438   .     S
C31    C191    1.407   .     A
C31    C403    1.407   1_455 S
C32    N362    1.438   .     S
C32    C192    1.410   .     A
C32    C40     1.408   .     A
C33    C127    1.458   .     S
C33    C381    1.409   .     S
C34    C128    1.459   .     S
C34    C386    1.408   .     S
C35    C125    1.457   .     S
C36    C748    1.407   1_545 S
C36    C752    1.407   1_545 S
C36    C854    1.457   1_545 S
C37    C131    1.460   .     S
C37    C757    1.406   1_545 S
C38    C132    1.456   .     S
C38    C754    1.407   1_545 S
C39    C129    1.456   .     S
C39    C395    1.407   .     S
C40    C130    1.460   .     S
C40    C392    1.406   .     S
O41    Zn744   1.947   1_545 S
O42    Zn739   1.948   1_545 S
O43    Zn378   1.948   1_455 S
O44    Zn373   1.949   1_455 S
O45    C125    1.276   .     A
O46    C854    1.278   1_545 S
O47    C491    1.279   1_455 S
O48    C128    1.277   .     A
O49    C853    1.278   1_545 S
O50    C126    1.276   .     A
O51    C127    1.277   .     A
O52    C492    1.279   1_455 S
O53    C493    1.275   1_455 A
O54    C494    1.279   1_455 A
O55    C131    1.277   .     A
O56    C132    1.279   .     A
O57    C493    1.278   1_455 A
O58    C494    1.276   1_455 S
O59    C131    1.280   .     A
O60    C132    1.276   .     A
H61    C109    1.082   .     S
H62    C110    1.081   .     S
H63    C111    1.082   .     S
H64    C840    1.082   1_545 S
H65    C113    1.081   .     S
H66    C114    1.082   .     S
H67    C843    1.082   1_545 S
H68    C116    1.082   .     S
H69    C117    1.082   .     S
H70    C118    1.082   .     S
H71    C119    1.082   .     S
H72    C120    1.082   .     S
H73    C121    1.082   .     S
H74    C122    1.082   .     S
H75    C123    1.082   .     S
H76    C124    1.082   .     S
O77    C133    1.281   .     A
O78    C134    1.279   .     A
O79    C135    1.281   .     A
O80    C136    1.282   .     A
O81    C137    1.279   .     A
O82    C138    1.280   .     A
O83    C139    1.276   .     A
O84    C140    1.281   .     A
O85    C141    1.278   .     A
O86    C142    1.278   .     A
O87    C143    1.281   .     A
O88    C144    1.279   .     A
O89    C145    1.278   .     A
O90    C146    1.283   .     A
O91    C147    1.279   .     A
O92    C148    1.280   .     A
O93    Zn368   1.935   .     S
O93    C143    1.281   .     A
O94    C144    1.280   .     A
O95    C141    1.281   .     A
O95    Zn734   1.935   .     S
O96    C142    1.282   .     A
O97    C147    1.279   .     A
O98    C148    1.280   .     A
O98    Zn371   1.935   .     S
O99    C145    1.282   .     A
O100   C146    1.276   .     A
O100   Zn729   1.935   .     S
O101   C135    1.278   .     A
O101   Zn367   1.936   .     S
O102   C136    1.279   .     A
O103   C133    1.280   .     A
O104   C134    1.280   .     A
O104   Zn730   1.934   .     S
O105   C139    1.285   .     A
O106   C140    1.278   .     A
O106   Zn372   1.936   .     S
O107   C137    1.279   .     A
O107   Zn733   1.934   .     S
O108   C138    1.280   .     A
C109   C114    1.386   .     A
C109   C181    1.403   .     A
C110   C182    1.404   .     A
C110   C113    1.389   .     A
C111   C116    1.388   .     A
C111   C911    1.404   1_545 S
C112   C184    1.404   .     A
C112   C115    1.388   .     A
C112   H792    1.082   .     S
C113   C185    1.405   .     A
C114   C186    1.403   .     A
C115   C187    1.404   .     A
C115   H795    1.082   .     S
C116   C916    1.404   1_545 S
C117   C189    1.404   .     A
C117   C122    1.387   1_556 S
C118   C190    1.405   .     A
C118   C121    1.389   1_554 S
C119   C191    1.404   .     A
C119   C124    1.387   1_556 S
C120   C192    1.404   .     A
C120   C123    1.389   1_554 S
C121   C193    1.404   .     A
C121   C118    1.389   1_556 S
C122   C194    1.404   .     A
C122   C117    1.387   1_554 S
C123   C195    1.405   .     A
C123   C120    1.389   1_556 S
C124   C196    1.404   .     A
C124   C119    1.387   1_554 S
C125   O777    1.278   .     S
C126   C764    1.457   .     S
C126   O774    1.278   .     S
C127   O411    1.279   .     S
C128   O416    1.279   .     S
C129   O417    1.275   .     A
C129   O421    1.278   .     A
C130   O418    1.279   .     A
C130   O422    1.276   .     S
C133   C199    1.456   .     S
C134   C200    1.453   .     S
C135   C201    1.455   .     S
C136   C202    1.456   .     S
C137   C203    1.453   .     S
C138   C204    1.456   .     S
C139   C197    1.457   .     S
C140   C198    1.455   .     S
C141   C207    1.455   .     S
C142   C208    1.455   .     S
C143   C209    1.456   .     S
C144   C210    1.453   .     S
C145   C211    1.455   .     S
C146   C212    1.454   .     S
C147   C205    1.453   .     S
C148   C206    1.456   .     S
C149   N221    1.433   .     S
C149   C212    1.407   .     A
C149   C164    1.398   .     A
C150   C163    1.401   .     A
C150   N224    1.438   .     S
C150   C211    1.410   .     A
C151   N227    1.438   .     S
C151   C210    1.408   .     A
C151   C162    1.401   .     A
C152   C209    1.408   .     A
C152   C161    1.400   .     A
C152   N230    1.433   .     S
C153   C208    1.410   .     A
C153   C160    1.401   .     A
C153   N233    1.438   .     S
C154   C207    1.406   .     A
C154   C159    1.398   .     A
C154   N236    1.433   .     S
C155   C158    1.400   .     A
C155   N239    1.433   .     S
C155   C206    1.408   .     A
C156   C205    1.408   .     A
C156   C157    1.401   .     A
C156   N242    1.438   .     S
C157   C204    1.409   .     A
C157   N245    1.433   .     S
C158   C203    1.408   .     A
C158   N248    1.438   .     S
C159   N251    1.432   .     S
C159   C202    1.406   .     A
C160   C201    1.408   .     A
C160   N254    1.433   .     S
C161   C200    1.408   .     A
C161   N257    1.438   .     S
C162   N260    1.433   .     S
C162   C199    1.409   .     A
C163   C198    1.408   .     A
C163   N263    1.433   .     S
C164   N266    1.433   .     S
C164   C197    1.404   .     A
C165   N269    1.436   .     S
C165   C198    1.406   .     A
C165   C180    1.398   .     A
C166   N272    1.432   .     S
C166   C197    1.408   .     A
C166   C179    1.402   .     A
C167   C200    1.409   .     A
C167   N275    1.438   .     S
C167   C178    1.401   .     A
C168   N278    1.433   .     S
C168   C199    1.407   .     A
C168   C177    1.398   .     A
C169   C176    1.402   .     A
C169   N281    1.431   .     S
C169   C202    1.407   .     A
C170   N284    1.436   .     S
C170   C175    1.398   .     A
C170   C201    1.406   .     A
C171   C204    1.407   .     A
C171   N287    1.433   .     S
C171   C174    1.398   .     A
C172   C203    1.409   .     A
C172   N290    1.439   .     S
C172   C173    1.401   .     A
C173   C206    1.408   .     A
C173   N293    1.434   .     S
C174   N296    1.436   .     S
C174   C205    1.407   .     A
C175   N299    1.433   .     S
C175   C208    1.408   .     A
C176   N302    1.438   .     S
C176   C207    1.409   .     A
C177   C210    1.407   .     A
C177   N305    1.436   .     S
C178   N308    1.434   .     S
C178   C209    1.408   .     A
C179   N311    1.438   .     S
C179   C212    1.409   .     A
C180   C211    1.408   .     A
C180   N314    1.433   .     S
C181   C213    1.414   .     A
C182   C578    1.415   1_455 S
C183   C215    1.415   .     A
C183   C839    1.404   .     S
C184   C216    1.415   .     A
C185   C577    1.415   1_455 S
C186   C214    1.414   .     A
C187   C215    1.415   .     A
C188   C216    1.415   .     A
C188   C844    1.404   .     S
C189   C945    1.414   .     S
C190   C218    1.415   .     A
C191   C583    1.416   1_455 S
C192   C220    1.416   .     A
C193   C217    1.416   .     A
C194   C946    1.416   .     S
C195   C219    1.415   .     A
C196   C584    1.414   1_455 S
C213   C214    1.415   .     A
C213   C549    1.415   .     S
C214   C546    1.415   .     S
C215   C216    1.416   .     A
C217   C917    1.414   1_545 S
C217   C218    1.416   1_556 S
C218   C922    1.416   1_545 S
C218   C217    1.416   1_554 S
C219   C555    1.416   .     S
C219   C220    1.416   1_556 S
C220   C560    1.414   .     S
C220   C219    1.416   1_554 S
N221   O222    1.301   .     A
N221   O223    1.301   .     A
N224   O225    1.301   .     A
N224   O226    1.301   .     A
N227   O229    1.301   .     A
N227   O228    1.301   .     A
N230   O232    1.301   .     A
N230   O231    1.301   .     A
N233   O235    1.301   .     A
N233   O234    1.301   .     A
N236   O237    1.301   .     A
N236   O238    1.301   .     A
N239   O240    1.301   .     A
N239   O241    1.301   .     A
N242   O244    1.301   .     A
N242   O243    1.301   .     A
N245   O246    1.301   .     A
N245   O247    1.301   .     A
N248   O250    1.301   .     A
N248   O249    1.301   .     A
N251   O252    1.301   .     A
N251   O253    1.301   .     A
N254   O256    1.301   .     A
N254   O255    1.301   .     A
N257   O258    1.301   .     A
N257   O259    1.301   .     A
N260   O261    1.301   .     A
N260   O262    1.301   .     A
N263   O265    1.301   .     A
N263   O264    1.301   .     A
N266   O267    1.301   .     A
N266   O268    1.301   .     A
N269   O271    1.301   .     A
N269   O270    1.301   .     A
N272   O273    1.301   .     A
N272   O274    1.300   .     A
N275   O276    1.301   .     A
N275   O277    1.301   .     A
N278   O279    1.301   .     A
N278   O280    1.301   .     A
N281   O283    1.301   .     A
N281   O282    1.301   .     A
N284   O285    1.301   .     A
N284   O286    1.301   .     A
N287   O289    1.301   .     A
N287   O288    1.301   .     A
N290   O291    1.301   .     A
N290   O292    1.301   .     A
N293   O294    1.301   .     A
N293   O295    1.301   .     A
N296   O297    1.300   .     A
N296   O298    1.301   .     A
N299   O301    1.301   .     A
N299   O300    1.301   .     A
N302   O304    1.301   .     A
N302   O303    1.301   .     A
N305   O307    1.301   .     A
N305   O306    1.300   .     A
N308   O310    1.301   .     A
N308   O309    1.301   .     A
N311   O313    1.301   .     A
N311   O312    1.301   .     A
N314   O315    1.301   .     A
N314   O316    1.301   .     A
N317   O319    1.301   .     A
N317   O682    1.301   1_455 S
O318   N681    1.301   .     S
N320   O322    1.301   .     A
N320   O685    1.299   .     S
O321   N684    1.299   1_455 S
N323   O325    1.301   .     A
N323   O1052   1.300   .     S
O324   N1051   1.300   1_545 S
N326   O328    1.301   .     A
N326   O1055   1.300   .     S
O327   N1054   1.300   1_545 S
N329   O331    1.301   .     A
N329   O694    1.299   .     S
O330   N693    1.299   1_455 S
N332   O334    1.301   .     A
N332   O697    1.301   1_455 S
O333   N696    1.301   .     S
N335   O337    1.301   .     A
N335   O1064   1.300   .     S
O336   N1063   1.300   1_545 S
N338   O340    1.301   .     A
N338   O1067   1.300   .     S
O339   N1066   1.300   1_545 S
N341   O343    1.301   .     A
N341   O342    1.300   .     A
N344   O345    1.300   .     A
N344   O346    1.301   .     A
N347   O348    1.300   .     A
N347   O349    1.301   .     A
N350   O351    1.298   .     A
N350   O352    1.301   .     A
N353   O355    1.301   .     A
N353   O354    1.298   .     A
N356   O358    1.301   .     A
N356   O357    1.300   .     A
N359   O360    1.300   .     A
N359   O361    1.301   .     A
N362   O363    1.300   .     A
N362   O364    1.301   .     A
Zn365  O420    1.951   .     S
Zn365  O467    1.934   .     S
Zn365  O405    1.949   .     S
Zn365  O1192   1.935   1_545 S
Zn366  O419    1.951   .     S
Zn366  O406    1.949   .     S
Zn366  O463    1.935   .     S
Zn366  O1196   1.934   1_545 S
Zn367  O422    1.951   .     S
Zn367  O407    1.948   .     S
Zn367  O458    1.935   .     S
Zn368  O421    1.951   .     S
Zn368  O408    1.948   .     S
Zn368  O466    1.936   .     S
Zn369  O424    1.952   .     S
Zn369  O460    1.935   .     S
Zn369  O405    1.948   .     S
Zn369  O1199   1.934   1_545 S
Zn370  O406    1.948   .     S
Zn370  O423    1.952   .     S
Zn370  O472    1.934   .     S
Zn370  O1187   1.935   1_545 S
Zn371  O407    1.947   .     S
Zn371  O469    1.936   .     S
Zn371  O418    1.952   .     S
Zn372  O417    1.952   .     S
Zn372  O408    1.947   .     S
Zn372  O461    1.935   .     S
Zn373  O412    1.951   .     S
Zn373  O451    1.934   .     S
Zn373  O448    1.935   .     S
Zn373  O44     1.949   1_655 S
Zn374  O411    1.951   .     S
Zn374  O452    1.934   .     S
Zn374  O447    1.935   .     S
Zn374  O407    1.949   .     S
Zn375  O414    1.951   .     S
Zn375  O449    1.936   .     S
Zn375  O442    1.935   .     S
Zn375  O1134   1.948   .     S
Zn376  O413    1.951   .     S
Zn376  O450    1.936   .     S
Zn376  O441    1.935   .     S
Zn376  O405    1.948   .     S
Zn377  O455    1.934   .     S
Zn377  O408    1.948   .     S
Zn377  O444    1.935   .     S
Zn377  O416    1.952   .     S
Zn378  O415    1.952   .     S
Zn378  O443    1.935   .     S
Zn378  O456    1.934   .     S
Zn378  O43     1.948   1_655 S
Zn379  O406    1.947   .     S
Zn379  O446    1.935   .     S
Zn379  O453    1.936   .     S
Zn379  O410    1.952   .     S
Zn380  O409    1.952   .     S
Zn380  O445    1.935   .     S
Zn380  O1133   1.947   .     S
Zn380  O454    1.936   .     S
C381   C549    1.411   .     A
C381   N681    1.439   .     S
C382   N684    1.435   .     S
C382   C550    1.405   .     A
C382   C398    1.406   .     A
C383   C399    1.407   .     A
C383   C551    1.408   .     A
C383   N687    1.438   .     S
C384   C552    1.408   .     A
C384   N690    1.438   .     S
C384   C1128   1.407   .     S
C385   C397    1.406   .     A
C385   C545    1.405   .     A
C385   N693    1.435   .     S
C386   C546    1.410   .     A
C386   N696    1.437   .     S
C387   C547    1.408   .     A
C387   N699    1.438   .     S
C387   C399    1.407   .     A
C388   C548    1.408   .     A
C388   N702    1.438   .     S
C388   C1128   1.407   .     S
C389   C557    1.410   .     A
C389   N705    1.438   .     S
C389   C401    1.408   .     A
C390   C558    1.407   .     A
C390   N708    1.438   .     S
C390   C1130   1.407   .     S
C391   C559    1.408   .     A
C391   N711    1.438   .     S
C391   C403    1.408   .     A
C392   N714    1.434   .     S
C392   C560    1.405   .     A
C393   C553    1.406   .     A
C393   N717    1.434   .     S
C393   C1129   1.406   .     S
C394   C402    1.408   .     A
C394   C554    1.408   .     A
C394   N720    1.438   .     S
C395   N723    1.438   .     S
C395   C555    1.407   .     A
C396   N726    1.438   .     S
C396   C556    1.410   .     A
C396   C404    1.408   .     A
C397   C491    1.458   .     S
C397   C17     1.409   1_655 S
C398   C492    1.459   .     S
C398   C22     1.408   1_655 S
C399   C489    1.457   .     S
C400   C1112   1.407   1_545 S
C400   C1116   1.407   1_545 S
C400   C1218   1.457   1_545 S
C401   C495    1.460   .     S
C401   C1121   1.406   1_545 S
C402   C496    1.456   .     S
C402   C1118   1.407   1_545 S
C403   C493    1.456   .     S
C403   C31     1.407   1_655 S
C404   C494    1.460   .     S
C404   C28     1.406   1_655 S
O405   Zn1108  1.947   1_545 S
O406   Zn1103  1.948   1_545 S
O409   C489    1.276   .     A
O410   C1218   1.278   1_545 S
O412   C492    1.277   .     A
O413   C1217   1.278   1_545 S
O414   C490    1.276   .     A
O415   C491    1.277   .     A
O419   C495    1.277   .     A
O420   C496    1.279   .     A
O423   C495    1.280   .     A
O424   C496    1.276   .     A
H425   C473    1.082   .     S
H426   C474    1.081   .     S
H427   C475    1.082   .     S
H428   C1204   1.082   1_545 S
H429   C477    1.081   .     S
H430   C478    1.082   .     S
H431   C1207   1.082   1_545 S
H432   C480    1.082   .     S
H433   C481    1.082   .     S
H434   C482    1.082   .     S
H435   C483    1.082   .     S
H436   C484    1.082   .     S
H437   C485    1.082   .     S
H438   C486    1.082   .     S
H439   C487    1.082   .     S
H440   C488    1.082   .     S
O441   C497    1.281   .     A
O442   C498    1.279   .     A
O443   C499    1.281   .     A
O444   C500    1.282   .     A
O445   C501    1.279   .     A
O446   C502    1.280   .     A
O447   C503    1.276   .     A
O448   C504    1.281   .     A
O449   C505    1.278   .     A
O450   C506    1.278   .     A
O451   C507    1.281   .     A
O452   C508    1.279   .     A
O453   C509    1.278   .     A
O454   C510    1.283   .     A
O455   C511    1.279   .     A
O456   C512    1.280   .     A
O457   Zn4     1.935   1_655 S
O457   C507    1.281   .     A
O458   C508    1.280   .     A
O459   C505    1.281   .     A
O459   Zn1098  1.935   .     S
O460   C506    1.282   .     A
O461   C511    1.279   .     A
O462   C512    1.280   .     A
O462   Zn7     1.935   1_655 S
O463   C509    1.282   .     A
O464   C510    1.276   .     A
O464   Zn1093  1.935   .     S
O465   C499    1.278   .     A
O465   Zn3     1.936   1_655 S
O466   C500    1.279   .     A
O467   C497    1.280   .     A
O468   C498    1.280   .     A
O468   Zn1094  1.934   .     S
O469   C503    1.285   .     A
O470   C504    1.278   .     A
O470   Zn8     1.936   1_655 S
O471   C501    1.279   .     A
O471   Zn1097  1.934   .     S
O472   C502    1.280   .     A
C473   C478    1.386   .     A
C473   C545    1.403   .     A
C474   C546    1.404   .     A
C474   C477    1.389   .     A
C475   C480    1.388   .     A
C475   C1275   1.404   1_545 S
C476   C548    1.404   .     A
C476   C479    1.388   .     A
C476   H1156   1.082   .     S
C477   C549    1.405   .     A
C478   C550    1.403   .     A
C479   C551    1.404   .     A
C479   H1159   1.082   .     S
C480   C1280   1.404   1_545 S
C481   C553    1.404   .     A
C481   C486    1.387   1_556 S
C482   C554    1.405   .     A
C482   C485    1.389   1_554 S
C483   C555    1.404   .     A
C483   C488    1.387   1_556 S
C484   C556    1.404   .     A
C484   C487    1.389   1_554 S
C485   C557    1.404   .     A
C485   C482    1.389   1_556 S
C486   C558    1.404   .     A
C486   C481    1.387   1_554 S
C487   C559    1.405   .     A
C487   C484    1.389   1_556 S
C488   C560    1.404   .     A
C488   C483    1.387   1_554 S
C489   O1141   1.278   .     S
C490   C1128   1.457   .     S
C490   O1138   1.278   .     S
C491   O47     1.279   1_655 S
C492   O52     1.279   1_655 S
C493   O53     1.275   1_655 A
C493   O57     1.278   1_655 A
C494   O54     1.279   1_655 A
C494   O58     1.276   1_655 S
C497   C563    1.456   .     S
C498   C564    1.453   .     S
C499   C565    1.455   .     S
C500   C566    1.456   .     S
C501   C567    1.453   .     S
C502   C568    1.456   .     S
C503   C561    1.457   .     S
C504   C562    1.455   .     S
C505   C571    1.455   .     S
C506   C572    1.455   .     S
C507   C573    1.456   .     S
C508   C574    1.453   .     S
C509   C575    1.455   .     S
C510   C576    1.454   .     S
C511   C569    1.453   .     S
C512   C570    1.456   .     S
C513   N585    1.433   .     S
C513   C576    1.407   .     A
C513   C528    1.398   .     A
C514   C527    1.401   .     A
C514   N588    1.438   .     S
C514   C575    1.410   .     A
C515   N591    1.438   .     S
C515   C574    1.408   .     A
C515   C526    1.401   .     A
C516   C573    1.408   .     A
C516   C525    1.400   .     A
C516   N594    1.433   .     S
C517   C572    1.410   .     A
C517   C524    1.401   .     A
C517   N597    1.438   .     S
C518   C571    1.406   .     A
C518   C523    1.398   .     A
C518   N600    1.433   .     S
C519   C522    1.400   .     A
C519   N603    1.433   .     S
C519   C570    1.408   .     A
C520   C569    1.408   .     A
C520   C521    1.401   .     A
C520   N606    1.438   .     S
C521   C568    1.409   .     A
C521   N609    1.433   .     S
C522   C567    1.408   .     A
C522   N612    1.438   .     S
C523   N615    1.432   .     S
C523   C566    1.406   .     A
C524   C565    1.408   .     A
C524   N618    1.433   .     S
C525   C564    1.408   .     A
C525   N621    1.438   .     S
C526   N624    1.433   .     S
C526   C563    1.409   .     A
C527   C562    1.408   .     A
C527   N627    1.433   .     S
C528   N630    1.433   .     S
C528   C561    1.404   .     A
C529   N633    1.436   .     S
C529   C562    1.406   .     A
C529   C544    1.398   .     A
C530   N636    1.432   .     S
C530   C561    1.408   .     A
C530   C543    1.402   .     A
C531   C564    1.409   .     A
C531   N639    1.438   .     S
C531   C542    1.401   .     A
C532   N642    1.433   .     S
C532   C563    1.407   .     A
C532   C541    1.398   .     A
C533   C540    1.402   .     A
C533   N645    1.431   .     S
C533   C566    1.407   .     A
C534   N648    1.436   .     S
C534   C539    1.398   .     A
C534   C565    1.406   .     A
C535   C568    1.407   .     A
C535   N651    1.433   .     S
C535   C538    1.398   .     A
C536   C567    1.409   .     A
C536   N654    1.439   .     S
C536   C537    1.401   .     A
C537   C570    1.408   .     A
C537   N657    1.434   .     S
C538   N660    1.436   .     S
C538   C569    1.407   .     A
C539   N663    1.433   .     S
C539   C572    1.408   .     A
C540   N666    1.438   .     S
C540   C571    1.409   .     A
C541   C574    1.407   .     A
C541   N669    1.436   .     S
C542   N672    1.434   .     S
C542   C573    1.408   .     A
C543   N675    1.438   .     S
C543   C576    1.409   .     A
C544   C575    1.408   .     A
C544   N678    1.433   .     S
C545   C577    1.414   .     A
C547   C579    1.415   .     A
C547   C1203   1.404   .     S
C548   C580    1.415   .     A
C550   C578    1.414   .     A
C551   C579    1.415   .     A
C552   C580    1.415   .     A
C552   C1208   1.404   .     S
C553   C1309   1.414   .     S
C554   C582    1.415   .     A
C556   C584    1.416   .     A
C557   C581    1.416   .     A
C558   C1310   1.416   .     S
C559   C583    1.415   .     A
C577   C578    1.415   .     A
C577   C185    1.415   1_655 S
C578   C182    1.415   1_655 S
C579   C580    1.416   .     A
C581   C1281   1.414   1_545 S
C581   C582    1.416   1_556 S
C582   C1286   1.416   1_545 S
C582   C581    1.416   1_554 S
C583   C191    1.416   1_655 S
C583   C584    1.416   1_556 S
C584   C196    1.414   1_655 S
C584   C583    1.416   1_554 S
N585   O586    1.301   .     A
N585   O587    1.301   .     A
N588   O589    1.301   .     A
N588   O590    1.301   .     A
N591   O593    1.301   .     A
N591   O592    1.301   .     A
N594   O596    1.301   .     A
N594   O595    1.301   .     A
N597   O599    1.301   .     A
N597   O598    1.301   .     A
N600   O601    1.301   .     A
N600   O602    1.301   .     A
N603   O604    1.301   .     A
N603   O605    1.301   .     A
N606   O608    1.301   .     A
N606   O607    1.301   .     A
N609   O610    1.301   .     A
N609   O611    1.301   .     A
N612   O614    1.301   .     A
N612   O613    1.301   .     A
N615   O616    1.301   .     A
N615   O617    1.301   .     A
N618   O620    1.301   .     A
N618   O619    1.301   .     A
N621   O622    1.301   .     A
N621   O623    1.301   .     A
N624   O625    1.301   .     A
N624   O626    1.301   .     A
N627   O629    1.301   .     A
N627   O628    1.301   .     A
N630   O631    1.301   .     A
N630   O632    1.301   .     A
N633   O635    1.301   .     A
N633   O634    1.301   .     A
N636   O637    1.301   .     A
N636   O638    1.300   .     A
N639   O640    1.301   .     A
N639   O641    1.301   .     A
N642   O643    1.301   .     A
N642   O644    1.301   .     A
N645   O647    1.301   .     A
N645   O646    1.301   .     A
N648   O649    1.301   .     A
N648   O650    1.301   .     A
N651   O653    1.301   .     A
N651   O652    1.301   .     A
N654   O655    1.301   .     A
N654   O656    1.301   .     A
N657   O658    1.301   .     A
N657   O659    1.301   .     A
N660   O661    1.300   .     A
N660   O662    1.301   .     A
N663   O665    1.301   .     A
N663   O664    1.301   .     A
N666   O668    1.301   .     A
N666   O667    1.301   .     A
N669   O671    1.301   .     A
N669   O670    1.300   .     A
N672   O674    1.301   .     A
N672   O673    1.301   .     A
N675   O677    1.301   .     A
N675   O676    1.301   .     A
N678   O679    1.301   .     A
N678   O680    1.301   .     A
N681   O683    1.301   .     A
O682   N317    1.301   1_655 S
N684   O686    1.301   .     A
N684   O321    1.299   1_655 S
N687   O689    1.301   .     A
N687   O1416   1.300   .     S
O688   N1415   1.300   1_545 S
N690   O692    1.301   .     A
N690   O1419   1.300   .     S
O691   N1418   1.300   1_545 S
N693   O695    1.301   .     A
N693   O330    1.299   1_655 S
N696   O698    1.301   .     A
O697   N332    1.301   1_655 S
N699   O701    1.301   .     A
N699   O1428   1.300   .     S
O700   N1427   1.300   1_545 S
N702   O704    1.301   .     A
N702   O1431   1.300   .     S
O703   N1430   1.300   1_545 S
N705   O707    1.301   .     A
N705   O706    1.300   .     A
N708   O709    1.300   .     A
N708   O710    1.301   .     A
N711   O712    1.300   .     A
N711   O713    1.301   .     A
N714   O715    1.298   .     A
N714   O716    1.301   .     A
N717   O719    1.301   .     A
N717   O718    1.298   .     A
N720   O722    1.301   .     A
N720   O721    1.300   .     A
N723   O724    1.300   .     A
N723   O725    1.301   .     A
N726   O727    1.300   .     A
N726   O728    1.301   .     A
Zn729  O784    1.951   .     S
Zn729  O831    1.934   .     S
Zn729  O769    1.949   .     S
Zn730  O783    1.951   .     S
Zn730  O770    1.949   .     S
Zn730  O827    1.935   .     S
Zn731  O786    1.951   .     S
Zn731  O771    1.948   .     S
Zn731  O822    1.935   .     S
Zn731  O1193   1.936   1_455 S
Zn732  O1185   1.935   1_455 S
Zn732  O785    1.951   .     S
Zn732  O772    1.948   .     S
Zn732  O830    1.936   .     S
Zn733  O788    1.952   .     S
Zn733  O824    1.935   .     S
Zn733  O769    1.948   .     S
Zn734  O770    1.948   .     S
Zn734  O787    1.952   .     S
Zn734  O836    1.934   .     S
Zn735  O771    1.947   .     S
Zn735  O833    1.936   .     S
Zn735  O782    1.952   .     S
Zn735  O1190   1.935   1_455 S
Zn736  O781    1.952   .     S
Zn736  O1198   1.936   1_455 S
Zn736  O772    1.947   .     S
Zn736  O825    1.935   .     S
Zn737  O776    1.951   .     S
Zn737  O815    1.934   .     S
Zn737  O812    1.935   .     S
Zn737  O1136   1.949   .     S
Zn738  O775    1.951   .     S
Zn738  O816    1.934   .     S
Zn738  O811    1.935   .     S
Zn738  O771    1.949   .     S
Zn739  O778    1.951   .     S
Zn739  O813    1.936   .     S
Zn739  O806    1.935   .     S
Zn739  O42     1.948   1_565 S
Zn740  O777    1.951   .     S
Zn740  O814    1.936   .     S
Zn740  O805    1.935   .     S
Zn740  O769    1.948   .     S
Zn741  O819    1.934   .     S
Zn741  O772    1.948   .     S
Zn741  O808    1.935   .     S
Zn741  O780    1.952   .     S
Zn742  O779    1.952   .     S
Zn742  O807    1.935   .     S
Zn742  O820    1.934   .     S
Zn742  O1135   1.948   .     S
Zn743  O770    1.947   .     S
Zn743  O810    1.935   .     S
Zn743  O817    1.936   .     S
Zn743  O774    1.952   .     S
Zn744  O773    1.952   .     S
Zn744  O809    1.935   .     S
Zn744  O41     1.947   1_565 S
Zn744  O818    1.936   .     S
C745   C913    1.411   .     A
C745   N1045   1.439   .     S
C745   C1125   1.409   1_455 S
C746   N1048   1.435   .     S
C746   C914    1.405   .     A
C746   C762    1.406   .     A
C747   C763    1.407   .     A
C747   C915    1.408   .     A
C747   N1051   1.438   .     S
C748   C916    1.408   .     A
C748   N1054   1.438   .     S
C748   C36     1.407   1_565 S
C749   C761    1.406   .     A
C749   C909    1.405   .     A
C749   N1057   1.435   .     S
C750   C910    1.410   .     A
C750   N1060   1.437   .     S
C750   C1126   1.408   1_455 S
C751   C911    1.408   .     A
C751   N1063   1.438   .     S
C751   C763    1.407   .     A
C752   C912    1.408   .     A
C752   N1066   1.438   .     S
C752   C36     1.407   1_565 S
C753   C921    1.410   .     A
C753   N1069   1.438   .     S
C753   C765    1.408   .     A
C754   C922    1.407   .     A
C754   N1072   1.438   .     S
C754   C38     1.407   1_565 S
C755   C923    1.408   .     A
C755   N1075   1.438   .     S
C755   C767    1.408   .     A
C756   N1078   1.434   .     S
C756   C924    1.405   .     A
C756   C1132   1.406   1_455 S
C757   C917    1.406   .     A
C757   N1081   1.434   .     S
C757   C37     1.406   1_565 S
C758   C766    1.408   .     A
C758   C918    1.408   .     A
C758   N1084   1.438   .     S
C759   N1087   1.438   .     S
C759   C919    1.407   .     A
C759   C1131   1.407   1_455 S
C760   N1090   1.438   .     S
C760   C920    1.410   .     A
C760   C768    1.408   .     A
C761   C855    1.458   .     S
C761   C1109   1.409   .     S
C762   C856    1.459   .     S
C762   C1114   1.408   .     S
C763   C853    1.457   .     S
C765   C859    1.460   .     S
C766   C860    1.456   .     S
C767   C857    1.456   .     S
C767   C1123   1.407   .     S
C768   C858    1.460   .     S
C768   C1120   1.406   .     S
O771   Zn1106  1.948   1_455 S
O772   Zn1101  1.949   1_455 S
O773   C853    1.276   .     A
O775   C1219   1.279   1_455 S
O776   C856    1.277   .     A
O778   C854    1.276   .     A
O779   C855    1.277   .     A
O780   C1220   1.279   1_455 S
O781   C1221   1.275   1_455 A
O782   C1222   1.279   1_455 A
O783   C859    1.277   .     A
O784   C860    1.279   .     A
O785   C1221   1.278   1_455 A
O786   C1222   1.276   1_455 S
O787   C859    1.280   .     A
O788   C860    1.276   .     A
H789   C837    1.082   .     S
H790   C838    1.081   .     S
H791   C839    1.082   .     S
H793   C841    1.081   .     S
H794   C842    1.082   .     S
H796   C844    1.082   .     S
H797   C845    1.082   .     S
H798   C846    1.082   .     S
H799   C847    1.082   .     S
H800   C848    1.082   .     S
H801   C849    1.082   .     S
H802   C850    1.082   .     S
H803   C851    1.082   .     S
H804   C852    1.082   .     S
O805   C861    1.281   .     A
O806   C862    1.279   .     A
O807   C863    1.281   .     A
O808   C864    1.282   .     A
O809   C865    1.279   .     A
O810   C866    1.280   .     A
O811   C867    1.276   .     A
O812   C868    1.281   .     A
O813   C869    1.278   .     A
O814   C870    1.278   .     A
O815   C871    1.281   .     A
O816   C872    1.279   .     A
O817   C873    1.278   .     A
O818   C874    1.283   .     A
O819   C875    1.279   .     A
O820   C876    1.280   .     A
O821   Zn1096  1.935   .     S
O821   C871    1.281   .     A
O822   C872    1.280   .     A
O823   C869    1.281   .     A
O823   Zn6     1.935   1_565 S
O824   C870    1.282   .     A
O825   C875    1.279   .     A
O826   C876    1.280   .     A
O826   Zn1099  1.935   .     S
O827   C873    1.282   .     A
O828   C874    1.276   .     A
O828   Zn1     1.935   1_565 S
O829   C863    1.278   .     A
O829   Zn1095  1.936   .     S
O830   C864    1.279   .     A
O831   C861    1.280   .     A
O832   C862    1.280   .     A
O832   Zn2     1.934   1_565 S
O833   C867    1.285   .     A
O834   C868    1.278   .     A
O834   Zn1100  1.936   .     S
O835   C865    1.279   .     A
O835   Zn5     1.934   1_565 S
O836   C866    1.280   .     A
C837   C842    1.386   .     A
C837   C909    1.403   .     A
C838   C910    1.404   .     A
C838   C841    1.389   .     A
C839   C844    1.388   .     A
C840   C912    1.404   .     A
C840   C843    1.388   .     A
C840   H64     1.082   1_565 S
C841   C913    1.405   .     A
C842   C914    1.403   .     A
C843   C915    1.404   .     A
C843   H67     1.082   1_565 S
C845   C917    1.404   .     A
C845   C850    1.387   1_556 S
C846   C918    1.405   .     A
C846   C849    1.389   1_554 S
C847   C919    1.404   .     A
C847   C852    1.387   1_556 S
C848   C920    1.404   .     A
C848   C851    1.389   1_554 S
C849   C921    1.404   .     A
C849   C846    1.389   1_556 S
C850   C922    1.404   .     A
C850   C845    1.387   1_554 S
C851   C923    1.405   .     A
C851   C848    1.389   1_556 S
C852   C924    1.404   .     A
C852   C847    1.387   1_554 S
C853   O49     1.278   1_565 S
C854   C36     1.457   1_565 S
C854   O46     1.278   1_565 S
C855   O1139   1.279   .     S
C856   O1144   1.279   .     S
C857   O1145   1.275   .     A
C857   O1149   1.278   .     A
C858   O1146   1.279   .     A
C858   O1150   1.276   .     S
C861   C927    1.456   .     S
C862   C928    1.453   .     S
C863   C929    1.455   .     S
C864   C930    1.456   .     S
C865   C931    1.453   .     S
C866   C932    1.456   .     S
C867   C925    1.457   .     S
C868   C926    1.455   .     S
C869   C935    1.455   .     S
C870   C936    1.455   .     S
C871   C937    1.456   .     S
C872   C938    1.453   .     S
C873   C939    1.455   .     S
C874   C940    1.454   .     S
C875   C933    1.453   .     S
C876   C934    1.456   .     S
C877   N949    1.433   .     S
C877   C940    1.407   .     A
C877   C892    1.398   .     A
C878   C891    1.401   .     A
C878   N952    1.438   .     S
C878   C939    1.410   .     A
C879   N955    1.438   .     S
C879   C938    1.408   .     A
C879   C890    1.401   .     A
C880   C937    1.408   .     A
C880   C889    1.400   .     A
C880   N958    1.433   .     S
C881   C936    1.410   .     A
C881   C888    1.401   .     A
C881   N961    1.438   .     S
C882   C935    1.406   .     A
C882   C887    1.398   .     A
C882   N964    1.433   .     S
C883   C886    1.400   .     A
C883   N967    1.433   .     S
C883   C934    1.408   .     A
C884   C933    1.408   .     A
C884   C885    1.401   .     A
C884   N970    1.438   .     S
C885   C932    1.409   .     A
C885   N973    1.433   .     S
C886   C931    1.408   .     A
C886   N976    1.438   .     S
C887   N979    1.432   .     S
C887   C930    1.406   .     A
C888   C929    1.408   .     A
C888   N982    1.433   .     S
C889   C928    1.408   .     A
C889   N985    1.438   .     S
C890   N988    1.433   .     S
C890   C927    1.409   .     A
C891   C926    1.408   .     A
C891   N991    1.433   .     S
C892   N994    1.433   .     S
C892   C925    1.404   .     A
C893   N997    1.436   .     S
C893   C926    1.406   .     A
C893   C908    1.398   .     A
C894   N1000   1.432   .     S
C894   C925    1.408   .     A
C894   C907    1.402   .     A
C895   C928    1.409   .     A
C895   N1003   1.438   .     S
C895   C906    1.401   .     A
C896   N1006   1.433   .     S
C896   C927    1.407   .     A
C896   C905    1.398   .     A
C897   C904    1.402   .     A
C897   N1009   1.431   .     S
C897   C930    1.407   .     A
C898   N1012   1.436   .     S
C898   C903    1.398   .     A
C898   C929    1.406   .     A
C899   C932    1.407   .     A
C899   N1015   1.433   .     S
C899   C902    1.398   .     A
C900   C931    1.409   .     A
C900   N1018   1.439   .     S
C900   C901    1.401   .     A
C901   C934    1.408   .     A
C901   N1021   1.434   .     S
C902   N1024   1.436   .     S
C902   C933    1.407   .     A
C903   N1027   1.433   .     S
C903   C936    1.408   .     A
C904   N1030   1.438   .     S
C904   C935    1.409   .     A
C905   C938    1.407   .     A
C905   N1033   1.436   .     S
C906   N1036   1.434   .     S
C906   C937    1.408   .     A
C907   N1039   1.438   .     S
C907   C940    1.409   .     A
C908   C939    1.408   .     A
C908   N1042   1.433   .     S
C909   C941    1.414   .     A
C910   C1306   1.415   1_455 S
C911   C943    1.415   .     A
C911   C111    1.404   1_565 S
C912   C944    1.415   .     A
C913   C1305   1.415   1_455 S
C914   C942    1.414   .     A
C915   C943    1.415   .     A
C916   C944    1.415   .     A
C916   C116    1.404   1_565 S
C917   C217    1.414   1_565 S
C918   C946    1.415   .     A
C919   C1311   1.416   1_455 S
C920   C948    1.416   .     A
C921   C945    1.416   .     A
C922   C218    1.416   1_565 S
C923   C947    1.415   .     A
C924   C1312   1.414   1_455 S
C941   C942    1.415   .     A
C941   C1277   1.415   .     S
C942   C1274   1.415   .     S
C943   C944    1.416   .     A
C945   C946    1.416   1_556 S
C946   C945    1.416   1_554 S
C947   C1283   1.416   .     S
C947   C948    1.416   1_556 S
C948   C1288   1.414   .     S
C948   C947    1.416   1_554 S
N949   O950    1.301   .     A
N949   O951    1.301   .     A
N952   O953    1.301   .     A
N952   O954    1.301   .     A
N955   O957    1.301   .     A
N955   O956    1.301   .     A
N958   O960    1.301   .     A
N958   O959    1.301   .     A
N961   O963    1.301   .     A
N961   O962    1.301   .     A
N964   O965    1.301   .     A
N964   O966    1.301   .     A
N967   O968    1.301   .     A
N967   O969    1.301   .     A
N970   O972    1.301   .     A
N970   O971    1.301   .     A
N973   O974    1.301   .     A
N973   O975    1.301   .     A
N976   O978    1.301   .     A
N976   O977    1.301   .     A
N979   O980    1.301   .     A
N979   O981    1.301   .     A
N982   O984    1.301   .     A
N982   O983    1.301   .     A
N985   O986    1.301   .     A
N985   O987    1.301   .     A
N988   O989    1.301   .     A
N988   O990    1.301   .     A
N991   O993    1.301   .     A
N991   O992    1.301   .     A
N994   O995    1.301   .     A
N994   O996    1.301   .     A
N997   O999    1.301   .     A
N997   O998    1.301   .     A
N1000  O1001   1.301   .     A
N1000  O1002   1.300   .     A
N1003  O1004   1.301   .     A
N1003  O1005   1.301   .     A
N1006  O1007   1.301   .     A
N1006  O1008   1.301   .     A
N1009  O1011   1.301   .     A
N1009  O1010   1.301   .     A
N1012  O1013   1.301   .     A
N1012  O1014   1.301   .     A
N1015  O1017   1.301   .     A
N1015  O1016   1.301   .     A
N1018  O1019   1.301   .     A
N1018  O1020   1.301   .     A
N1021  O1022   1.301   .     A
N1021  O1023   1.301   .     A
N1024  O1025   1.300   .     A
N1024  O1026   1.301   .     A
N1027  O1029   1.301   .     A
N1027  O1028   1.301   .     A
N1030  O1032   1.301   .     A
N1030  O1031   1.301   .     A
N1033  O1035   1.301   .     A
N1033  O1034   1.300   .     A
N1036  O1038   1.301   .     A
N1036  O1037   1.301   .     A
N1039  O1041   1.301   .     A
N1039  O1040   1.301   .     A
N1042  O1043   1.301   .     A
N1042  O1044   1.301   .     A
N1045  O1047   1.301   .     A
N1045  O1410   1.301   1_455 S
O1046  N1409   1.301   .     S
N1048  O1050   1.301   .     A
N1048  O1413   1.299   .     S
O1049  N1412   1.299   1_455 S
N1051  O1053   1.301   .     A
N1051  O324    1.300   1_565 S
N1054  O1056   1.301   .     A
N1054  O327    1.300   1_565 S
N1057  O1059   1.301   .     A
N1057  O1422   1.299   .     S
O1058  N1421   1.299   1_455 S
N1060  O1062   1.301   .     A
N1060  O1425   1.301   1_455 S
O1061  N1424   1.301   .     S
N1063  O1065   1.301   .     A
N1063  O336    1.300   1_565 S
N1066  O1068   1.301   .     A
N1066  O339    1.300   1_565 S
N1069  O1071   1.301   .     A
N1069  O1070   1.300   .     A
N1072  O1073   1.300   .     A
N1072  O1074   1.301   .     A
N1075  O1076   1.300   .     A
N1075  O1077   1.301   .     A
N1078  O1079   1.298   .     A
N1078  O1080   1.301   .     A
N1081  O1083   1.301   .     A
N1081  O1082   1.298   .     A
N1084  O1086   1.301   .     A
N1084  O1085   1.300   .     A
N1087  O1088   1.300   .     A
N1087  O1089   1.301   .     A
N1090  O1091   1.300   .     A
N1090  O1092   1.301   .     A
Zn1093 O1148   1.951   .     S
Zn1093 O1195   1.934   .     S
Zn1093 O1133   1.949   .     S
Zn1094 O1147   1.951   .     S
Zn1094 O1134   1.949   .     S
Zn1094 O1191   1.935   .     S
Zn1095 O1150   1.951   .     S
Zn1095 O1135   1.948   .     S
Zn1095 O1186   1.935   .     S
Zn1096 O1149   1.951   .     S
Zn1096 O1136   1.948   .     S
Zn1096 O1194   1.936   .     S
Zn1097 O1152   1.952   .     S
Zn1097 O1188   1.935   .     S
Zn1097 O1133   1.948   .     S
Zn1098 O1134   1.948   .     S
Zn1098 O1151   1.952   .     S
Zn1098 O1200   1.934   .     S
Zn1099 O1135   1.947   .     S
Zn1099 O1197   1.936   .     S
Zn1099 O1146   1.952   .     S
Zn1100 O1145   1.952   .     S
Zn1100 O1136   1.947   .     S
Zn1100 O1189   1.935   .     S
Zn1101 O1140   1.951   .     S
Zn1101 O1179   1.934   .     S
Zn1101 O1176   1.935   .     S
Zn1101 O772    1.949   1_655 S
Zn1102 O1139   1.951   .     S
Zn1102 O1180   1.934   .     S
Zn1102 O1175   1.935   .     S
Zn1102 O1135   1.949   .     S
Zn1103 O1142   1.951   .     S
Zn1103 O1177   1.936   .     S
Zn1103 O1170   1.935   .     S
Zn1103 O406    1.948   1_565 S
Zn1104 O1141   1.951   .     S
Zn1104 O1178   1.936   .     S
Zn1104 O1169   1.935   .     S
Zn1104 O1133   1.948   .     S
Zn1105 O1183   1.934   .     S
Zn1105 O1136   1.948   .     S
Zn1105 O1172   1.935   .     S
Zn1105 O1144   1.952   .     S
Zn1106 O1143   1.952   .     S
Zn1106 O1171   1.935   .     S
Zn1106 O1184   1.934   .     S
Zn1106 O771    1.948   1_655 S
Zn1107 O1134   1.947   .     S
Zn1107 O1174   1.935   .     S
Zn1107 O1181   1.936   .     S
Zn1107 O1138   1.952   .     S
Zn1108 O1137   1.952   .     S
Zn1108 O1173   1.935   .     S
Zn1108 O405    1.947   1_565 S
Zn1108 O1182   1.936   .     S
C1109  C1277   1.411   .     A
C1109  N1409   1.439   .     S
C1110  N1412   1.435   .     S
C1110  C1278   1.405   .     A
C1110  C1126   1.406   .     A
C1111  C1127   1.407   .     A
C1111  C1279   1.408   .     A
C1111  N1415   1.438   .     S
C1112  C1280   1.408   .     A
C1112  N1418   1.438   .     S
C1112  C400    1.407   1_565 S
C1113  C1125   1.406   .     A
C1113  C1273   1.405   .     A
C1113  N1421   1.435   .     S
C1114  C1274   1.410   .     A
C1114  N1424   1.437   .     S
C1115  C1275   1.408   .     A
C1115  N1427   1.438   .     S
C1115  C1127   1.407   .     A
C1116  C1276   1.408   .     A
C1116  N1430   1.438   .     S
C1116  C400    1.407   1_565 S
C1117  C1285   1.410   .     A
C1117  N1433   1.438   .     S
C1117  C1129   1.408   .     A
C1118  C1286   1.407   .     A
C1118  N1436   1.438   .     S
C1118  C402    1.407   1_565 S
C1119  C1287   1.408   .     A
C1119  N1439   1.438   .     S
C1119  C1131   1.408   .     A
C1120  N1442   1.434   .     S
C1120  C1288   1.405   .     A
C1121  C1281   1.406   .     A
C1121  N1445   1.434   .     S
C1121  C401    1.406   1_565 S
C1122  C1130   1.408   .     A
C1122  C1282   1.408   .     A
C1122  N1448   1.438   .     S
C1123  N1451   1.438   .     S
C1123  C1283   1.407   .     A
C1124  N1454   1.438   .     S
C1124  C1284   1.410   .     A
C1124  C1132   1.408   .     A
C1125  C1219   1.458   .     S
C1125  C745    1.409   1_655 S
C1126  C1220   1.459   .     S
C1126  C750    1.408   1_655 S
C1127  C1217   1.457   .     S
C1129  C1223   1.460   .     S
C1130  C1224   1.456   .     S
C1131  C1221   1.456   .     S
C1131  C759    1.407   1_655 S
C1132  C1222   1.460   .     S
C1132  C756    1.406   1_655 S
O1137  C1217   1.276   .     A
O1140  C1220   1.277   .     A
O1142  C1218   1.276   .     A
O1143  C1219   1.277   .     A
O1147  C1223   1.277   .     A
O1148  C1224   1.279   .     A
O1151  C1223   1.280   .     A
O1152  C1224   1.276   .     A
H1153  C1201   1.082   .     S
H1154  C1202   1.081   .     S
H1155  C1203   1.082   .     S
H1157  C1205   1.081   .     S
H1158  C1206   1.082   .     S
H1160  C1208   1.082   .     S
H1161  C1209   1.082   .     S
H1162  C1210   1.082   .     S
H1163  C1211   1.082   .     S
H1164  C1212   1.082   .     S
H1165  C1213   1.082   .     S
H1166  C1214   1.082   .     S
H1167  C1215   1.082   .     S
H1168  C1216   1.082   .     S
O1169  C1225   1.281   .     A
O1170  C1226   1.279   .     A
O1171  C1227   1.281   .     A
O1172  C1228   1.282   .     A
O1173  C1229   1.279   .     A
O1174  C1230   1.280   .     A
O1175  C1231   1.276   .     A
O1176  C1232   1.281   .     A
O1177  C1233   1.278   .     A
O1178  C1234   1.278   .     A
O1179  C1235   1.281   .     A
O1180  C1236   1.279   .     A
O1181  C1237   1.278   .     A
O1182  C1238   1.283   .     A
O1183  C1239   1.279   .     A
O1184  C1240   1.280   .     A
O1185  Zn732   1.935   1_655 S
O1185  C1235   1.281   .     A
O1186  C1236   1.280   .     A
O1187  C1233   1.281   .     A
O1187  Zn370   1.935   1_565 S
O1188  C1234   1.282   .     A
O1189  C1239   1.279   .     A
O1190  C1240   1.280   .     A
O1190  Zn735   1.935   1_655 S
O1191  C1237   1.282   .     A
O1192  C1238   1.276   .     A
O1192  Zn365   1.935   1_565 S
O1193  C1227   1.278   .     A
O1193  Zn731   1.936   1_655 S
O1194  C1228   1.279   .     A
O1195  C1225   1.280   .     A
O1196  C1226   1.280   .     A
O1196  Zn366   1.934   1_565 S
O1197  C1231   1.285   .     A
O1198  C1232   1.278   .     A
O1198  Zn736   1.936   1_655 S
O1199  C1229   1.279   .     A
O1199  Zn369   1.934   1_565 S
O1200  C1230   1.280   .     A
C1201  C1206   1.386   .     A
C1201  C1273   1.403   .     A
C1202  C1274   1.404   .     A
C1202  C1205   1.389   .     A
C1203  C1208   1.388   .     A
C1204  C1276   1.404   .     A
C1204  C1207   1.388   .     A
C1204  H428    1.082   1_565 S
C1205  C1277   1.405   .     A
C1206  C1278   1.403   .     A
C1207  C1279   1.404   .     A
C1207  H431    1.082   1_565 S
C1209  C1281   1.404   .     A
C1209  C1214   1.387   1_556 S
C1210  C1282   1.405   .     A
C1210  C1213   1.389   1_554 S
C1211  C1283   1.404   .     A
C1211  C1216   1.387   1_556 S
C1212  C1284   1.404   .     A
C1212  C1215   1.389   1_554 S
C1213  C1285   1.404   .     A
C1213  C1210   1.389   1_556 S
C1214  C1286   1.404   .     A
C1214  C1209   1.387   1_554 S
C1215  C1287   1.405   .     A
C1215  C1212   1.389   1_556 S
C1216  C1288   1.404   .     A
C1216  C1211   1.387   1_554 S
C1217  O413    1.278   1_565 S
C1218  C400    1.457   1_565 S
C1218  O410    1.278   1_565 S
C1219  O775    1.279   1_655 S
C1220  O780    1.279   1_655 S
C1221  O781    1.275   1_655 A
C1221  O785    1.278   1_655 A
C1222  O782    1.279   1_655 A
C1222  O786    1.276   1_655 S
C1225  C1291   1.456   .     S
C1226  C1292   1.453   .     S
C1227  C1293   1.455   .     S
C1228  C1294   1.456   .     S
C1229  C1295   1.453   .     S
C1230  C1296   1.456   .     S
C1231  C1289   1.457   .     S
C1232  C1290   1.455   .     S
C1233  C1299   1.455   .     S
C1234  C1300   1.455   .     S
C1235  C1301   1.456   .     S
C1236  C1302   1.453   .     S
C1237  C1303   1.455   .     S
C1238  C1304   1.454   .     S
C1239  C1297   1.453   .     S
C1240  C1298   1.456   .     S
C1241  N1313   1.433   .     S
C1241  C1304   1.407   .     A
C1241  C1256   1.398   .     A
C1242  C1255   1.401   .     A
C1242  N1316   1.438   .     S
C1242  C1303   1.410   .     A
C1243  N1319   1.438   .     S
C1243  C1302   1.408   .     A
C1243  C1254   1.401   .     A
C1244  C1301   1.408   .     A
C1244  C1253   1.400   .     A
C1244  N1322   1.433   .     S
C1245  C1300   1.410   .     A
C1245  C1252   1.401   .     A
C1245  N1325   1.438   .     S
C1246  C1299   1.406   .     A
C1246  C1251   1.398   .     A
C1246  N1328   1.433   .     S
C1247  C1250   1.400   .     A
C1247  N1331   1.433   .     S
C1247  C1298   1.408   .     A
C1248  C1297   1.408   .     A
C1248  C1249   1.401   .     A
C1248  N1334   1.438   .     S
C1249  C1296   1.409   .     A
C1249  N1337   1.433   .     S
C1250  C1295   1.408   .     A
C1250  N1340   1.438   .     S
C1251  N1343   1.432   .     S
C1251  C1294   1.406   .     A
C1252  C1293   1.408   .     A
C1252  N1346   1.433   .     S
C1253  C1292   1.408   .     A
C1253  N1349   1.438   .     S
C1254  N1352   1.433   .     S
C1254  C1291   1.409   .     A
C1255  C1290   1.408   .     A
C1255  N1355   1.433   .     S
C1256  N1358   1.433   .     S
C1256  C1289   1.404   .     A
C1257  N1361   1.436   .     S
C1257  C1290   1.406   .     A
C1257  C1272   1.398   .     A
C1258  N1364   1.432   .     S
C1258  C1289   1.408   .     A
C1258  C1271   1.402   .     A
C1259  C1292   1.409   .     A
C1259  N1367   1.438   .     S
C1259  C1270   1.401   .     A
C1260  N1370   1.433   .     S
C1260  C1291   1.407   .     A
C1260  C1269   1.398   .     A
C1261  C1268   1.402   .     A
C1261  N1373   1.431   .     S
C1261  C1294   1.407   .     A
C1262  N1376   1.436   .     S
C1262  C1267   1.398   .     A
C1262  C1293   1.406   .     A
C1263  C1296   1.407   .     A
C1263  N1379   1.433   .     S
C1263  C1266   1.398   .     A
C1264  C1295   1.409   .     A
C1264  N1382   1.439   .     S
C1264  C1265   1.401   .     A
C1265  C1298   1.408   .     A
C1265  N1385   1.434   .     S
C1266  N1388   1.436   .     S
C1266  C1297   1.407   .     A
C1267  N1391   1.433   .     S
C1267  C1300   1.408   .     A
C1268  N1394   1.438   .     S
C1268  C1299   1.409   .     A
C1269  C1302   1.407   .     A
C1269  N1397   1.436   .     S
C1270  N1400   1.434   .     S
C1270  C1301   1.408   .     A
C1271  N1403   1.438   .     S
C1271  C1304   1.409   .     A
C1272  C1303   1.408   .     A
C1272  N1406   1.433   .     S
C1273  C1305   1.414   .     A
C1275  C1307   1.415   .     A
C1275  C475    1.404   1_565 S
C1276  C1308   1.415   .     A
C1278  C1306   1.414   .     A
C1279  C1307   1.415   .     A
C1280  C1308   1.415   .     A
C1280  C480    1.404   1_565 S
C1281  C581    1.414   1_565 S
C1282  C1310   1.415   .     A
C1284  C1312   1.416   .     A
C1285  C1309   1.416   .     A
C1286  C582    1.416   1_565 S
C1287  C1311   1.415   .     A
C1305  C1306   1.415   .     A
C1305  C913    1.415   1_655 S
C1306  C910    1.415   1_655 S
C1307  C1308   1.416   .     A
C1309  C1310   1.416   1_556 S
C1310  C1309   1.416   1_554 S
C1311  C919    1.416   1_655 S
C1311  C1312   1.416   1_556 S
C1312  C924    1.414   1_655 S
C1312  C1311   1.416   1_554 S
N1313  O1314   1.301   .     A
N1313  O1315   1.301   .     A
N1316  O1317   1.301   .     A
N1316  O1318   1.301   .     A
N1319  O1321   1.301   .     A
N1319  O1320   1.301   .     A
N1322  O1324   1.301   .     A
N1322  O1323   1.301   .     A
N1325  O1327   1.301   .     A
N1325  O1326   1.301   .     A
N1328  O1329   1.301   .     A
N1328  O1330   1.301   .     A
N1331  O1332   1.301   .     A
N1331  O1333   1.301   .     A
N1334  O1336   1.301   .     A
N1334  O1335   1.301   .     A
N1337  O1338   1.301   .     A
N1337  O1339   1.301   .     A
N1340  O1342   1.301   .     A
N1340  O1341   1.301   .     A
N1343  O1344   1.301   .     A
N1343  O1345   1.301   .     A
N1346  O1348   1.301   .     A
N1346  O1347   1.301   .     A
N1349  O1350   1.301   .     A
N1349  O1351   1.301   .     A
N1352  O1353   1.301   .     A
N1352  O1354   1.301   .     A
N1355  O1357   1.301   .     A
N1355  O1356   1.301   .     A
N1358  O1359   1.301   .     A
N1358  O1360   1.301   .     A
N1361  O1363   1.301   .     A
N1361  O1362   1.301   .     A
N1364  O1365   1.301   .     A
N1364  O1366   1.300   .     A
N1367  O1368   1.301   .     A
N1367  O1369   1.301   .     A
N1370  O1371   1.301   .     A
N1370  O1372   1.301   .     A
N1373  O1375   1.301   .     A
N1373  O1374   1.301   .     A
N1376  O1377   1.301   .     A
N1376  O1378   1.301   .     A
N1379  O1381   1.301   .     A
N1379  O1380   1.301   .     A
N1382  O1383   1.301   .     A
N1382  O1384   1.301   .     A
N1385  O1386   1.301   .     A
N1385  O1387   1.301   .     A
N1388  O1389   1.300   .     A
N1388  O1390   1.301   .     A
N1391  O1393   1.301   .     A
N1391  O1392   1.301   .     A
N1394  O1396   1.301   .     A
N1394  O1395   1.301   .     A
N1397  O1399   1.301   .     A
N1397  O1398   1.300   .     A
N1400  O1402   1.301   .     A
N1400  O1401   1.301   .     A
N1403  O1405   1.301   .     A
N1403  O1404   1.301   .     A
N1406  O1407   1.301   .     A
N1406  O1408   1.301   .     A
N1409  O1411   1.301   .     A
O1410  N1045   1.301   1_655 S
N1412  O1414   1.301   .     A
N1412  O1049   1.299   1_655 S
N1415  O1417   1.301   .     A
N1415  O688    1.300   1_565 S
N1418  O1420   1.301   .     A
N1418  O691    1.300   1_565 S
N1421  O1423   1.301   .     A
N1421  O1058   1.299   1_655 S
N1424  O1426   1.301   .     A
O1425  N1060   1.301   1_655 S
N1427  O1429   1.301   .     A
N1427  O700    1.300   1_565 S
N1430  O1432   1.301   .     A
N1430  O703    1.300   1_565 S
N1433  O1435   1.301   .     A
N1433  O1434   1.300   .     A
N1436  O1437   1.300   .     A
N1436  O1438   1.301   .     A
N1439  O1440   1.300   .     A
N1439  O1441   1.301   .     A
N1442  O1443   1.298   .     A
N1442  O1444   1.301   .     A
N1445  O1447   1.301   .     A
N1445  O1446   1.298   .     A
N1448  O1450   1.301   .     A
N1448  O1449   1.300   .     A
N1451  O1452   1.300   .     A
N1451  O1453   1.301   .     A
N1454  O1455   1.300   .     A
N1454  O1456   1.301   .     A
