data_str_m3_o1_o2_pcu_sym.106
_audit_creation_date              2020-01-03
_audit_creation_method            'Materials Studio'
_symmetry_space_group_name_H-M    'P1'
_symmetry_Int_Tables_number       1
_symmetry_cell_setting            triclinic
loop_
_symmetry_equiv_pos_as_xyz
  x,y,z
_cell_length_a                    31.8452
_cell_length_b                    29.8210
_cell_length_c                    29.9346
_cell_angle_alpha                 89.5039
_cell_angle_beta                  92.2467
_cell_angle_gamma                 90.1410
loop_
_atom_site_label
_atom_site_type_symbol
_atom_site_fract_x
_atom_site_fract_y
_atom_site_fract_z
_atom_site_U_iso_or_equiv
_atom_site_adp_type
_atom_site_occupancy
C1     C     0.08680   0.16670   0.25018   0.00000  Uiso   1.00
C2     C     0.24654   0.16673   0.25061   0.00000  Uiso   1.00
C3     C     0.16948   0.16680   0.16388   0.00000  Uiso   1.00
C4     C     0.16546   0.16647   0.33638   0.00000  Uiso   1.00
C5     C     0.20078   0.02401   0.26649   0.00000  Uiso   1.00
C6     C     0.13237   0.30928   0.23383   0.00000  Uiso   1.00
C7     C     0.13244   0.02410   0.23330   0.00000  Uiso   1.00
C8     C     0.20173   0.30952   0.26403   0.00000  Uiso   1.00
C9     C     0.02275   0.13988   0.28171   0.00000  Uiso   1.00
C10    C     0.31064   0.19541   0.22139   0.00000  Uiso   1.00
C11    C     0.31295   0.13938   0.28136   0.00000  Uiso   1.00
C12    C     0.02035   0.19508   0.22104   0.00000  Uiso   1.00
C13    C     0.16664   0.19503   0.04128   0.00000  Uiso   1.00
C14    C     0.16413   0.12035   0.45347   0.00000  Uiso   1.00
C15    C     0.20030   0.19177   0.45350   0.00000  Uiso   1.00
C16    C     0.20060   0.12320   0.05223   0.00000  Uiso   1.00
C17    C     0.16632   0.20238   0.08712   0.00000  Uiso   1.00
C18    C     0.15408   0.12512   0.40770   0.00000  Uiso   1.00
C19    C     0.18563   0.20078   0.40999   0.00000  Uiso   1.00
C20    C     0.19690   0.12709   0.09823   0.00000  Uiso   1.00
C21    C     0.17780   0.16597   0.11598   0.00000  Uiso   1.00
C22    C     0.16679   0.16504   0.38541   0.00000  Uiso   1.00
C23    C     0.18466   0.15666   0.02410   0.00000  Uiso   1.00
C24    C     0.18674   0.15373   0.47594   0.00000  Uiso   1.00
C25    C     0.29069   0.16706   0.25112   0.00000  Uiso   1.00
C26    C     0.04265   0.16710   0.25094   0.00000  Uiso   1.00
H27    H     0.15419   0.21987   0.01788   0.00000  Uiso   1.00
H28    H     0.15231   0.09247   0.47266   0.00000  Uiso   1.00
H29    H     0.21726   0.21697   0.47277   0.00000  Uiso   1.00
H30    H     0.21581   0.09422   0.03848   0.00000  Uiso   1.00
H31    H     0.04052   0.11905   0.30547   0.00000  Uiso   1.00
H32    H     0.29293   0.21674   0.19801   0.00000  Uiso   1.00
H33    H     0.29714   0.11813   0.30484   0.00000  Uiso   1.00
H34    H     0.03609   0.21574   0.19706   0.00000  Uiso   1.00
N35    N     0.16667   0.28573   0.25000   0.00000  Uiso   1.00
N36    N     0.16667   0.04760   0.25000   0.00000  Uiso   1.00
O37    O     0.10559   0.20487   0.25000   0.00000  Uiso   1.00
O38    O     0.22774   0.12846   0.25001   0.00000  Uiso   1.00
O39    O     0.22774   0.20487   0.25001   0.00000  Uiso   1.00
O40    O     0.10559   0.12846   0.25000   0.00000  Uiso   1.00
O41    O     0.16666   0.20489   0.18453   0.00000  Uiso   1.00
O42    O     0.16667   0.12845   0.31547   0.00000  Uiso   1.00
O43    O     0.16667   0.20489   0.31547   0.00000  Uiso   1.00
O44    O     0.16666   0.12845   0.18453   0.00000  Uiso   1.00
Zn45   Zn    0.16667   0.21771   0.25000   0.00000  Uiso   1.00
Zn46   Zn    0.16667   0.11563   0.25000   0.00000  Uiso   1.00
N47    N     0.23514   0.04758   0.28695   0.00000  Uiso   1.00
H48    H     0.26462   0.03750   0.27820   0.00000  Uiso   1.00
C49    C     0.23178   0.05641   0.33426   0.00000  Uiso   1.00
H50    H     0.20028   0.04733   0.34642   0.00000  Uiso   1.00
H51    H     0.23731   0.09253   0.34059   0.00000  Uiso   1.00
H52    H     0.25599   0.03722   0.35401   0.00000  Uiso   1.00
N53    N     0.09683   0.28497   0.21740   0.00000  Uiso   1.00
H54    H     0.07196   0.28288   0.23833   0.00000  Uiso   1.00
C55    C     0.08658   0.28704   0.16997   0.00000  Uiso   1.00
H56    H     0.05426   0.30019   0.16385   0.00000  Uiso   1.00
H57    H     0.08822   0.25288   0.15583   0.00000  Uiso   1.00
H58    H     0.10872   0.30903   0.15261   0.00000  Uiso   1.00
N59    N     0.09812   0.04834   0.21326   0.00000  Uiso   1.00
H60    H     0.09559   0.04668   0.17891   0.00000  Uiso   1.00
C61    C     0.05831   0.04557   0.23495   0.00000  Uiso   1.00
H62    H     0.04085   0.01482   0.22548   0.00000  Uiso   1.00
H63    H     0.03830   0.07399   0.22329   0.00000  Uiso   1.00
H64    H     0.06308   0.04705   0.27188   0.00000  Uiso   1.00
N65    N     0.24041   0.28665   0.27175   0.00000  Uiso   1.00
H66    H     0.26373   0.29617   0.25064   0.00000  Uiso   1.00
C67    C     0.25489   0.27999   0.31769   0.00000  Uiso   1.00
H68    H     0.28572   0.29682   0.32378   0.00000  Uiso   1.00
H69    H     0.25874   0.24361   0.32467   0.00000  Uiso   1.00
H70    H     0.23238   0.29383   0.34093   0.00000  Uiso   1.00
N71    N     0.15701   0.24613   0.10390   0.00000  Uiso   1.00
H72    H     0.17886   0.25714   0.12766   0.00000  Uiso   1.00
C73    C     0.14552   0.28177   0.07233   0.00000  Uiso   1.00
H74    H     0.14049   0.31356   0.09002   0.00000  Uiso   1.00
H75    H     0.11581   0.27323   0.05363   0.00000  Uiso   1.00
H76    H     0.17131   0.28801   0.04907   0.00000  Uiso   1.00
N77    N     0.12870   0.09242   0.38420   0.00000  Uiso   1.00
H78    H     0.10596   0.10565   0.36243   0.00000  Uiso   1.00
C79    C     0.11586   0.05160   0.40640   0.00000  Uiso   1.00
H80    H     0.09313   0.05938   0.43245   0.00000  Uiso   1.00
H81    H     0.14360   0.03390   0.42150   0.00000  Uiso   1.00
H82    H     0.10037   0.02890   0.38154   0.00000  Uiso   1.00
N83    N     0.18579   0.24579   0.39245   0.00000  Uiso   1.00
H84    H     0.15835   0.25413   0.37496   0.00000  Uiso   1.00
C85    C     0.19993   0.28234   0.42107   0.00000  Uiso   1.00
H86    H     0.19649   0.31466   0.40271   0.00000  Uiso   1.00
H87    H     0.23372   0.27826   0.43084   0.00000  Uiso   1.00
H88    H     0.18055   0.28411   0.45110   0.00000  Uiso   1.00
N89    N     0.21577   0.09377   0.12680   0.00000  Uiso   1.00
H90    H     0.24765   0.09074   0.12276   0.00000  Uiso   1.00
C91    C     0.19474   0.05071   0.12595   0.00000  Uiso   1.00
H92    H     0.19890   0.03415   0.09333   0.00000  Uiso   1.00
H93    H     0.16070   0.05479   0.13158   0.00000  Uiso   1.00
H94    H     0.20848   0.02889   0.15296   0.00000  Uiso   1.00
C95    C     0.42013   0.16670   0.25018   0.00000  Uiso   1.00
C96    C     0.57987   0.16673   0.25061   0.00000  Uiso   1.00
C97    C     0.50281   0.16680   0.16388   0.00000  Uiso   1.00
C98    C     0.49880   0.16647   0.33638   0.00000  Uiso   1.00
C99    C     0.53412   0.02401   0.26649   0.00000  Uiso   1.00
C100   C     0.46570   0.30928   0.23383   0.00000  Uiso   1.00
C101   C     0.46578   0.02410   0.23330   0.00000  Uiso   1.00
C102   C     0.53506   0.30952   0.26403   0.00000  Uiso   1.00
C103   C     0.35608   0.13988   0.28171   0.00000  Uiso   1.00
C104   C     0.64397   0.19541   0.22139   0.00000  Uiso   1.00
C105   C     0.64629   0.13938   0.28136   0.00000  Uiso   1.00
C106   C     0.35368   0.19508   0.22104   0.00000  Uiso   1.00
C107   C     0.49997   0.19503   0.04128   0.00000  Uiso   1.00
C108   C     0.49747   0.12035   0.45347   0.00000  Uiso   1.00
C109   C     0.53364   0.19177   0.45350   0.00000  Uiso   1.00
C110   C     0.53393   0.12320   0.05223   0.00000  Uiso   1.00
C111   C     0.49965   0.20238   0.08712   0.00000  Uiso   1.00
C112   C     0.48741   0.12512   0.40770   0.00000  Uiso   1.00
C113   C     0.51897   0.20078   0.40999   0.00000  Uiso   1.00
C114   C     0.53023   0.12709   0.09823   0.00000  Uiso   1.00
C115   C     0.51113   0.16597   0.11598   0.00000  Uiso   1.00
C116   C     0.50012   0.16504   0.38541   0.00000  Uiso   1.00
C117   C     0.51799   0.15666   0.02410   0.00000  Uiso   1.00
C118   C     0.52007   0.15373   0.47594   0.00000  Uiso   1.00
C119   C     0.62402   0.16706   0.25112   0.00000  Uiso   1.00
C120   C     0.37599   0.16710   0.25094   0.00000  Uiso   1.00
H121   H     0.48752   0.21987   0.01788   0.00000  Uiso   1.00
H122   H     0.48564   0.09247   0.47266   0.00000  Uiso   1.00
H123   H     0.55059   0.21697   0.47277   0.00000  Uiso   1.00
H124   H     0.54914   0.09422   0.03848   0.00000  Uiso   1.00
H125   H     0.37385   0.11905   0.30547   0.00000  Uiso   1.00
H126   H     0.62626   0.21674   0.19801   0.00000  Uiso   1.00
H127   H     0.63048   0.11813   0.30484   0.00000  Uiso   1.00
H128   H     0.36942   0.21574   0.19706   0.00000  Uiso   1.00
N129   N     0.50000   0.28573   0.25000   0.00000  Uiso   1.00
N130   N     0.50000   0.04760   0.25000   0.00000  Uiso   1.00
O131   O     0.43892   0.20487   0.25000   0.00000  Uiso   1.00
O132   O     0.56108   0.12846   0.25001   0.00000  Uiso   1.00
O133   O     0.56108   0.20487   0.25001   0.00000  Uiso   1.00
O134   O     0.43892   0.12846   0.25000   0.00000  Uiso   1.00
O135   O     0.50000   0.20489   0.18453   0.00000  Uiso   1.00
O136   O     0.50000   0.12845   0.31547   0.00000  Uiso   1.00
O137   O     0.50000   0.20489   0.31547   0.00000  Uiso   1.00
O138   O     0.50000   0.12845   0.18453   0.00000  Uiso   1.00
Zn139  Zn    0.50000   0.21771   0.25000   0.00000  Uiso   1.00
Zn140  Zn    0.50000   0.11563   0.25000   0.00000  Uiso   1.00
N141   N     0.56847   0.04758   0.28695   0.00000  Uiso   1.00
H142   H     0.59795   0.03750   0.27820   0.00000  Uiso   1.00
C143   C     0.56511   0.05641   0.33426   0.00000  Uiso   1.00
H144   H     0.53362   0.04733   0.34642   0.00000  Uiso   1.00
H145   H     0.57064   0.09253   0.34059   0.00000  Uiso   1.00
H146   H     0.58933   0.03722   0.35401   0.00000  Uiso   1.00
N147   N     0.43016   0.28497   0.21740   0.00000  Uiso   1.00
H148   H     0.40530   0.28288   0.23833   0.00000  Uiso   1.00
C149   C     0.41991   0.28704   0.16997   0.00000  Uiso   1.00
H150   H     0.38760   0.30019   0.16385   0.00000  Uiso   1.00
H151   H     0.42155   0.25288   0.15583   0.00000  Uiso   1.00
H152   H     0.44206   0.30903   0.15261   0.00000  Uiso   1.00
N153   N     0.43145   0.04834   0.21326   0.00000  Uiso   1.00
H154   H     0.42893   0.04668   0.17891   0.00000  Uiso   1.00
C155   C     0.39165   0.04557   0.23495   0.00000  Uiso   1.00
H156   H     0.37418   0.01482   0.22548   0.00000  Uiso   1.00
H157   H     0.37163   0.07399   0.22329   0.00000  Uiso   1.00
H158   H     0.39641   0.04705   0.27188   0.00000  Uiso   1.00
N159   N     0.57375   0.28665   0.27175   0.00000  Uiso   1.00
H160   H     0.59706   0.29617   0.25064   0.00000  Uiso   1.00
C161   C     0.58822   0.27999   0.31769   0.00000  Uiso   1.00
H162   H     0.61905   0.29682   0.32378   0.00000  Uiso   1.00
H163   H     0.59208   0.24361   0.32467   0.00000  Uiso   1.00
H164   H     0.56572   0.29383   0.34093   0.00000  Uiso   1.00
N165   N     0.49035   0.24613   0.10390   0.00000  Uiso   1.00
H166   H     0.51219   0.25714   0.12766   0.00000  Uiso   1.00
C167   C     0.47886   0.28177   0.07233   0.00000  Uiso   1.00
H168   H     0.47382   0.31356   0.09002   0.00000  Uiso   1.00
H169   H     0.44914   0.27323   0.05363   0.00000  Uiso   1.00
H170   H     0.50464   0.28801   0.04907   0.00000  Uiso   1.00
N171   N     0.46203   0.09242   0.38420   0.00000  Uiso   1.00
H172   H     0.43930   0.10565   0.36243   0.00000  Uiso   1.00
C173   C     0.44919   0.05160   0.40640   0.00000  Uiso   1.00
H174   H     0.42646   0.05938   0.43245   0.00000  Uiso   1.00
H175   H     0.47693   0.03390   0.42150   0.00000  Uiso   1.00
H176   H     0.43371   0.02890   0.38154   0.00000  Uiso   1.00
N177   N     0.51912   0.24579   0.39245   0.00000  Uiso   1.00
H178   H     0.49168   0.25413   0.37496   0.00000  Uiso   1.00
C179   C     0.53326   0.28234   0.42107   0.00000  Uiso   1.00
H180   H     0.52982   0.31466   0.40271   0.00000  Uiso   1.00
H181   H     0.56705   0.27826   0.43084   0.00000  Uiso   1.00
H182   H     0.51389   0.28411   0.45110   0.00000  Uiso   1.00
N183   N     0.54910   0.09377   0.12680   0.00000  Uiso   1.00
H184   H     0.58099   0.09074   0.12276   0.00000  Uiso   1.00
C185   C     0.52808   0.05071   0.12595   0.00000  Uiso   1.00
H186   H     0.53223   0.03415   0.09333   0.00000  Uiso   1.00
H187   H     0.49403   0.05479   0.13158   0.00000  Uiso   1.00
H188   H     0.54181   0.02889   0.15296   0.00000  Uiso   1.00
C189   C     0.75346   0.16670   0.25018   0.00000  Uiso   1.00
C190   C     0.91320   0.16673   0.25061   0.00000  Uiso   1.00
C191   C     0.83614   0.16680   0.16388   0.00000  Uiso   1.00
C192   C     0.83213   0.16647   0.33638   0.00000  Uiso   1.00
C193   C     0.86745   0.02401   0.26649   0.00000  Uiso   1.00
C194   C     0.79904   0.30928   0.23383   0.00000  Uiso   1.00
C195   C     0.79911   0.02410   0.23330   0.00000  Uiso   1.00
C196   C     0.86839   0.30952   0.26403   0.00000  Uiso   1.00
C197   C     0.68941   0.13988   0.28171   0.00000  Uiso   1.00
C198   C     0.97731   0.19541   0.22139   0.00000  Uiso   1.00
C199   C     0.97962   0.13938   0.28136   0.00000  Uiso   1.00
C200   C     0.68701   0.19508   0.22104   0.00000  Uiso   1.00
C201   C     0.83331   0.19503   0.04128   0.00000  Uiso   1.00
C202   C     0.83080   0.12035   0.45347   0.00000  Uiso   1.00
C203   C     0.86697   0.19177   0.45350   0.00000  Uiso   1.00
C204   C     0.86726   0.12320   0.05223   0.00000  Uiso   1.00
C205   C     0.83298   0.20238   0.08712   0.00000  Uiso   1.00
C206   C     0.82074   0.12512   0.40770   0.00000  Uiso   1.00
C207   C     0.85230   0.20078   0.40999   0.00000  Uiso   1.00
C208   C     0.86356   0.12709   0.09823   0.00000  Uiso   1.00
C209   C     0.84447   0.16597   0.11598   0.00000  Uiso   1.00
C210   C     0.83345   0.16504   0.38541   0.00000  Uiso   1.00
C211   C     0.85132   0.15666   0.02410   0.00000  Uiso   1.00
C212   C     0.85340   0.15373   0.47594   0.00000  Uiso   1.00
C213   C     0.95735   0.16706   0.25112   0.00000  Uiso   1.00
C214   C     0.70932   0.16710   0.25094   0.00000  Uiso   1.00
H215   H     0.82085   0.21987   0.01788   0.00000  Uiso   1.00
H216   H     0.81898   0.09247   0.47266   0.00000  Uiso   1.00
H217   H     0.88392   0.21697   0.47277   0.00000  Uiso   1.00
H218   H     0.88247   0.09422   0.03848   0.00000  Uiso   1.00
H219   H     0.70718   0.11905   0.30547   0.00000  Uiso   1.00
H220   H     0.95960   0.21674   0.19801   0.00000  Uiso   1.00
H221   H     0.96381   0.11813   0.30484   0.00000  Uiso   1.00
H222   H     0.70276   0.21574   0.19706   0.00000  Uiso   1.00
N223   N     0.83333   0.28573   0.25000   0.00000  Uiso   1.00
N224   N     0.83333   0.04760   0.25000   0.00000  Uiso   1.00
O225   O     0.77226   0.20487   0.25000   0.00000  Uiso   1.00
O226   O     0.89441   0.12846   0.25001   0.00000  Uiso   1.00
O227   O     0.89441   0.20487   0.25001   0.00000  Uiso   1.00
O228   O     0.77226   0.12846   0.25000   0.00000  Uiso   1.00
O229   O     0.83333   0.20489   0.18453   0.00000  Uiso   1.00
O230   O     0.83334   0.12845   0.31547   0.00000  Uiso   1.00
O231   O     0.83334   0.20489   0.31547   0.00000  Uiso   1.00
O232   O     0.83333   0.12845   0.18453   0.00000  Uiso   1.00
Zn233  Zn    0.83333   0.21771   0.25000   0.00000  Uiso   1.00
Zn234  Zn    0.83333   0.11563   0.25000   0.00000  Uiso   1.00
N235   N     0.90181   0.04758   0.28695   0.00000  Uiso   1.00
H236   H     0.93129   0.03750   0.27820   0.00000  Uiso   1.00
C237   C     0.89845   0.05641   0.33426   0.00000  Uiso   1.00
H238   H     0.86695   0.04733   0.34642   0.00000  Uiso   1.00
H239   H     0.90398   0.09253   0.34059   0.00000  Uiso   1.00
H240   H     0.92266   0.03722   0.35401   0.00000  Uiso   1.00
N241   N     0.76350   0.28497   0.21740   0.00000  Uiso   1.00
H242   H     0.73863   0.28288   0.23833   0.00000  Uiso   1.00
C243   C     0.75325   0.28704   0.16997   0.00000  Uiso   1.00
H244   H     0.72093   0.30019   0.16385   0.00000  Uiso   1.00
H245   H     0.75489   0.25288   0.15583   0.00000  Uiso   1.00
H246   H     0.77539   0.30903   0.15261   0.00000  Uiso   1.00
N247   N     0.76479   0.04834   0.21326   0.00000  Uiso   1.00
H248   H     0.76226   0.04668   0.17891   0.00000  Uiso   1.00
C249   C     0.72498   0.04557   0.23495   0.00000  Uiso   1.00
H250   H     0.70752   0.01482   0.22548   0.00000  Uiso   1.00
H251   H     0.70497   0.07399   0.22329   0.00000  Uiso   1.00
H252   H     0.72974   0.04705   0.27188   0.00000  Uiso   1.00
N253   N     0.90708   0.28665   0.27175   0.00000  Uiso   1.00
H254   H     0.93040   0.29617   0.25064   0.00000  Uiso   1.00
C255   C     0.92156   0.27999   0.31769   0.00000  Uiso   1.00
H256   H     0.95239   0.29682   0.32378   0.00000  Uiso   1.00
H257   H     0.92541   0.24361   0.32467   0.00000  Uiso   1.00
H258   H     0.89905   0.29383   0.34093   0.00000  Uiso   1.00
N259   N     0.82368   0.24613   0.10390   0.00000  Uiso   1.00
H260   H     0.84552   0.25714   0.12766   0.00000  Uiso   1.00
C261   C     0.81219   0.28177   0.07233   0.00000  Uiso   1.00
H262   H     0.80715   0.31356   0.09002   0.00000  Uiso   1.00
H263   H     0.78247   0.27323   0.05363   0.00000  Uiso   1.00
H264   H     0.83797   0.28801   0.04907   0.00000  Uiso   1.00
N265   N     0.79537   0.09242   0.38420   0.00000  Uiso   1.00
H266   H     0.77263   0.10565   0.36243   0.00000  Uiso   1.00
C267   C     0.78253   0.05160   0.40640   0.00000  Uiso   1.00
H268   H     0.75979   0.05938   0.43245   0.00000  Uiso   1.00
H269   H     0.81026   0.03390   0.42150   0.00000  Uiso   1.00
H270   H     0.76704   0.02890   0.38154   0.00000  Uiso   1.00
N271   N     0.85246   0.24579   0.39245   0.00000  Uiso   1.00
H272   H     0.82501   0.25413   0.37496   0.00000  Uiso   1.00
C273   C     0.86660   0.28234   0.42107   0.00000  Uiso   1.00
H274   H     0.86316   0.31466   0.40271   0.00000  Uiso   1.00
H275   H     0.90038   0.27826   0.43084   0.00000  Uiso   1.00
H276   H     0.84722   0.28411   0.45110   0.00000  Uiso   1.00
N277   N     0.88244   0.09377   0.12680   0.00000  Uiso   1.00
H278   H     0.91432   0.09074   0.12276   0.00000  Uiso   1.00
C279   C     0.86141   0.05071   0.12595   0.00000  Uiso   1.00
H280   H     0.86556   0.03415   0.09333   0.00000  Uiso   1.00
H281   H     0.82736   0.05479   0.13158   0.00000  Uiso   1.00
H282   H     0.87515   0.02889   0.15296   0.00000  Uiso   1.00
C283   C     0.08680   0.50003   0.25018   0.00000  Uiso   1.00
C284   C     0.24654   0.50006   0.25061   0.00000  Uiso   1.00
C285   C     0.16948   0.50013   0.16388   0.00000  Uiso   1.00
C286   C     0.16546   0.49980   0.33638   0.00000  Uiso   1.00
C287   C     0.20078   0.35734   0.26649   0.00000  Uiso   1.00
C288   C     0.13237   0.64261   0.23383   0.00000  Uiso   1.00
C289   C     0.13244   0.35744   0.23330   0.00000  Uiso   1.00
C290   C     0.20173   0.64285   0.26403   0.00000  Uiso   1.00
C291   C     0.02275   0.47321   0.28171   0.00000  Uiso   1.00
C292   C     0.31064   0.52874   0.22139   0.00000  Uiso   1.00
C293   C     0.31295   0.47271   0.28136   0.00000  Uiso   1.00
C294   C     0.02035   0.52841   0.22104   0.00000  Uiso   1.00
C295   C     0.16664   0.52836   0.04128   0.00000  Uiso   1.00
C296   C     0.16413   0.45369   0.45347   0.00000  Uiso   1.00
C297   C     0.20030   0.52511   0.45350   0.00000  Uiso   1.00
C298   C     0.20060   0.45653   0.05223   0.00000  Uiso   1.00
C299   C     0.16632   0.53571   0.08712   0.00000  Uiso   1.00
C300   C     0.15408   0.45846   0.40770   0.00000  Uiso   1.00
C301   C     0.18563   0.53411   0.40999   0.00000  Uiso   1.00
C302   C     0.19690   0.46043   0.09823   0.00000  Uiso   1.00
C303   C     0.17780   0.49930   0.11598   0.00000  Uiso   1.00
C304   C     0.16679   0.49837   0.38541   0.00000  Uiso   1.00
C305   C     0.18466   0.48999   0.02410   0.00000  Uiso   1.00
C306   C     0.18674   0.48706   0.47594   0.00000  Uiso   1.00
C307   C     0.29069   0.50040   0.25112   0.00000  Uiso   1.00
C308   C     0.04265   0.50043   0.25094   0.00000  Uiso   1.00
H309   H     0.15419   0.55321   0.01788   0.00000  Uiso   1.00
H310   H     0.15231   0.42581   0.47266   0.00000  Uiso   1.00
H311   H     0.21726   0.55031   0.47277   0.00000  Uiso   1.00
H312   H     0.21581   0.42755   0.03848   0.00000  Uiso   1.00
H313   H     0.04052   0.45238   0.30547   0.00000  Uiso   1.00
H314   H     0.29293   0.55008   0.19801   0.00000  Uiso   1.00
H315   H     0.29714   0.45147   0.30484   0.00000  Uiso   1.00
H316   H     0.03609   0.54907   0.19706   0.00000  Uiso   1.00
N317   N     0.16667   0.61907   0.25000   0.00000  Uiso   1.00
N318   N     0.16667   0.38093   0.25000   0.00000  Uiso   1.00
O319   O     0.10559   0.53821   0.25000   0.00000  Uiso   1.00
O320   O     0.22774   0.46179   0.25001   0.00000  Uiso   1.00
O321   O     0.22774   0.53821   0.25001   0.00000  Uiso   1.00
O322   O     0.10559   0.46179   0.25000   0.00000  Uiso   1.00
O323   O     0.16666   0.53822   0.18453   0.00000  Uiso   1.00
O324   O     0.16667   0.46178   0.31547   0.00000  Uiso   1.00
O325   O     0.16667   0.53822   0.31547   0.00000  Uiso   1.00
O326   O     0.16666   0.46178   0.18453   0.00000  Uiso   1.00
Zn327  Zn    0.16667   0.55104   0.25000   0.00000  Uiso   1.00
Zn328  Zn    0.16667   0.44896   0.25000   0.00000  Uiso   1.00
N329   N     0.23514   0.38091   0.28695   0.00000  Uiso   1.00
H330   H     0.26462   0.37083   0.27820   0.00000  Uiso   1.00
C331   C     0.23178   0.38974   0.33426   0.00000  Uiso   1.00
H332   H     0.20028   0.38066   0.34642   0.00000  Uiso   1.00
H333   H     0.23731   0.42586   0.34059   0.00000  Uiso   1.00
H334   H     0.25599   0.37056   0.35401   0.00000  Uiso   1.00
N335   N     0.09683   0.61830   0.21740   0.00000  Uiso   1.00
H336   H     0.07196   0.61621   0.23833   0.00000  Uiso   1.00
C337   C     0.08658   0.62038   0.16997   0.00000  Uiso   1.00
H338   H     0.05426   0.63352   0.16385   0.00000  Uiso   1.00
H339   H     0.08822   0.58622   0.15583   0.00000  Uiso   1.00
H340   H     0.10872   0.64236   0.15261   0.00000  Uiso   1.00
N341   N     0.09812   0.38167   0.21326   0.00000  Uiso   1.00
H342   H     0.09559   0.38001   0.17891   0.00000  Uiso   1.00
C343   C     0.05831   0.37890   0.23495   0.00000  Uiso   1.00
H344   H     0.04085   0.34815   0.22548   0.00000  Uiso   1.00
H345   H     0.03830   0.40732   0.22329   0.00000  Uiso   1.00
H346   H     0.06308   0.38038   0.27188   0.00000  Uiso   1.00
N347   N     0.24041   0.61998   0.27175   0.00000  Uiso   1.00
H348   H     0.26373   0.62951   0.25064   0.00000  Uiso   1.00
C349   C     0.25489   0.61332   0.31769   0.00000  Uiso   1.00
H350   H     0.28572   0.63016   0.32378   0.00000  Uiso   1.00
H351   H     0.25874   0.57694   0.32467   0.00000  Uiso   1.00
H352   H     0.23238   0.62716   0.34093   0.00000  Uiso   1.00
N353   N     0.15701   0.57946   0.10390   0.00000  Uiso   1.00
H354   H     0.17886   0.59047   0.12766   0.00000  Uiso   1.00
C355   C     0.14552   0.61511   0.07233   0.00000  Uiso   1.00
H356   H     0.14049   0.64689   0.09002   0.00000  Uiso   1.00
H357   H     0.11581   0.60656   0.05363   0.00000  Uiso   1.00
H358   H     0.17131   0.62135   0.04907   0.00000  Uiso   1.00
N359   N     0.12870   0.42575   0.38420   0.00000  Uiso   1.00
H360   H     0.10596   0.43898   0.36243   0.00000  Uiso   1.00
C361   C     0.11586   0.38493   0.40640   0.00000  Uiso   1.00
H362   H     0.09313   0.39271   0.43245   0.00000  Uiso   1.00
H363   H     0.14360   0.36723   0.42150   0.00000  Uiso   1.00
H364   H     0.10037   0.36223   0.38154   0.00000  Uiso   1.00
N365   N     0.18579   0.57912   0.39245   0.00000  Uiso   1.00
H366   H     0.15835   0.58747   0.37496   0.00000  Uiso   1.00
C367   C     0.19993   0.61567   0.42107   0.00000  Uiso   1.00
H368   H     0.19649   0.64799   0.40271   0.00000  Uiso   1.00
H369   H     0.23372   0.61160   0.43084   0.00000  Uiso   1.00
H370   H     0.18055   0.61744   0.45110   0.00000  Uiso   1.00
N371   N     0.21577   0.42710   0.12680   0.00000  Uiso   1.00
H372   H     0.24765   0.42407   0.12276   0.00000  Uiso   1.00
C373   C     0.19474   0.38405   0.12595   0.00000  Uiso   1.00
H374   H     0.19890   0.36748   0.09333   0.00000  Uiso   1.00
H375   H     0.16070   0.38812   0.13158   0.00000  Uiso   1.00
H376   H     0.20848   0.36222   0.15296   0.00000  Uiso   1.00
C377   C     0.42013   0.50003   0.25018   0.00000  Uiso   1.00
C378   C     0.57987   0.50006   0.25061   0.00000  Uiso   1.00
C379   C     0.50281   0.50013   0.16388   0.00000  Uiso   1.00
C380   C     0.49880   0.49980   0.33638   0.00000  Uiso   1.00
C381   C     0.53412   0.35734   0.26649   0.00000  Uiso   1.00
C382   C     0.46570   0.64261   0.23383   0.00000  Uiso   1.00
C383   C     0.46578   0.35744   0.23330   0.00000  Uiso   1.00
C384   C     0.53506   0.64285   0.26403   0.00000  Uiso   1.00
C385   C     0.35608   0.47321   0.28171   0.00000  Uiso   1.00
C386   C     0.64397   0.52874   0.22139   0.00000  Uiso   1.00
C387   C     0.64629   0.47271   0.28136   0.00000  Uiso   1.00
C388   C     0.35368   0.52841   0.22104   0.00000  Uiso   1.00
C389   C     0.49997   0.52836   0.04128   0.00000  Uiso   1.00
C390   C     0.49747   0.45369   0.45347   0.00000  Uiso   1.00
C391   C     0.53364   0.52511   0.45350   0.00000  Uiso   1.00
C392   C     0.53393   0.45653   0.05223   0.00000  Uiso   1.00
C393   C     0.49965   0.53571   0.08712   0.00000  Uiso   1.00
C394   C     0.48741   0.45846   0.40770   0.00000  Uiso   1.00
C395   C     0.51897   0.53411   0.40999   0.00000  Uiso   1.00
C396   C     0.53023   0.46043   0.09823   0.00000  Uiso   1.00
C397   C     0.51113   0.49930   0.11598   0.00000  Uiso   1.00
C398   C     0.50012   0.49837   0.38541   0.00000  Uiso   1.00
C399   C     0.51799   0.48999   0.02410   0.00000  Uiso   1.00
C400   C     0.52007   0.48706   0.47594   0.00000  Uiso   1.00
C401   C     0.62402   0.50040   0.25112   0.00000  Uiso   1.00
C402   C     0.37599   0.50043   0.25094   0.00000  Uiso   1.00
H403   H     0.48752   0.55321   0.01788   0.00000  Uiso   1.00
H404   H     0.48564   0.42581   0.47266   0.00000  Uiso   1.00
H405   H     0.55059   0.55031   0.47277   0.00000  Uiso   1.00
H406   H     0.54914   0.42755   0.03848   0.00000  Uiso   1.00
H407   H     0.37385   0.45238   0.30547   0.00000  Uiso   1.00
H408   H     0.62626   0.55008   0.19801   0.00000  Uiso   1.00
H409   H     0.63048   0.45147   0.30484   0.00000  Uiso   1.00
H410   H     0.36942   0.54907   0.19706   0.00000  Uiso   1.00
N411   N     0.50000   0.61907   0.25000   0.00000  Uiso   1.00
N412   N     0.50000   0.38093   0.25000   0.00000  Uiso   1.00
O413   O     0.43892   0.53821   0.25000   0.00000  Uiso   1.00
O414   O     0.56108   0.46179   0.25001   0.00000  Uiso   1.00
O415   O     0.56108   0.53821   0.25001   0.00000  Uiso   1.00
O416   O     0.43892   0.46179   0.25000   0.00000  Uiso   1.00
O417   O     0.50000   0.53822   0.18453   0.00000  Uiso   1.00
O418   O     0.50000   0.46178   0.31547   0.00000  Uiso   1.00
O419   O     0.50000   0.53822   0.31547   0.00000  Uiso   1.00
O420   O     0.50000   0.46178   0.18453   0.00000  Uiso   1.00
Zn421  Zn    0.50000   0.55104   0.25000   0.00000  Uiso   1.00
Zn422  Zn    0.50000   0.44896   0.25000   0.00000  Uiso   1.00
N423   N     0.56847   0.38091   0.28695   0.00000  Uiso   1.00
H424   H     0.59795   0.37083   0.27820   0.00000  Uiso   1.00
C425   C     0.56511   0.38974   0.33426   0.00000  Uiso   1.00
H426   H     0.53362   0.38066   0.34642   0.00000  Uiso   1.00
H427   H     0.57064   0.42586   0.34059   0.00000  Uiso   1.00
H428   H     0.58933   0.37056   0.35401   0.00000  Uiso   1.00
N429   N     0.43016   0.61830   0.21740   0.00000  Uiso   1.00
H430   H     0.40530   0.61621   0.23833   0.00000  Uiso   1.00
C431   C     0.41991   0.62038   0.16997   0.00000  Uiso   1.00
H432   H     0.38760   0.63352   0.16385   0.00000  Uiso   1.00
H433   H     0.42155   0.58622   0.15583   0.00000  Uiso   1.00
H434   H     0.44206   0.64236   0.15261   0.00000  Uiso   1.00
N435   N     0.43145   0.38167   0.21326   0.00000  Uiso   1.00
H436   H     0.42893   0.38001   0.17891   0.00000  Uiso   1.00
C437   C     0.39165   0.37890   0.23495   0.00000  Uiso   1.00
H438   H     0.37418   0.34815   0.22548   0.00000  Uiso   1.00
H439   H     0.37163   0.40732   0.22329   0.00000  Uiso   1.00
H440   H     0.39641   0.38038   0.27188   0.00000  Uiso   1.00
N441   N     0.57375   0.61998   0.27175   0.00000  Uiso   1.00
H442   H     0.59706   0.62951   0.25064   0.00000  Uiso   1.00
C443   C     0.58822   0.61332   0.31769   0.00000  Uiso   1.00
H444   H     0.61905   0.63016   0.32378   0.00000  Uiso   1.00
H445   H     0.59208   0.57694   0.32467   0.00000  Uiso   1.00
H446   H     0.56572   0.62716   0.34093   0.00000  Uiso   1.00
N447   N     0.49035   0.57946   0.10390   0.00000  Uiso   1.00
H448   H     0.51219   0.59047   0.12766   0.00000  Uiso   1.00
C449   C     0.47886   0.61511   0.07233   0.00000  Uiso   1.00
H450   H     0.47382   0.64689   0.09002   0.00000  Uiso   1.00
H451   H     0.44914   0.60656   0.05363   0.00000  Uiso   1.00
H452   H     0.50464   0.62135   0.04907   0.00000  Uiso   1.00
N453   N     0.46203   0.42575   0.38420   0.00000  Uiso   1.00
H454   H     0.43930   0.43898   0.36243   0.00000  Uiso   1.00
C455   C     0.44919   0.38493   0.40640   0.00000  Uiso   1.00
H456   H     0.42646   0.39271   0.43245   0.00000  Uiso   1.00
H457   H     0.47693   0.36723   0.42150   0.00000  Uiso   1.00
H458   H     0.43371   0.36223   0.38154   0.00000  Uiso   1.00
N459   N     0.51912   0.57912   0.39245   0.00000  Uiso   1.00
H460   H     0.49168   0.58747   0.37496   0.00000  Uiso   1.00
C461   C     0.53326   0.61567   0.42107   0.00000  Uiso   1.00
H462   H     0.52982   0.64799   0.40271   0.00000  Uiso   1.00
H463   H     0.56705   0.61160   0.43084   0.00000  Uiso   1.00
H464   H     0.51389   0.61744   0.45110   0.00000  Uiso   1.00
N465   N     0.54910   0.42710   0.12680   0.00000  Uiso   1.00
H466   H     0.58099   0.42407   0.12276   0.00000  Uiso   1.00
C467   C     0.52808   0.38405   0.12595   0.00000  Uiso   1.00
H468   H     0.53223   0.36748   0.09333   0.00000  Uiso   1.00
H469   H     0.49403   0.38812   0.13158   0.00000  Uiso   1.00
H470   H     0.54181   0.36222   0.15296   0.00000  Uiso   1.00
C471   C     0.75346   0.50003   0.25018   0.00000  Uiso   1.00
C472   C     0.91320   0.50006   0.25061   0.00000  Uiso   1.00
C473   C     0.83614   0.50013   0.16388   0.00000  Uiso   1.00
C474   C     0.83213   0.49980   0.33638   0.00000  Uiso   1.00
C475   C     0.86745   0.35734   0.26649   0.00000  Uiso   1.00
C476   C     0.79904   0.64261   0.23383   0.00000  Uiso   1.00
C477   C     0.79911   0.35744   0.23330   0.00000  Uiso   1.00
C478   C     0.86839   0.64285   0.26403   0.00000  Uiso   1.00
C479   C     0.68941   0.47321   0.28171   0.00000  Uiso   1.00
C480   C     0.97731   0.52874   0.22139   0.00000  Uiso   1.00
C481   C     0.97962   0.47271   0.28136   0.00000  Uiso   1.00
C482   C     0.68701   0.52841   0.22104   0.00000  Uiso   1.00
C483   C     0.83331   0.52836   0.04128   0.00000  Uiso   1.00
C484   C     0.83080   0.45369   0.45347   0.00000  Uiso   1.00
C485   C     0.86697   0.52511   0.45350   0.00000  Uiso   1.00
C486   C     0.86726   0.45653   0.05223   0.00000  Uiso   1.00
C487   C     0.83298   0.53571   0.08712   0.00000  Uiso   1.00
C488   C     0.82074   0.45846   0.40770   0.00000  Uiso   1.00
C489   C     0.85230   0.53411   0.40999   0.00000  Uiso   1.00
C490   C     0.86356   0.46043   0.09823   0.00000  Uiso   1.00
C491   C     0.84447   0.49930   0.11598   0.00000  Uiso   1.00
C492   C     0.83345   0.49837   0.38541   0.00000  Uiso   1.00
C493   C     0.85132   0.48999   0.02410   0.00000  Uiso   1.00
C494   C     0.85340   0.48706   0.47594   0.00000  Uiso   1.00
C495   C     0.95735   0.50040   0.25112   0.00000  Uiso   1.00
C496   C     0.70932   0.50043   0.25094   0.00000  Uiso   1.00
H497   H     0.82085   0.55321   0.01788   0.00000  Uiso   1.00
H498   H     0.81898   0.42581   0.47266   0.00000  Uiso   1.00
H499   H     0.88392   0.55031   0.47277   0.00000  Uiso   1.00
H500   H     0.88247   0.42755   0.03848   0.00000  Uiso   1.00
H501   H     0.70718   0.45238   0.30547   0.00000  Uiso   1.00
H502   H     0.95960   0.55008   0.19801   0.00000  Uiso   1.00
H503   H     0.96381   0.45147   0.30484   0.00000  Uiso   1.00
H504   H     0.70276   0.54907   0.19706   0.00000  Uiso   1.00
N505   N     0.83333   0.61907   0.25000   0.00000  Uiso   1.00
N506   N     0.83333   0.38093   0.25000   0.00000  Uiso   1.00
O507   O     0.77226   0.53821   0.25000   0.00000  Uiso   1.00
O508   O     0.89441   0.46179   0.25001   0.00000  Uiso   1.00
O509   O     0.89441   0.53821   0.25001   0.00000  Uiso   1.00
O510   O     0.77226   0.46179   0.25000   0.00000  Uiso   1.00
O511   O     0.83333   0.53822   0.18453   0.00000  Uiso   1.00
O512   O     0.83334   0.46178   0.31547   0.00000  Uiso   1.00
O513   O     0.83334   0.53822   0.31547   0.00000  Uiso   1.00
O514   O     0.83333   0.46178   0.18453   0.00000  Uiso   1.00
Zn515  Zn    0.83333   0.55104   0.25000   0.00000  Uiso   1.00
Zn516  Zn    0.83333   0.44896   0.25000   0.00000  Uiso   1.00
N517   N     0.90181   0.38091   0.28695   0.00000  Uiso   1.00
H518   H     0.93129   0.37083   0.27820   0.00000  Uiso   1.00
C519   C     0.89845   0.38974   0.33426   0.00000  Uiso   1.00
H520   H     0.86695   0.38066   0.34642   0.00000  Uiso   1.00
H521   H     0.90398   0.42586   0.34059   0.00000  Uiso   1.00
H522   H     0.92266   0.37056   0.35401   0.00000  Uiso   1.00
N523   N     0.76350   0.61830   0.21740   0.00000  Uiso   1.00
H524   H     0.73863   0.61621   0.23833   0.00000  Uiso   1.00
C525   C     0.75325   0.62038   0.16997   0.00000  Uiso   1.00
H526   H     0.72093   0.63352   0.16385   0.00000  Uiso   1.00
H527   H     0.75489   0.58622   0.15583   0.00000  Uiso   1.00
H528   H     0.77539   0.64236   0.15261   0.00000  Uiso   1.00
N529   N     0.76479   0.38167   0.21326   0.00000  Uiso   1.00
H530   H     0.76226   0.38001   0.17891   0.00000  Uiso   1.00
C531   C     0.72498   0.37890   0.23495   0.00000  Uiso   1.00
H532   H     0.70752   0.34815   0.22548   0.00000  Uiso   1.00
H533   H     0.70497   0.40732   0.22329   0.00000  Uiso   1.00
H534   H     0.72974   0.38038   0.27188   0.00000  Uiso   1.00
N535   N     0.90708   0.61998   0.27175   0.00000  Uiso   1.00
H536   H     0.93040   0.62951   0.25064   0.00000  Uiso   1.00
C537   C     0.92156   0.61332   0.31769   0.00000  Uiso   1.00
H538   H     0.95239   0.63016   0.32378   0.00000  Uiso   1.00
H539   H     0.92541   0.57694   0.32467   0.00000  Uiso   1.00
H540   H     0.89905   0.62716   0.34093   0.00000  Uiso   1.00
N541   N     0.82368   0.57946   0.10390   0.00000  Uiso   1.00
H542   H     0.84552   0.59047   0.12766   0.00000  Uiso   1.00
C543   C     0.81219   0.61511   0.07233   0.00000  Uiso   1.00
H544   H     0.80715   0.64689   0.09002   0.00000  Uiso   1.00
H545   H     0.78247   0.60656   0.05363   0.00000  Uiso   1.00
H546   H     0.83797   0.62135   0.04907   0.00000  Uiso   1.00
N547   N     0.79537   0.42575   0.38420   0.00000  Uiso   1.00
H548   H     0.77263   0.43898   0.36243   0.00000  Uiso   1.00
C549   C     0.78253   0.38493   0.40640   0.00000  Uiso   1.00
H550   H     0.75979   0.39271   0.43245   0.00000  Uiso   1.00
H551   H     0.81026   0.36723   0.42150   0.00000  Uiso   1.00
H552   H     0.76704   0.36223   0.38154   0.00000  Uiso   1.00
N553   N     0.85246   0.57912   0.39245   0.00000  Uiso   1.00
H554   H     0.82501   0.58747   0.37496   0.00000  Uiso   1.00
C555   C     0.86660   0.61567   0.42107   0.00000  Uiso   1.00
H556   H     0.86316   0.64799   0.40271   0.00000  Uiso   1.00
H557   H     0.90038   0.61160   0.43084   0.00000  Uiso   1.00
H558   H     0.84722   0.61744   0.45110   0.00000  Uiso   1.00
N559   N     0.88244   0.42710   0.12680   0.00000  Uiso   1.00
H560   H     0.91432   0.42407   0.12276   0.00000  Uiso   1.00
C561   C     0.86141   0.38405   0.12595   0.00000  Uiso   1.00
H562   H     0.86556   0.36748   0.09333   0.00000  Uiso   1.00
H563   H     0.82736   0.38812   0.13158   0.00000  Uiso   1.00
H564   H     0.87515   0.36222   0.15296   0.00000  Uiso   1.00
C565   C     0.08680   0.83337   0.25018   0.00000  Uiso   1.00
C566   C     0.24654   0.83339   0.25061   0.00000  Uiso   1.00
C567   C     0.16948   0.83346   0.16388   0.00000  Uiso   1.00
C568   C     0.16546   0.83314   0.33638   0.00000  Uiso   1.00
C569   C     0.20078   0.69068   0.26649   0.00000  Uiso   1.00
C570   C     0.13237   0.97595   0.23383   0.00000  Uiso   1.00
C571   C     0.13244   0.69077   0.23330   0.00000  Uiso   1.00
C572   C     0.20173   0.97618   0.26403   0.00000  Uiso   1.00
C573   C     0.02275   0.80654   0.28171   0.00000  Uiso   1.00
C574   C     0.31064   0.86208   0.22139   0.00000  Uiso   1.00
C575   C     0.31295   0.80604   0.28136   0.00000  Uiso   1.00
C576   C     0.02035   0.86175   0.22104   0.00000  Uiso   1.00
C577   C     0.16664   0.86169   0.04128   0.00000  Uiso   1.00
C578   C     0.16413   0.78702   0.45347   0.00000  Uiso   1.00
C579   C     0.20030   0.85844   0.45350   0.00000  Uiso   1.00
C580   C     0.20060   0.78987   0.05223   0.00000  Uiso   1.00
C581   C     0.16632   0.86905   0.08712   0.00000  Uiso   1.00
C582   C     0.15408   0.79179   0.40770   0.00000  Uiso   1.00
C583   C     0.18563   0.86745   0.40999   0.00000  Uiso   1.00
C584   C     0.19690   0.79376   0.09823   0.00000  Uiso   1.00
C585   C     0.17780   0.83264   0.11598   0.00000  Uiso   1.00
C586   C     0.16679   0.83170   0.38541   0.00000  Uiso   1.00
C587   C     0.18466   0.82333   0.02410   0.00000  Uiso   1.00
C588   C     0.18674   0.82039   0.47594   0.00000  Uiso   1.00
C589   C     0.29069   0.83373   0.25112   0.00000  Uiso   1.00
C590   C     0.04265   0.83376   0.25094   0.00000  Uiso   1.00
H591   H     0.15419   0.88654   0.01788   0.00000  Uiso   1.00
H592   H     0.15231   0.75914   0.47266   0.00000  Uiso   1.00
H593   H     0.21726   0.88364   0.47277   0.00000  Uiso   1.00
H594   H     0.21581   0.76089   0.03848   0.00000  Uiso   1.00
H595   H     0.04052   0.78571   0.30547   0.00000  Uiso   1.00
H596   H     0.29293   0.88341   0.19801   0.00000  Uiso   1.00
H597   H     0.29714   0.78480   0.30484   0.00000  Uiso   1.00
H598   H     0.03609   0.88241   0.19706   0.00000  Uiso   1.00
N599   N     0.16667   0.95240   0.25000   0.00000  Uiso   1.00
N600   N     0.16667   0.71427   0.25000   0.00000  Uiso   1.00
O601   O     0.10559   0.87154   0.25000   0.00000  Uiso   1.00
O602   O     0.22774   0.79513   0.25001   0.00000  Uiso   1.00
O603   O     0.22774   0.87154   0.25001   0.00000  Uiso   1.00
O604   O     0.10559   0.79513   0.25000   0.00000  Uiso   1.00
O605   O     0.16666   0.87155   0.18453   0.00000  Uiso   1.00
O606   O     0.16667   0.79511   0.31547   0.00000  Uiso   1.00
O607   O     0.16667   0.87155   0.31547   0.00000  Uiso   1.00
O608   O     0.16666   0.79511   0.18453   0.00000  Uiso   1.00
Zn609  Zn    0.16667   0.88437   0.25000   0.00000  Uiso   1.00
Zn610  Zn    0.16667   0.78229   0.25000   0.00000  Uiso   1.00
N611   N     0.23514   0.71424   0.28695   0.00000  Uiso   1.00
H612   H     0.26462   0.70416   0.27820   0.00000  Uiso   1.00
C613   C     0.23178   0.72308   0.33426   0.00000  Uiso   1.00
H614   H     0.20028   0.71399   0.34642   0.00000  Uiso   1.00
H615   H     0.23731   0.75920   0.34059   0.00000  Uiso   1.00
H616   H     0.25599   0.70389   0.35401   0.00000  Uiso   1.00
N617   N     0.09683   0.95164   0.21740   0.00000  Uiso   1.00
H618   H     0.07196   0.94954   0.23833   0.00000  Uiso   1.00
C619   C     0.08658   0.95371   0.16997   0.00000  Uiso   1.00
H620   H     0.05426   0.96685   0.16385   0.00000  Uiso   1.00
H621   H     0.08822   0.91955   0.15583   0.00000  Uiso   1.00
H622   H     0.10872   0.97569   0.15261   0.00000  Uiso   1.00
N623   N     0.09812   0.71501   0.21326   0.00000  Uiso   1.00
H624   H     0.09559   0.71334   0.17891   0.00000  Uiso   1.00
C625   C     0.05831   0.71224   0.23495   0.00000  Uiso   1.00
H626   H     0.04085   0.68149   0.22548   0.00000  Uiso   1.00
H627   H     0.03830   0.74066   0.22329   0.00000  Uiso   1.00
H628   H     0.06308   0.71372   0.27188   0.00000  Uiso   1.00
N629   N     0.24041   0.95332   0.27175   0.00000  Uiso   1.00
H630   H     0.26373   0.96284   0.25064   0.00000  Uiso   1.00
C631   C     0.25489   0.94665   0.31769   0.00000  Uiso   1.00
H632   H     0.28572   0.96349   0.32378   0.00000  Uiso   1.00
H633   H     0.25874   0.91027   0.32467   0.00000  Uiso   1.00
H634   H     0.23238   0.96050   0.34093   0.00000  Uiso   1.00
N635   N     0.15701   0.91280   0.10390   0.00000  Uiso   1.00
H636   H     0.17886   0.92380   0.12766   0.00000  Uiso   1.00
C637   C     0.14552   0.94844   0.07233   0.00000  Uiso   1.00
H638   H     0.14049   0.98022   0.09002   0.00000  Uiso   1.00
H639   H     0.11581   0.93989   0.05363   0.00000  Uiso   1.00
H640   H     0.17131   0.95468   0.04907   0.00000  Uiso   1.00
N641   N     0.12870   0.75908   0.38420   0.00000  Uiso   1.00
H642   H     0.10596   0.77231   0.36243   0.00000  Uiso   1.00
C643   C     0.11586   0.71826   0.40640   0.00000  Uiso   1.00
H644   H     0.09313   0.72604   0.43245   0.00000  Uiso   1.00
H645   H     0.14360   0.70056   0.42150   0.00000  Uiso   1.00
H646   H     0.10037   0.69557   0.38154   0.00000  Uiso   1.00
N647   N     0.18579   0.91245   0.39245   0.00000  Uiso   1.00
H648   H     0.15835   0.92080   0.37496   0.00000  Uiso   1.00
C649   C     0.19993   0.94900   0.42107   0.00000  Uiso   1.00
H650   H     0.19649   0.98133   0.40271   0.00000  Uiso   1.00
H651   H     0.23372   0.94493   0.43084   0.00000  Uiso   1.00
H652   H     0.18055   0.95077   0.45110   0.00000  Uiso   1.00
N653   N     0.21577   0.76043   0.12680   0.00000  Uiso   1.00
H654   H     0.24765   0.75740   0.12276   0.00000  Uiso   1.00
C655   C     0.19474   0.71738   0.12595   0.00000  Uiso   1.00
H656   H     0.19890   0.70082   0.09333   0.00000  Uiso   1.00
H657   H     0.16070   0.72146   0.13158   0.00000  Uiso   1.00
H658   H     0.20848   0.69556   0.15296   0.00000  Uiso   1.00
C659   C     0.42013   0.83337   0.25018   0.00000  Uiso   1.00
C660   C     0.57987   0.83339   0.25061   0.00000  Uiso   1.00
C661   C     0.50281   0.83346   0.16388   0.00000  Uiso   1.00
C662   C     0.49880   0.83314   0.33638   0.00000  Uiso   1.00
C663   C     0.53412   0.69068   0.26649   0.00000  Uiso   1.00
C664   C     0.46570   0.97595   0.23383   0.00000  Uiso   1.00
C665   C     0.46578   0.69077   0.23330   0.00000  Uiso   1.00
C666   C     0.53506   0.97618   0.26403   0.00000  Uiso   1.00
C667   C     0.35608   0.80654   0.28171   0.00000  Uiso   1.00
C668   C     0.64397   0.86208   0.22139   0.00000  Uiso   1.00
C669   C     0.64629   0.80604   0.28136   0.00000  Uiso   1.00
C670   C     0.35368   0.86175   0.22104   0.00000  Uiso   1.00
C671   C     0.49997   0.86169   0.04128   0.00000  Uiso   1.00
C672   C     0.49747   0.78702   0.45347   0.00000  Uiso   1.00
C673   C     0.53364   0.85844   0.45350   0.00000  Uiso   1.00
C674   C     0.53393   0.78987   0.05223   0.00000  Uiso   1.00
C675   C     0.49965   0.86905   0.08712   0.00000  Uiso   1.00
C676   C     0.48741   0.79179   0.40770   0.00000  Uiso   1.00
C677   C     0.51897   0.86745   0.40999   0.00000  Uiso   1.00
C678   C     0.53023   0.79376   0.09823   0.00000  Uiso   1.00
C679   C     0.51113   0.83264   0.11598   0.00000  Uiso   1.00
C680   C     0.50012   0.83170   0.38541   0.00000  Uiso   1.00
C681   C     0.51799   0.82333   0.02410   0.00000  Uiso   1.00
C682   C     0.52007   0.82039   0.47594   0.00000  Uiso   1.00
C683   C     0.62402   0.83373   0.25112   0.00000  Uiso   1.00
C684   C     0.37599   0.83376   0.25094   0.00000  Uiso   1.00
H685   H     0.48752   0.88654   0.01788   0.00000  Uiso   1.00
H686   H     0.48564   0.75914   0.47266   0.00000  Uiso   1.00
H687   H     0.55059   0.88364   0.47277   0.00000  Uiso   1.00
H688   H     0.54914   0.76089   0.03848   0.00000  Uiso   1.00
H689   H     0.37385   0.78571   0.30547   0.00000  Uiso   1.00
H690   H     0.62626   0.88341   0.19801   0.00000  Uiso   1.00
H691   H     0.63048   0.78480   0.30484   0.00000  Uiso   1.00
H692   H     0.36942   0.88241   0.19706   0.00000  Uiso   1.00
N693   N     0.50000   0.95240   0.25000   0.00000  Uiso   1.00
N694   N     0.50000   0.71427   0.25000   0.00000  Uiso   1.00
O695   O     0.43892   0.87154   0.25000   0.00000  Uiso   1.00
O696   O     0.56108   0.79513   0.25001   0.00000  Uiso   1.00
O697   O     0.56108   0.87154   0.25001   0.00000  Uiso   1.00
O698   O     0.43892   0.79513   0.25000   0.00000  Uiso   1.00
O699   O     0.50000   0.87155   0.18453   0.00000  Uiso   1.00
O700   O     0.50000   0.79511   0.31547   0.00000  Uiso   1.00
O701   O     0.50000   0.87155   0.31547   0.00000  Uiso   1.00
O702   O     0.50000   0.79511   0.18453   0.00000  Uiso   1.00
Zn703  Zn    0.50000   0.88437   0.25000   0.00000  Uiso   1.00
Zn704  Zn    0.50000   0.78229   0.25000   0.00000  Uiso   1.00
N705   N     0.56847   0.71424   0.28695   0.00000  Uiso   1.00
H706   H     0.59795   0.70416   0.27820   0.00000  Uiso   1.00
C707   C     0.56511   0.72308   0.33426   0.00000  Uiso   1.00
H708   H     0.53362   0.71399   0.34642   0.00000  Uiso   1.00
H709   H     0.57064   0.75920   0.34059   0.00000  Uiso   1.00
H710   H     0.58933   0.70389   0.35401   0.00000  Uiso   1.00
N711   N     0.43016   0.95164   0.21740   0.00000  Uiso   1.00
H712   H     0.40530   0.94954   0.23833   0.00000  Uiso   1.00
C713   C     0.41991   0.95371   0.16997   0.00000  Uiso   1.00
H714   H     0.38760   0.96685   0.16385   0.00000  Uiso   1.00
H715   H     0.42155   0.91955   0.15583   0.00000  Uiso   1.00
H716   H     0.44206   0.97569   0.15261   0.00000  Uiso   1.00
N717   N     0.43145   0.71501   0.21326   0.00000  Uiso   1.00
H718   H     0.42893   0.71334   0.17891   0.00000  Uiso   1.00
C719   C     0.39165   0.71224   0.23495   0.00000  Uiso   1.00
H720   H     0.37418   0.68149   0.22548   0.00000  Uiso   1.00
H721   H     0.37163   0.74066   0.22329   0.00000  Uiso   1.00
H722   H     0.39641   0.71372   0.27188   0.00000  Uiso   1.00
N723   N     0.57375   0.95332   0.27175   0.00000  Uiso   1.00
H724   H     0.59706   0.96284   0.25064   0.00000  Uiso   1.00
C725   C     0.58822   0.94665   0.31769   0.00000  Uiso   1.00
H726   H     0.61905   0.96349   0.32378   0.00000  Uiso   1.00
H727   H     0.59208   0.91027   0.32467   0.00000  Uiso   1.00
H728   H     0.56572   0.96050   0.34093   0.00000  Uiso   1.00
N729   N     0.49035   0.91280   0.10390   0.00000  Uiso   1.00
H730   H     0.51219   0.92380   0.12766   0.00000  Uiso   1.00
C731   C     0.47886   0.94844   0.07233   0.00000  Uiso   1.00
H732   H     0.47382   0.98022   0.09002   0.00000  Uiso   1.00
H733   H     0.44914   0.93989   0.05363   0.00000  Uiso   1.00
H734   H     0.50464   0.95468   0.04907   0.00000  Uiso   1.00
N735   N     0.46203   0.75908   0.38420   0.00000  Uiso   1.00
H736   H     0.43930   0.77231   0.36243   0.00000  Uiso   1.00
C737   C     0.44919   0.71826   0.40640   0.00000  Uiso   1.00
H738   H     0.42646   0.72604   0.43245   0.00000  Uiso   1.00
H739   H     0.47693   0.70056   0.42150   0.00000  Uiso   1.00
H740   H     0.43371   0.69557   0.38154   0.00000  Uiso   1.00
N741   N     0.51912   0.91245   0.39245   0.00000  Uiso   1.00
H742   H     0.49168   0.92080   0.37496   0.00000  Uiso   1.00
C743   C     0.53326   0.94900   0.42107   0.00000  Uiso   1.00
H744   H     0.52982   0.98133   0.40271   0.00000  Uiso   1.00
H745   H     0.56705   0.94493   0.43084   0.00000  Uiso   1.00
H746   H     0.51389   0.95077   0.45110   0.00000  Uiso   1.00
N747   N     0.54910   0.76043   0.12680   0.00000  Uiso   1.00
H748   H     0.58099   0.75740   0.12276   0.00000  Uiso   1.00
C749   C     0.52808   0.71738   0.12595   0.00000  Uiso   1.00
H750   H     0.53223   0.70082   0.09333   0.00000  Uiso   1.00
H751   H     0.49403   0.72146   0.13158   0.00000  Uiso   1.00
H752   H     0.54181   0.69556   0.15296   0.00000  Uiso   1.00
C753   C     0.75346   0.83337   0.25018   0.00000  Uiso   1.00
C754   C     0.91320   0.83339   0.25061   0.00000  Uiso   1.00
C755   C     0.83614   0.83346   0.16388   0.00000  Uiso   1.00
C756   C     0.83213   0.83314   0.33638   0.00000  Uiso   1.00
C757   C     0.86745   0.69068   0.26649   0.00000  Uiso   1.00
C758   C     0.79904   0.97595   0.23383   0.00000  Uiso   1.00
C759   C     0.79911   0.69077   0.23330   0.00000  Uiso   1.00
C760   C     0.86839   0.97618   0.26403   0.00000  Uiso   1.00
C761   C     0.68941   0.80654   0.28171   0.00000  Uiso   1.00
C762   C     0.97731   0.86208   0.22139   0.00000  Uiso   1.00
C763   C     0.97962   0.80604   0.28136   0.00000  Uiso   1.00
C764   C     0.68701   0.86175   0.22104   0.00000  Uiso   1.00
C765   C     0.83331   0.86169   0.04128   0.00000  Uiso   1.00
C766   C     0.83080   0.78702   0.45347   0.00000  Uiso   1.00
C767   C     0.86697   0.85844   0.45350   0.00000  Uiso   1.00
C768   C     0.86726   0.78987   0.05223   0.00000  Uiso   1.00
C769   C     0.83298   0.86905   0.08712   0.00000  Uiso   1.00
C770   C     0.82074   0.79179   0.40770   0.00000  Uiso   1.00
C771   C     0.85230   0.86745   0.40999   0.00000  Uiso   1.00
C772   C     0.86356   0.79376   0.09823   0.00000  Uiso   1.00
C773   C     0.84447   0.83264   0.11598   0.00000  Uiso   1.00
C774   C     0.83345   0.83170   0.38541   0.00000  Uiso   1.00
C775   C     0.85132   0.82333   0.02410   0.00000  Uiso   1.00
C776   C     0.85340   0.82039   0.47594   0.00000  Uiso   1.00
C777   C     0.95735   0.83373   0.25112   0.00000  Uiso   1.00
C778   C     0.70932   0.83376   0.25094   0.00000  Uiso   1.00
H779   H     0.82085   0.88654   0.01788   0.00000  Uiso   1.00
H780   H     0.81898   0.75914   0.47266   0.00000  Uiso   1.00
H781   H     0.88392   0.88364   0.47277   0.00000  Uiso   1.00
H782   H     0.88247   0.76089   0.03848   0.00000  Uiso   1.00
H783   H     0.70718   0.78571   0.30547   0.00000  Uiso   1.00
H784   H     0.95960   0.88341   0.19801   0.00000  Uiso   1.00
H785   H     0.96381   0.78480   0.30484   0.00000  Uiso   1.00
H786   H     0.70276   0.88241   0.19706   0.00000  Uiso   1.00
N787   N     0.83333   0.95240   0.25000   0.00000  Uiso   1.00
N788   N     0.83333   0.71427   0.25000   0.00000  Uiso   1.00
O789   O     0.77226   0.87154   0.25000   0.00000  Uiso   1.00
O790   O     0.89441   0.79513   0.25001   0.00000  Uiso   1.00
O791   O     0.89441   0.87154   0.25001   0.00000  Uiso   1.00
O792   O     0.77226   0.79513   0.25000   0.00000  Uiso   1.00
O793   O     0.83333   0.87155   0.18453   0.00000  Uiso   1.00
O794   O     0.83334   0.79511   0.31547   0.00000  Uiso   1.00
O795   O     0.83334   0.87155   0.31547   0.00000  Uiso   1.00
O796   O     0.83333   0.79511   0.18453   0.00000  Uiso   1.00
Zn797  Zn    0.83333   0.88437   0.25000   0.00000  Uiso   1.00
Zn798  Zn    0.83333   0.78229   0.25000   0.00000  Uiso   1.00
N799   N     0.90181   0.71424   0.28695   0.00000  Uiso   1.00
H800   H     0.93129   0.70416   0.27820   0.00000  Uiso   1.00
C801   C     0.89845   0.72308   0.33426   0.00000  Uiso   1.00
H802   H     0.86695   0.71399   0.34642   0.00000  Uiso   1.00
H803   H     0.90398   0.75920   0.34059   0.00000  Uiso   1.00
H804   H     0.92266   0.70389   0.35401   0.00000  Uiso   1.00
N805   N     0.76350   0.95164   0.21740   0.00000  Uiso   1.00
H806   H     0.73863   0.94954   0.23833   0.00000  Uiso   1.00
C807   C     0.75325   0.95371   0.16997   0.00000  Uiso   1.00
H808   H     0.72093   0.96685   0.16385   0.00000  Uiso   1.00
H809   H     0.75489   0.91955   0.15583   0.00000  Uiso   1.00
H810   H     0.77539   0.97569   0.15261   0.00000  Uiso   1.00
N811   N     0.76479   0.71501   0.21326   0.00000  Uiso   1.00
H812   H     0.76226   0.71334   0.17891   0.00000  Uiso   1.00
C813   C     0.72498   0.71224   0.23495   0.00000  Uiso   1.00
H814   H     0.70752   0.68149   0.22548   0.00000  Uiso   1.00
H815   H     0.70497   0.74066   0.22329   0.00000  Uiso   1.00
H816   H     0.72974   0.71372   0.27188   0.00000  Uiso   1.00
N817   N     0.90708   0.95332   0.27175   0.00000  Uiso   1.00
H818   H     0.93040   0.96284   0.25064   0.00000  Uiso   1.00
C819   C     0.92156   0.94665   0.31769   0.00000  Uiso   1.00
H820   H     0.95239   0.96349   0.32378   0.00000  Uiso   1.00
H821   H     0.92541   0.91027   0.32467   0.00000  Uiso   1.00
H822   H     0.89905   0.96050   0.34093   0.00000  Uiso   1.00
N823   N     0.82368   0.91280   0.10390   0.00000  Uiso   1.00
H824   H     0.84552   0.92380   0.12766   0.00000  Uiso   1.00
C825   C     0.81219   0.94844   0.07233   0.00000  Uiso   1.00
H826   H     0.80715   0.98022   0.09002   0.00000  Uiso   1.00
H827   H     0.78247   0.93989   0.05363   0.00000  Uiso   1.00
H828   H     0.83797   0.95468   0.04907   0.00000  Uiso   1.00
N829   N     0.79537   0.75908   0.38420   0.00000  Uiso   1.00
H830   H     0.77263   0.77231   0.36243   0.00000  Uiso   1.00
C831   C     0.78253   0.71826   0.40640   0.00000  Uiso   1.00
H832   H     0.75979   0.72604   0.43245   0.00000  Uiso   1.00
H833   H     0.81026   0.70056   0.42150   0.00000  Uiso   1.00
H834   H     0.76704   0.69557   0.38154   0.00000  Uiso   1.00
N835   N     0.85246   0.91245   0.39245   0.00000  Uiso   1.00
H836   H     0.82501   0.92080   0.37496   0.00000  Uiso   1.00
C837   C     0.86660   0.94900   0.42107   0.00000  Uiso   1.00
H838   H     0.86316   0.98133   0.40271   0.00000  Uiso   1.00
H839   H     0.90038   0.94493   0.43084   0.00000  Uiso   1.00
H840   H     0.84722   0.95077   0.45110   0.00000  Uiso   1.00
N841   N     0.88244   0.76043   0.12680   0.00000  Uiso   1.00
H842   H     0.91432   0.75740   0.12276   0.00000  Uiso   1.00
C843   C     0.86141   0.71738   0.12595   0.00000  Uiso   1.00
H844   H     0.86556   0.70082   0.09333   0.00000  Uiso   1.00
H845   H     0.82736   0.72146   0.13158   0.00000  Uiso   1.00
H846   H     0.87515   0.69556   0.15296   0.00000  Uiso   1.00
C847   C     0.08680   0.16670   0.75018   0.00000  Uiso   1.00
C848   C     0.24654   0.16673   0.75061   0.00000  Uiso   1.00
C849   C     0.16948   0.16680   0.66388   0.00000  Uiso   1.00
C850   C     0.16546   0.16647   0.83638   0.00000  Uiso   1.00
C851   C     0.20078   0.02401   0.76649   0.00000  Uiso   1.00
C852   C     0.13237   0.30928   0.73383   0.00000  Uiso   1.00
C853   C     0.13244   0.02410   0.73330   0.00000  Uiso   1.00
C854   C     0.20173   0.30952   0.76403   0.00000  Uiso   1.00
C855   C     0.02275   0.13988   0.78171   0.00000  Uiso   1.00
C856   C     0.31064   0.19541   0.72139   0.00000  Uiso   1.00
C857   C     0.31295   0.13938   0.78136   0.00000  Uiso   1.00
C858   C     0.02035   0.19508   0.72104   0.00000  Uiso   1.00
C859   C     0.16664   0.19503   0.54128   0.00000  Uiso   1.00
C860   C     0.16413   0.12035   0.95347   0.00000  Uiso   1.00
C861   C     0.20030   0.19177   0.95350   0.00000  Uiso   1.00
C862   C     0.20060   0.12320   0.55223   0.00000  Uiso   1.00
C863   C     0.16632   0.20238   0.58712   0.00000  Uiso   1.00
C864   C     0.15408   0.12512   0.90770   0.00000  Uiso   1.00
C865   C     0.18563   0.20078   0.90999   0.00000  Uiso   1.00
C866   C     0.19690   0.12709   0.59823   0.00000  Uiso   1.00
C867   C     0.17780   0.16597   0.61598   0.00000  Uiso   1.00
C868   C     0.16679   0.16504   0.88541   0.00000  Uiso   1.00
C869   C     0.18466   0.15666   0.52410   0.00000  Uiso   1.00
C870   C     0.18674   0.15373   0.97594   0.00000  Uiso   1.00
C871   C     0.29069   0.16706   0.75112   0.00000  Uiso   1.00
C872   C     0.04265   0.16710   0.75094   0.00000  Uiso   1.00
H873   H     0.15419   0.21987   0.51788   0.00000  Uiso   1.00
H874   H     0.15231   0.09247   0.97266   0.00000  Uiso   1.00
H875   H     0.21726   0.21697   0.97277   0.00000  Uiso   1.00
H876   H     0.21581   0.09422   0.53848   0.00000  Uiso   1.00
H877   H     0.04052   0.11905   0.80547   0.00000  Uiso   1.00
H878   H     0.29293   0.21674   0.69801   0.00000  Uiso   1.00
H879   H     0.29714   0.11813   0.80484   0.00000  Uiso   1.00
H880   H     0.03609   0.21574   0.69706   0.00000  Uiso   1.00
N881   N     0.16667   0.28573   0.75000   0.00000  Uiso   1.00
N882   N     0.16667   0.04760   0.75000   0.00000  Uiso   1.00
O883   O     0.10559   0.20487   0.75000   0.00000  Uiso   1.00
O884   O     0.22774   0.12846   0.75001   0.00000  Uiso   1.00
O885   O     0.22774   0.20487   0.75001   0.00000  Uiso   1.00
O886   O     0.10559   0.12846   0.75000   0.00000  Uiso   1.00
O887   O     0.16666   0.20489   0.68453   0.00000  Uiso   1.00
O888   O     0.16667   0.12845   0.81547   0.00000  Uiso   1.00
O889   O     0.16667   0.20489   0.81547   0.00000  Uiso   1.00
O890   O     0.16666   0.12845   0.68453   0.00000  Uiso   1.00
Zn891  Zn    0.16667   0.21771   0.75000   0.00000  Uiso   1.00
Zn892  Zn    0.16667   0.11563   0.75000   0.00000  Uiso   1.00
N893   N     0.23514   0.04758   0.78695   0.00000  Uiso   1.00
H894   H     0.26462   0.03750   0.77820   0.00000  Uiso   1.00
C895   C     0.23178   0.05641   0.83426   0.00000  Uiso   1.00
H896   H     0.20028   0.04733   0.84642   0.00000  Uiso   1.00
H897   H     0.23731   0.09253   0.84059   0.00000  Uiso   1.00
H898   H     0.25599   0.03722   0.85401   0.00000  Uiso   1.00
N899   N     0.09683   0.28497   0.71740   0.00000  Uiso   1.00
H900   H     0.07196   0.28288   0.73833   0.00000  Uiso   1.00
C901   C     0.08658   0.28704   0.66997   0.00000  Uiso   1.00
H902   H     0.05426   0.30019   0.66385   0.00000  Uiso   1.00
H903   H     0.08822   0.25288   0.65583   0.00000  Uiso   1.00
H904   H     0.10872   0.30903   0.65261   0.00000  Uiso   1.00
N905   N     0.09812   0.04834   0.71326   0.00000  Uiso   1.00
H906   H     0.09559   0.04668   0.67891   0.00000  Uiso   1.00
C907   C     0.05831   0.04557   0.73495   0.00000  Uiso   1.00
H908   H     0.04085   0.01482   0.72548   0.00000  Uiso   1.00
H909   H     0.03830   0.07399   0.72329   0.00000  Uiso   1.00
H910   H     0.06308   0.04705   0.77188   0.00000  Uiso   1.00
N911   N     0.24041   0.28665   0.77175   0.00000  Uiso   1.00
H912   H     0.26373   0.29617   0.75064   0.00000  Uiso   1.00
C913   C     0.25489   0.27999   0.81769   0.00000  Uiso   1.00
H914   H     0.28572   0.29682   0.82378   0.00000  Uiso   1.00
H915   H     0.25874   0.24361   0.82467   0.00000  Uiso   1.00
H916   H     0.23238   0.29383   0.84093   0.00000  Uiso   1.00
N917   N     0.15701   0.24613   0.60390   0.00000  Uiso   1.00
H918   H     0.17886   0.25714   0.62766   0.00000  Uiso   1.00
C919   C     0.14552   0.28177   0.57233   0.00000  Uiso   1.00
H920   H     0.14049   0.31356   0.59002   0.00000  Uiso   1.00
H921   H     0.11581   0.27323   0.55363   0.00000  Uiso   1.00
H922   H     0.17131   0.28801   0.54907   0.00000  Uiso   1.00
N923   N     0.12870   0.09242   0.88420   0.00000  Uiso   1.00
H924   H     0.10596   0.10565   0.86243   0.00000  Uiso   1.00
C925   C     0.11586   0.05160   0.90640   0.00000  Uiso   1.00
H926   H     0.09313   0.05938   0.93245   0.00000  Uiso   1.00
H927   H     0.14360   0.03390   0.92150   0.00000  Uiso   1.00
H928   H     0.10037   0.02890   0.88154   0.00000  Uiso   1.00
N929   N     0.18579   0.24579   0.89245   0.00000  Uiso   1.00
H930   H     0.15835   0.25413   0.87496   0.00000  Uiso   1.00
C931   C     0.19993   0.28234   0.92107   0.00000  Uiso   1.00
H932   H     0.19649   0.31466   0.90271   0.00000  Uiso   1.00
H933   H     0.23372   0.27826   0.93084   0.00000  Uiso   1.00
H934   H     0.18055   0.28411   0.95110   0.00000  Uiso   1.00
N935   N     0.21577   0.09377   0.62680   0.00000  Uiso   1.00
H936   H     0.24765   0.09074   0.62276   0.00000  Uiso   1.00
C937   C     0.19474   0.05071   0.62595   0.00000  Uiso   1.00
H938   H     0.19890   0.03415   0.59333   0.00000  Uiso   1.00
H939   H     0.16070   0.05479   0.63158   0.00000  Uiso   1.00
H940   H     0.20848   0.02889   0.65296   0.00000  Uiso   1.00
C941   C     0.42013   0.16670   0.75018   0.00000  Uiso   1.00
C942   C     0.57987   0.16673   0.75061   0.00000  Uiso   1.00
C943   C     0.50281   0.16680   0.66388   0.00000  Uiso   1.00
C944   C     0.49880   0.16647   0.83638   0.00000  Uiso   1.00
C945   C     0.53412   0.02401   0.76649   0.00000  Uiso   1.00
C946   C     0.46570   0.30928   0.73383   0.00000  Uiso   1.00
C947   C     0.46578   0.02410   0.73330   0.00000  Uiso   1.00
C948   C     0.53506   0.30952   0.76403   0.00000  Uiso   1.00
C949   C     0.35608   0.13988   0.78171   0.00000  Uiso   1.00
C950   C     0.64397   0.19541   0.72139   0.00000  Uiso   1.00
C951   C     0.64629   0.13938   0.78136   0.00000  Uiso   1.00
C952   C     0.35368   0.19508   0.72104   0.00000  Uiso   1.00
C953   C     0.49997   0.19503   0.54128   0.00000  Uiso   1.00
C954   C     0.49747   0.12035   0.95347   0.00000  Uiso   1.00
C955   C     0.53364   0.19177   0.95350   0.00000  Uiso   1.00
C956   C     0.53393   0.12320   0.55223   0.00000  Uiso   1.00
C957   C     0.49965   0.20238   0.58712   0.00000  Uiso   1.00
C958   C     0.48741   0.12512   0.90770   0.00000  Uiso   1.00
C959   C     0.51897   0.20078   0.90999   0.00000  Uiso   1.00
C960   C     0.53023   0.12709   0.59823   0.00000  Uiso   1.00
C961   C     0.51113   0.16597   0.61598   0.00000  Uiso   1.00
C962   C     0.50012   0.16504   0.88541   0.00000  Uiso   1.00
C963   C     0.51799   0.15666   0.52410   0.00000  Uiso   1.00
C964   C     0.52007   0.15373   0.97594   0.00000  Uiso   1.00
C965   C     0.62402   0.16706   0.75112   0.00000  Uiso   1.00
C966   C     0.37599   0.16710   0.75094   0.00000  Uiso   1.00
H967   H     0.48752   0.21987   0.51788   0.00000  Uiso   1.00
H968   H     0.48564   0.09247   0.97266   0.00000  Uiso   1.00
H969   H     0.55059   0.21697   0.97277   0.00000  Uiso   1.00
H970   H     0.54914   0.09422   0.53848   0.00000  Uiso   1.00
H971   H     0.37385   0.11905   0.80547   0.00000  Uiso   1.00
H972   H     0.62626   0.21674   0.69801   0.00000  Uiso   1.00
H973   H     0.63048   0.11813   0.80484   0.00000  Uiso   1.00
H974   H     0.36942   0.21574   0.69706   0.00000  Uiso   1.00
N975   N     0.50000   0.28573   0.75000   0.00000  Uiso   1.00
N976   N     0.50000   0.04760   0.75000   0.00000  Uiso   1.00
O977   O     0.43892   0.20487   0.75000   0.00000  Uiso   1.00
O978   O     0.56108   0.12846   0.75001   0.00000  Uiso   1.00
O979   O     0.56108   0.20487   0.75001   0.00000  Uiso   1.00
O980   O     0.43892   0.12846   0.75000   0.00000  Uiso   1.00
O981   O     0.50000   0.20489   0.68453   0.00000  Uiso   1.00
O982   O     0.50000   0.12845   0.81547   0.00000  Uiso   1.00
O983   O     0.50000   0.20489   0.81547   0.00000  Uiso   1.00
O984   O     0.50000   0.12845   0.68453   0.00000  Uiso   1.00
Zn985  Zn    0.50000   0.21771   0.75000   0.00000  Uiso   1.00
Zn986  Zn    0.50000   0.11563   0.75000   0.00000  Uiso   1.00
N987   N     0.56847   0.04758   0.78695   0.00000  Uiso   1.00
H988   H     0.59795   0.03750   0.77820   0.00000  Uiso   1.00
C989   C     0.56511   0.05641   0.83426   0.00000  Uiso   1.00
H990   H     0.53362   0.04733   0.84642   0.00000  Uiso   1.00
H991   H     0.57064   0.09253   0.84059   0.00000  Uiso   1.00
H992   H     0.58933   0.03722   0.85401   0.00000  Uiso   1.00
N993   N     0.43016   0.28497   0.71740   0.00000  Uiso   1.00
H994   H     0.40530   0.28288   0.73833   0.00000  Uiso   1.00
C995   C     0.41991   0.28704   0.66997   0.00000  Uiso   1.00
H996   H     0.38760   0.30019   0.66385   0.00000  Uiso   1.00
H997   H     0.42155   0.25288   0.65583   0.00000  Uiso   1.00
H998   H     0.44206   0.30903   0.65261   0.00000  Uiso   1.00
N999   N     0.43145   0.04834   0.71326   0.00000  Uiso   1.00
H1000  H     0.42893   0.04668   0.67891   0.00000  Uiso   1.00
C1001  C     0.39165   0.04557   0.73495   0.00000  Uiso   1.00
H1002  H     0.37418   0.01482   0.72548   0.00000  Uiso   1.00
H1003  H     0.37163   0.07399   0.72329   0.00000  Uiso   1.00
H1004  H     0.39641   0.04705   0.77188   0.00000  Uiso   1.00
N1005  N     0.57375   0.28665   0.77175   0.00000  Uiso   1.00
H1006  H     0.59706   0.29617   0.75064   0.00000  Uiso   1.00
C1007  C     0.58822   0.27999   0.81769   0.00000  Uiso   1.00
H1008  H     0.61905   0.29682   0.82378   0.00000  Uiso   1.00
H1009  H     0.59208   0.24361   0.82467   0.00000  Uiso   1.00
H1010  H     0.56572   0.29383   0.84093   0.00000  Uiso   1.00
N1011  N     0.49035   0.24613   0.60390   0.00000  Uiso   1.00
H1012  H     0.51219   0.25714   0.62766   0.00000  Uiso   1.00
C1013  C     0.47886   0.28177   0.57233   0.00000  Uiso   1.00
H1014  H     0.47382   0.31356   0.59002   0.00000  Uiso   1.00
H1015  H     0.44914   0.27323   0.55363   0.00000  Uiso   1.00
H1016  H     0.50464   0.28801   0.54907   0.00000  Uiso   1.00
N1017  N     0.46203   0.09242   0.88420   0.00000  Uiso   1.00
H1018  H     0.43930   0.10565   0.86243   0.00000  Uiso   1.00
C1019  C     0.44919   0.05160   0.90640   0.00000  Uiso   1.00
H1020  H     0.42646   0.05938   0.93245   0.00000  Uiso   1.00
H1021  H     0.47693   0.03390   0.92150   0.00000  Uiso   1.00
H1022  H     0.43371   0.02890   0.88154   0.00000  Uiso   1.00
N1023  N     0.51912   0.24579   0.89245   0.00000  Uiso   1.00
H1024  H     0.49168   0.25413   0.87496   0.00000  Uiso   1.00
C1025  C     0.53326   0.28234   0.92107   0.00000  Uiso   1.00
H1026  H     0.52982   0.31466   0.90271   0.00000  Uiso   1.00
H1027  H     0.56705   0.27826   0.93084   0.00000  Uiso   1.00
H1028  H     0.51389   0.28411   0.95110   0.00000  Uiso   1.00
N1029  N     0.54910   0.09377   0.62680   0.00000  Uiso   1.00
H1030  H     0.58099   0.09074   0.62276   0.00000  Uiso   1.00
C1031  C     0.52808   0.05071   0.62595   0.00000  Uiso   1.00
H1032  H     0.53223   0.03415   0.59333   0.00000  Uiso   1.00
H1033  H     0.49403   0.05479   0.63158   0.00000  Uiso   1.00
H1034  H     0.54181   0.02889   0.65296   0.00000  Uiso   1.00
C1035  C     0.75346   0.16670   0.75018   0.00000  Uiso   1.00
C1036  C     0.91320   0.16673   0.75061   0.00000  Uiso   1.00
C1037  C     0.83614   0.16680   0.66388   0.00000  Uiso   1.00
C1038  C     0.83213   0.16647   0.83638   0.00000  Uiso   1.00
C1039  C     0.86745   0.02401   0.76649   0.00000  Uiso   1.00
C1040  C     0.79904   0.30928   0.73383   0.00000  Uiso   1.00
C1041  C     0.79911   0.02410   0.73330   0.00000  Uiso   1.00
C1042  C     0.86839   0.30952   0.76403   0.00000  Uiso   1.00
C1043  C     0.68941   0.13988   0.78171   0.00000  Uiso   1.00
C1044  C     0.97731   0.19541   0.72139   0.00000  Uiso   1.00
C1045  C     0.97962   0.13938   0.78136   0.00000  Uiso   1.00
C1046  C     0.68701   0.19508   0.72104   0.00000  Uiso   1.00
C1047  C     0.83331   0.19503   0.54128   0.00000  Uiso   1.00
C1048  C     0.83080   0.12035   0.95347   0.00000  Uiso   1.00
C1049  C     0.86697   0.19177   0.95350   0.00000  Uiso   1.00
C1050  C     0.86726   0.12320   0.55223   0.00000  Uiso   1.00
C1051  C     0.83298   0.20238   0.58712   0.00000  Uiso   1.00
C1052  C     0.82074   0.12512   0.90770   0.00000  Uiso   1.00
C1053  C     0.85230   0.20078   0.90999   0.00000  Uiso   1.00
C1054  C     0.86356   0.12709   0.59823   0.00000  Uiso   1.00
C1055  C     0.84447   0.16597   0.61598   0.00000  Uiso   1.00
C1056  C     0.83345   0.16504   0.88541   0.00000  Uiso   1.00
C1057  C     0.85132   0.15666   0.52410   0.00000  Uiso   1.00
C1058  C     0.85340   0.15373   0.97594   0.00000  Uiso   1.00
C1059  C     0.95735   0.16706   0.75112   0.00000  Uiso   1.00
C1060  C     0.70932   0.16710   0.75094   0.00000  Uiso   1.00
H1061  H     0.82085   0.21987   0.51788   0.00000  Uiso   1.00
H1062  H     0.81898   0.09247   0.97266   0.00000  Uiso   1.00
H1063  H     0.88392   0.21697   0.97277   0.00000  Uiso   1.00
H1064  H     0.88247   0.09422   0.53848   0.00000  Uiso   1.00
H1065  H     0.70718   0.11905   0.80547   0.00000  Uiso   1.00
H1066  H     0.95960   0.21674   0.69801   0.00000  Uiso   1.00
H1067  H     0.96381   0.11813   0.80484   0.00000  Uiso   1.00
H1068  H     0.70276   0.21574   0.69706   0.00000  Uiso   1.00
N1069  N     0.83333   0.28573   0.75000   0.00000  Uiso   1.00
N1070  N     0.83333   0.04760   0.75000   0.00000  Uiso   1.00
O1071  O     0.77226   0.20487   0.75000   0.00000  Uiso   1.00
O1072  O     0.89441   0.12846   0.75001   0.00000  Uiso   1.00
O1073  O     0.89441   0.20487   0.75001   0.00000  Uiso   1.00
O1074  O     0.77226   0.12846   0.75000   0.00000  Uiso   1.00
O1075  O     0.83333   0.20489   0.68453   0.00000  Uiso   1.00
O1076  O     0.83334   0.12845   0.81547   0.00000  Uiso   1.00
O1077  O     0.83334   0.20489   0.81547   0.00000  Uiso   1.00
O1078  O     0.83333   0.12845   0.68453   0.00000  Uiso   1.00
Zn1079 Zn    0.83333   0.21771   0.75000   0.00000  Uiso   1.00
Zn1080 Zn    0.83333   0.11563   0.75000   0.00000  Uiso   1.00
N1081  N     0.90181   0.04758   0.78695   0.00000  Uiso   1.00
H1082  H     0.93129   0.03750   0.77820   0.00000  Uiso   1.00
C1083  C     0.89845   0.05641   0.83426   0.00000  Uiso   1.00
H1084  H     0.86695   0.04733   0.84642   0.00000  Uiso   1.00
H1085  H     0.90398   0.09253   0.84059   0.00000  Uiso   1.00
H1086  H     0.92266   0.03722   0.85401   0.00000  Uiso   1.00
N1087  N     0.76350   0.28497   0.71740   0.00000  Uiso   1.00
H1088  H     0.73863   0.28288   0.73833   0.00000  Uiso   1.00
C1089  C     0.75325   0.28704   0.66997   0.00000  Uiso   1.00
H1090  H     0.72093   0.30019   0.66385   0.00000  Uiso   1.00
H1091  H     0.75489   0.25288   0.65583   0.00000  Uiso   1.00
H1092  H     0.77539   0.30903   0.65261   0.00000  Uiso   1.00
N1093  N     0.76479   0.04834   0.71326   0.00000  Uiso   1.00
H1094  H     0.76226   0.04668   0.67891   0.00000  Uiso   1.00
C1095  C     0.72498   0.04557   0.73495   0.00000  Uiso   1.00
H1096  H     0.70752   0.01482   0.72548   0.00000  Uiso   1.00
H1097  H     0.70497   0.07399   0.72329   0.00000  Uiso   1.00
H1098  H     0.72974   0.04705   0.77188   0.00000  Uiso   1.00
N1099  N     0.90708   0.28665   0.77175   0.00000  Uiso   1.00
H1100  H     0.93040   0.29617   0.75064   0.00000  Uiso   1.00
C1101  C     0.92156   0.27999   0.81769   0.00000  Uiso   1.00
H1102  H     0.95239   0.29682   0.82378   0.00000  Uiso   1.00
H1103  H     0.92541   0.24361   0.82467   0.00000  Uiso   1.00
H1104  H     0.89905   0.29383   0.84093   0.00000  Uiso   1.00
N1105  N     0.82368   0.24613   0.60390   0.00000  Uiso   1.00
H1106  H     0.84552   0.25714   0.62766   0.00000  Uiso   1.00
C1107  C     0.81219   0.28177   0.57233   0.00000  Uiso   1.00
H1108  H     0.80715   0.31356   0.59002   0.00000  Uiso   1.00
H1109  H     0.78247   0.27323   0.55363   0.00000  Uiso   1.00
H1110  H     0.83797   0.28801   0.54907   0.00000  Uiso   1.00
N1111  N     0.79537   0.09242   0.88420   0.00000  Uiso   1.00
H1112  H     0.77263   0.10565   0.86243   0.00000  Uiso   1.00
C1113  C     0.78253   0.05160   0.90640   0.00000  Uiso   1.00
H1114  H     0.75979   0.05938   0.93245   0.00000  Uiso   1.00
H1115  H     0.81026   0.03390   0.92150   0.00000  Uiso   1.00
H1116  H     0.76704   0.02890   0.88154   0.00000  Uiso   1.00
N1117  N     0.85246   0.24579   0.89245   0.00000  Uiso   1.00
H1118  H     0.82501   0.25413   0.87496   0.00000  Uiso   1.00
C1119  C     0.86660   0.28234   0.92107   0.00000  Uiso   1.00
H1120  H     0.86316   0.31466   0.90271   0.00000  Uiso   1.00
H1121  H     0.90038   0.27826   0.93084   0.00000  Uiso   1.00
H1122  H     0.84722   0.28411   0.95110   0.00000  Uiso   1.00
N1123  N     0.88244   0.09377   0.62680   0.00000  Uiso   1.00
H1124  H     0.91432   0.09074   0.62276   0.00000  Uiso   1.00
C1125  C     0.86141   0.05071   0.62595   0.00000  Uiso   1.00
H1126  H     0.86556   0.03415   0.59333   0.00000  Uiso   1.00
H1127  H     0.82736   0.05479   0.63158   0.00000  Uiso   1.00
H1128  H     0.87515   0.02889   0.65296   0.00000  Uiso   1.00
C1129  C     0.08680   0.50003   0.75018   0.00000  Uiso   1.00
C1130  C     0.24654   0.50006   0.75061   0.00000  Uiso   1.00
C1131  C     0.16948   0.50013   0.66388   0.00000  Uiso   1.00
C1132  C     0.16546   0.49980   0.83638   0.00000  Uiso   1.00
C1133  C     0.20078   0.35734   0.76649   0.00000  Uiso   1.00
C1134  C     0.13237   0.64261   0.73383   0.00000  Uiso   1.00
C1135  C     0.13244   0.35744   0.73330   0.00000  Uiso   1.00
C1136  C     0.20173   0.64285   0.76403   0.00000  Uiso   1.00
C1137  C     0.02275   0.47321   0.78171   0.00000  Uiso   1.00
C1138  C     0.31064   0.52874   0.72139   0.00000  Uiso   1.00
C1139  C     0.31295   0.47271   0.78136   0.00000  Uiso   1.00
C1140  C     0.02035   0.52841   0.72104   0.00000  Uiso   1.00
C1141  C     0.16664   0.52836   0.54128   0.00000  Uiso   1.00
C1142  C     0.16413   0.45369   0.95347   0.00000  Uiso   1.00
C1143  C     0.20030   0.52511   0.95350   0.00000  Uiso   1.00
C1144  C     0.20060   0.45653   0.55223   0.00000  Uiso   1.00
C1145  C     0.16632   0.53571   0.58712   0.00000  Uiso   1.00
C1146  C     0.15408   0.45846   0.90770   0.00000  Uiso   1.00
C1147  C     0.18563   0.53411   0.90999   0.00000  Uiso   1.00
C1148  C     0.19690   0.46043   0.59823   0.00000  Uiso   1.00
C1149  C     0.17780   0.49930   0.61598   0.00000  Uiso   1.00
C1150  C     0.16679   0.49837   0.88541   0.00000  Uiso   1.00
C1151  C     0.18466   0.48999   0.52410   0.00000  Uiso   1.00
C1152  C     0.18674   0.48706   0.97594   0.00000  Uiso   1.00
C1153  C     0.29069   0.50040   0.75112   0.00000  Uiso   1.00
C1154  C     0.04265   0.50043   0.75094   0.00000  Uiso   1.00
H1155  H     0.15419   0.55321   0.51788   0.00000  Uiso   1.00
H1156  H     0.15231   0.42581   0.97266   0.00000  Uiso   1.00
H1157  H     0.21726   0.55031   0.97277   0.00000  Uiso   1.00
H1158  H     0.21581   0.42755   0.53848   0.00000  Uiso   1.00
H1159  H     0.04052   0.45238   0.80547   0.00000  Uiso   1.00
H1160  H     0.29293   0.55008   0.69801   0.00000  Uiso   1.00
H1161  H     0.29714   0.45147   0.80484   0.00000  Uiso   1.00
H1162  H     0.03609   0.54907   0.69706   0.00000  Uiso   1.00
N1163  N     0.16667   0.61907   0.75000   0.00000  Uiso   1.00
N1164  N     0.16667   0.38093   0.75000   0.00000  Uiso   1.00
O1165  O     0.10559   0.53821   0.75000   0.00000  Uiso   1.00
O1166  O     0.22774   0.46179   0.75001   0.00000  Uiso   1.00
O1167  O     0.22774   0.53821   0.75001   0.00000  Uiso   1.00
O1168  O     0.10559   0.46179   0.75000   0.00000  Uiso   1.00
O1169  O     0.16666   0.53822   0.68453   0.00000  Uiso   1.00
O1170  O     0.16667   0.46178   0.81547   0.00000  Uiso   1.00
O1171  O     0.16667   0.53822   0.81547   0.00000  Uiso   1.00
O1172  O     0.16666   0.46178   0.68453   0.00000  Uiso   1.00
Zn1173 Zn    0.16667   0.55104   0.75000   0.00000  Uiso   1.00
Zn1174 Zn    0.16667   0.44896   0.75000   0.00000  Uiso   1.00
N1175  N     0.23514   0.38091   0.78695   0.00000  Uiso   1.00
H1176  H     0.26462   0.37083   0.77820   0.00000  Uiso   1.00
C1177  C     0.23178   0.38974   0.83426   0.00000  Uiso   1.00
H1178  H     0.20028   0.38066   0.84642   0.00000  Uiso   1.00
H1179  H     0.23731   0.42586   0.84059   0.00000  Uiso   1.00
H1180  H     0.25599   0.37056   0.85401   0.00000  Uiso   1.00
N1181  N     0.09683   0.61830   0.71740   0.00000  Uiso   1.00
H1182  H     0.07196   0.61621   0.73833   0.00000  Uiso   1.00
C1183  C     0.08658   0.62038   0.66997   0.00000  Uiso   1.00
H1184  H     0.05426   0.63352   0.66385   0.00000  Uiso   1.00
H1185  H     0.08822   0.58622   0.65583   0.00000  Uiso   1.00
H1186  H     0.10872   0.64236   0.65261   0.00000  Uiso   1.00
N1187  N     0.09812   0.38167   0.71326   0.00000  Uiso   1.00
H1188  H     0.09559   0.38001   0.67891   0.00000  Uiso   1.00
C1189  C     0.05831   0.37890   0.73495   0.00000  Uiso   1.00
H1190  H     0.04085   0.34815   0.72548   0.00000  Uiso   1.00
H1191  H     0.03830   0.40732   0.72329   0.00000  Uiso   1.00
H1192  H     0.06308   0.38038   0.77188   0.00000  Uiso   1.00
N1193  N     0.24041   0.61998   0.77175   0.00000  Uiso   1.00
H1194  H     0.26373   0.62951   0.75064   0.00000  Uiso   1.00
C1195  C     0.25489   0.61332   0.81769   0.00000  Uiso   1.00
H1196  H     0.28572   0.63016   0.82378   0.00000  Uiso   1.00
H1197  H     0.25874   0.57694   0.82467   0.00000  Uiso   1.00
H1198  H     0.23238   0.62716   0.84093   0.00000  Uiso   1.00
N1199  N     0.15701   0.57946   0.60390   0.00000  Uiso   1.00
H1200  H     0.17886   0.59047   0.62766   0.00000  Uiso   1.00
C1201  C     0.14552   0.61511   0.57233   0.00000  Uiso   1.00
H1202  H     0.14049   0.64689   0.59002   0.00000  Uiso   1.00
H1203  H     0.11581   0.60656   0.55363   0.00000  Uiso   1.00
H1204  H     0.17131   0.62135   0.54907   0.00000  Uiso   1.00
N1205  N     0.12870   0.42575   0.88420   0.00000  Uiso   1.00
H1206  H     0.10596   0.43898   0.86243   0.00000  Uiso   1.00
C1207  C     0.11586   0.38493   0.90640   0.00000  Uiso   1.00
H1208  H     0.09313   0.39271   0.93245   0.00000  Uiso   1.00
H1209  H     0.14360   0.36723   0.92150   0.00000  Uiso   1.00
H1210  H     0.10037   0.36223   0.88154   0.00000  Uiso   1.00
N1211  N     0.18579   0.57912   0.89245   0.00000  Uiso   1.00
H1212  H     0.15835   0.58747   0.87496   0.00000  Uiso   1.00
C1213  C     0.19993   0.61567   0.92107   0.00000  Uiso   1.00
H1214  H     0.19649   0.64799   0.90271   0.00000  Uiso   1.00
H1215  H     0.23372   0.61160   0.93084   0.00000  Uiso   1.00
H1216  H     0.18055   0.61744   0.95110   0.00000  Uiso   1.00
N1217  N     0.21577   0.42710   0.62680   0.00000  Uiso   1.00
H1218  H     0.24765   0.42407   0.62276   0.00000  Uiso   1.00
C1219  C     0.19474   0.38405   0.62595   0.00000  Uiso   1.00
H1220  H     0.19890   0.36748   0.59333   0.00000  Uiso   1.00
H1221  H     0.16070   0.38812   0.63158   0.00000  Uiso   1.00
H1222  H     0.20848   0.36222   0.65296   0.00000  Uiso   1.00
C1223  C     0.42013   0.50003   0.75018   0.00000  Uiso   1.00
C1224  C     0.57987   0.50006   0.75061   0.00000  Uiso   1.00
C1225  C     0.50281   0.50013   0.66388   0.00000  Uiso   1.00
C1226  C     0.49880   0.49980   0.83638   0.00000  Uiso   1.00
C1227  C     0.53412   0.35734   0.76649   0.00000  Uiso   1.00
C1228  C     0.46570   0.64261   0.73383   0.00000  Uiso   1.00
C1229  C     0.46578   0.35744   0.73330   0.00000  Uiso   1.00
C1230  C     0.53506   0.64285   0.76403   0.00000  Uiso   1.00
C1231  C     0.35608   0.47321   0.78171   0.00000  Uiso   1.00
C1232  C     0.64397   0.52874   0.72139   0.00000  Uiso   1.00
C1233  C     0.64629   0.47271   0.78136   0.00000  Uiso   1.00
C1234  C     0.35368   0.52841   0.72104   0.00000  Uiso   1.00
C1235  C     0.49997   0.52836   0.54128   0.00000  Uiso   1.00
C1236  C     0.49747   0.45369   0.95347   0.00000  Uiso   1.00
C1237  C     0.53364   0.52511   0.95350   0.00000  Uiso   1.00
C1238  C     0.53393   0.45653   0.55223   0.00000  Uiso   1.00
C1239  C     0.49965   0.53571   0.58712   0.00000  Uiso   1.00
C1240  C     0.48741   0.45846   0.90770   0.00000  Uiso   1.00
C1241  C     0.51897   0.53411   0.90999   0.00000  Uiso   1.00
C1242  C     0.53023   0.46043   0.59823   0.00000  Uiso   1.00
C1243  C     0.51113   0.49930   0.61598   0.00000  Uiso   1.00
C1244  C     0.50012   0.49837   0.88541   0.00000  Uiso   1.00
C1245  C     0.51799   0.48999   0.52410   0.00000  Uiso   1.00
C1246  C     0.52007   0.48706   0.97594   0.00000  Uiso   1.00
C1247  C     0.62402   0.50040   0.75112   0.00000  Uiso   1.00
C1248  C     0.37599   0.50043   0.75094   0.00000  Uiso   1.00
H1249  H     0.48752   0.55321   0.51788   0.00000  Uiso   1.00
H1250  H     0.48564   0.42581   0.97266   0.00000  Uiso   1.00
H1251  H     0.55059   0.55031   0.97277   0.00000  Uiso   1.00
H1252  H     0.54914   0.42755   0.53848   0.00000  Uiso   1.00
H1253  H     0.37385   0.45238   0.80547   0.00000  Uiso   1.00
H1254  H     0.62626   0.55008   0.69801   0.00000  Uiso   1.00
H1255  H     0.63048   0.45147   0.80484   0.00000  Uiso   1.00
H1256  H     0.36942   0.54907   0.69706   0.00000  Uiso   1.00
N1257  N     0.50000   0.61907   0.75000   0.00000  Uiso   1.00
N1258  N     0.50000   0.38093   0.75000   0.00000  Uiso   1.00
O1259  O     0.43892   0.53821   0.75000   0.00000  Uiso   1.00
O1260  O     0.56108   0.46179   0.75001   0.00000  Uiso   1.00
O1261  O     0.56108   0.53821   0.75001   0.00000  Uiso   1.00
O1262  O     0.43892   0.46179   0.75000   0.00000  Uiso   1.00
O1263  O     0.50000   0.53822   0.68453   0.00000  Uiso   1.00
O1264  O     0.50000   0.46178   0.81547   0.00000  Uiso   1.00
O1265  O     0.50000   0.53822   0.81547   0.00000  Uiso   1.00
O1266  O     0.50000   0.46178   0.68453   0.00000  Uiso   1.00
Zn1267 Zn    0.50000   0.55104   0.75000   0.00000  Uiso   1.00
Zn1268 Zn    0.50000   0.44896   0.75000   0.00000  Uiso   1.00
N1269  N     0.56847   0.38091   0.78695   0.00000  Uiso   1.00
H1270  H     0.59795   0.37083   0.77820   0.00000  Uiso   1.00
C1271  C     0.56511   0.38974   0.83426   0.00000  Uiso   1.00
H1272  H     0.53362   0.38066   0.84642   0.00000  Uiso   1.00
H1273  H     0.57064   0.42586   0.84059   0.00000  Uiso   1.00
H1274  H     0.58933   0.37056   0.85401   0.00000  Uiso   1.00
N1275  N     0.43016   0.61830   0.71740   0.00000  Uiso   1.00
H1276  H     0.40530   0.61621   0.73833   0.00000  Uiso   1.00
C1277  C     0.41991   0.62038   0.66997   0.00000  Uiso   1.00
H1278  H     0.38760   0.63352   0.66385   0.00000  Uiso   1.00
H1279  H     0.42155   0.58622   0.65583   0.00000  Uiso   1.00
H1280  H     0.44206   0.64236   0.65261   0.00000  Uiso   1.00
N1281  N     0.43145   0.38167   0.71326   0.00000  Uiso   1.00
H1282  H     0.42893   0.38001   0.67891   0.00000  Uiso   1.00
C1283  C     0.39165   0.37890   0.73495   0.00000  Uiso   1.00
H1284  H     0.37418   0.34815   0.72548   0.00000  Uiso   1.00
H1285  H     0.37163   0.40732   0.72329   0.00000  Uiso   1.00
H1286  H     0.39641   0.38038   0.77188   0.00000  Uiso   1.00
N1287  N     0.57375   0.61998   0.77175   0.00000  Uiso   1.00
H1288  H     0.59706   0.62951   0.75064   0.00000  Uiso   1.00
C1289  C     0.58822   0.61332   0.81769   0.00000  Uiso   1.00
H1290  H     0.61905   0.63016   0.82378   0.00000  Uiso   1.00
H1291  H     0.59208   0.57694   0.82467   0.00000  Uiso   1.00
H1292  H     0.56572   0.62716   0.84093   0.00000  Uiso   1.00
N1293  N     0.49035   0.57946   0.60390   0.00000  Uiso   1.00
H1294  H     0.51219   0.59047   0.62766   0.00000  Uiso   1.00
C1295  C     0.47886   0.61511   0.57233   0.00000  Uiso   1.00
H1296  H     0.47382   0.64689   0.59002   0.00000  Uiso   1.00
H1297  H     0.44914   0.60656   0.55363   0.00000  Uiso   1.00
H1298  H     0.50464   0.62135   0.54907   0.00000  Uiso   1.00
N1299  N     0.46203   0.42575   0.88420   0.00000  Uiso   1.00
H1300  H     0.43930   0.43898   0.86243   0.00000  Uiso   1.00
C1301  C     0.44919   0.38493   0.90640   0.00000  Uiso   1.00
H1302  H     0.42646   0.39271   0.93245   0.00000  Uiso   1.00
H1303  H     0.47693   0.36723   0.92150   0.00000  Uiso   1.00
H1304  H     0.43371   0.36223   0.88154   0.00000  Uiso   1.00
N1305  N     0.51912   0.57912   0.89245   0.00000  Uiso   1.00
H1306  H     0.49168   0.58747   0.87496   0.00000  Uiso   1.00
C1307  C     0.53326   0.61567   0.92107   0.00000  Uiso   1.00
H1308  H     0.52982   0.64799   0.90271   0.00000  Uiso   1.00
H1309  H     0.56705   0.61160   0.93084   0.00000  Uiso   1.00
H1310  H     0.51389   0.61744   0.95110   0.00000  Uiso   1.00
N1311  N     0.54910   0.42710   0.62680   0.00000  Uiso   1.00
H1312  H     0.58099   0.42407   0.62276   0.00000  Uiso   1.00
C1313  C     0.52808   0.38405   0.62595   0.00000  Uiso   1.00
H1314  H     0.53223   0.36748   0.59333   0.00000  Uiso   1.00
H1315  H     0.49403   0.38812   0.63158   0.00000  Uiso   1.00
H1316  H     0.54181   0.36222   0.65296   0.00000  Uiso   1.00
C1317  C     0.75346   0.50003   0.75018   0.00000  Uiso   1.00
C1318  C     0.91320   0.50006   0.75061   0.00000  Uiso   1.00
C1319  C     0.83614   0.50013   0.66388   0.00000  Uiso   1.00
C1320  C     0.83213   0.49980   0.83638   0.00000  Uiso   1.00
C1321  C     0.86745   0.35734   0.76649   0.00000  Uiso   1.00
C1322  C     0.79904   0.64261   0.73383   0.00000  Uiso   1.00
C1323  C     0.79911   0.35744   0.73330   0.00000  Uiso   1.00
C1324  C     0.86839   0.64285   0.76403   0.00000  Uiso   1.00
C1325  C     0.68941   0.47321   0.78171   0.00000  Uiso   1.00
C1326  C     0.97731   0.52874   0.72139   0.00000  Uiso   1.00
C1327  C     0.97962   0.47271   0.78136   0.00000  Uiso   1.00
C1328  C     0.68701   0.52841   0.72104   0.00000  Uiso   1.00
C1329  C     0.83331   0.52836   0.54128   0.00000  Uiso   1.00
C1330  C     0.83080   0.45369   0.95347   0.00000  Uiso   1.00
C1331  C     0.86697   0.52511   0.95350   0.00000  Uiso   1.00
C1332  C     0.86726   0.45653   0.55223   0.00000  Uiso   1.00
C1333  C     0.83298   0.53571   0.58712   0.00000  Uiso   1.00
C1334  C     0.82074   0.45846   0.90770   0.00000  Uiso   1.00
C1335  C     0.85230   0.53411   0.90999   0.00000  Uiso   1.00
C1336  C     0.86356   0.46043   0.59823   0.00000  Uiso   1.00
C1337  C     0.84447   0.49930   0.61598   0.00000  Uiso   1.00
C1338  C     0.83345   0.49837   0.88541   0.00000  Uiso   1.00
C1339  C     0.85132   0.48999   0.52410   0.00000  Uiso   1.00
C1340  C     0.85340   0.48706   0.97594   0.00000  Uiso   1.00
C1341  C     0.95735   0.50040   0.75112   0.00000  Uiso   1.00
C1342  C     0.70932   0.50043   0.75094   0.00000  Uiso   1.00
H1343  H     0.82085   0.55321   0.51788   0.00000  Uiso   1.00
H1344  H     0.81898   0.42581   0.97266   0.00000  Uiso   1.00
H1345  H     0.88392   0.55031   0.97277   0.00000  Uiso   1.00
H1346  H     0.88247   0.42755   0.53848   0.00000  Uiso   1.00
H1347  H     0.70718   0.45238   0.80547   0.00000  Uiso   1.00
H1348  H     0.95960   0.55008   0.69801   0.00000  Uiso   1.00
H1349  H     0.96381   0.45147   0.80484   0.00000  Uiso   1.00
H1350  H     0.70276   0.54907   0.69706   0.00000  Uiso   1.00
N1351  N     0.83333   0.61907   0.75000   0.00000  Uiso   1.00
N1352  N     0.83333   0.38093   0.75000   0.00000  Uiso   1.00
O1353  O     0.77226   0.53821   0.75000   0.00000  Uiso   1.00
O1354  O     0.89441   0.46179   0.75001   0.00000  Uiso   1.00
O1355  O     0.89441   0.53821   0.75001   0.00000  Uiso   1.00
O1356  O     0.77226   0.46179   0.75000   0.00000  Uiso   1.00
O1357  O     0.83333   0.53822   0.68453   0.00000  Uiso   1.00
O1358  O     0.83334   0.46178   0.81547   0.00000  Uiso   1.00
O1359  O     0.83334   0.53822   0.81547   0.00000  Uiso   1.00
O1360  O     0.83333   0.46178   0.68453   0.00000  Uiso   1.00
Zn1361 Zn    0.83333   0.55104   0.75000   0.00000  Uiso   1.00
Zn1362 Zn    0.83333   0.44896   0.75000   0.00000  Uiso   1.00
N1363  N     0.90181   0.38091   0.78695   0.00000  Uiso   1.00
H1364  H     0.93129   0.37083   0.77820   0.00000  Uiso   1.00
C1365  C     0.89845   0.38974   0.83426   0.00000  Uiso   1.00
H1366  H     0.86695   0.38066   0.84642   0.00000  Uiso   1.00
H1367  H     0.90398   0.42586   0.84059   0.00000  Uiso   1.00
H1368  H     0.92266   0.37056   0.85401   0.00000  Uiso   1.00
N1369  N     0.76350   0.61830   0.71740   0.00000  Uiso   1.00
H1370  H     0.73863   0.61621   0.73833   0.00000  Uiso   1.00
C1371  C     0.75325   0.62038   0.66997   0.00000  Uiso   1.00
H1372  H     0.72093   0.63352   0.66385   0.00000  Uiso   1.00
H1373  H     0.75489   0.58622   0.65583   0.00000  Uiso   1.00
H1374  H     0.77539   0.64236   0.65261   0.00000  Uiso   1.00
N1375  N     0.76479   0.38167   0.71326   0.00000  Uiso   1.00
H1376  H     0.76226   0.38001   0.67891   0.00000  Uiso   1.00
C1377  C     0.72498   0.37890   0.73495   0.00000  Uiso   1.00
H1378  H     0.70752   0.34815   0.72548   0.00000  Uiso   1.00
H1379  H     0.70497   0.40732   0.72329   0.00000  Uiso   1.00
H1380  H     0.72974   0.38038   0.77188   0.00000  Uiso   1.00
N1381  N     0.90708   0.61998   0.77175   0.00000  Uiso   1.00
H1382  H     0.93040   0.62951   0.75064   0.00000  Uiso   1.00
C1383  C     0.92156   0.61332   0.81769   0.00000  Uiso   1.00
H1384  H     0.95239   0.63016   0.82378   0.00000  Uiso   1.00
H1385  H     0.92541   0.57694   0.82467   0.00000  Uiso   1.00
H1386  H     0.89905   0.62716   0.84093   0.00000  Uiso   1.00
N1387  N     0.82368   0.57946   0.60390   0.00000  Uiso   1.00
H1388  H     0.84552   0.59047   0.62766   0.00000  Uiso   1.00
C1389  C     0.81219   0.61511   0.57233   0.00000  Uiso   1.00
H1390  H     0.80715   0.64689   0.59002   0.00000  Uiso   1.00
H1391  H     0.78247   0.60656   0.55363   0.00000  Uiso   1.00
H1392  H     0.83797   0.62135   0.54907   0.00000  Uiso   1.00
N1393  N     0.79537   0.42575   0.88420   0.00000  Uiso   1.00
H1394  H     0.77263   0.43898   0.86243   0.00000  Uiso   1.00
C1395  C     0.78253   0.38493   0.90640   0.00000  Uiso   1.00
H1396  H     0.75979   0.39271   0.93245   0.00000  Uiso   1.00
H1397  H     0.81026   0.36723   0.92150   0.00000  Uiso   1.00
H1398  H     0.76704   0.36223   0.88154   0.00000  Uiso   1.00
N1399  N     0.85246   0.57912   0.89245   0.00000  Uiso   1.00
H1400  H     0.82501   0.58747   0.87496   0.00000  Uiso   1.00
C1401  C     0.86660   0.61567   0.92107   0.00000  Uiso   1.00
H1402  H     0.86316   0.64799   0.90271   0.00000  Uiso   1.00
H1403  H     0.90038   0.61160   0.93084   0.00000  Uiso   1.00
H1404  H     0.84722   0.61744   0.95110   0.00000  Uiso   1.00
N1405  N     0.88244   0.42710   0.62680   0.00000  Uiso   1.00
H1406  H     0.91432   0.42407   0.62276   0.00000  Uiso   1.00
C1407  C     0.86141   0.38405   0.62595   0.00000  Uiso   1.00
H1408  H     0.86556   0.36748   0.59333   0.00000  Uiso   1.00
H1409  H     0.82736   0.38812   0.63158   0.00000  Uiso   1.00
H1410  H     0.87515   0.36222   0.65296   0.00000  Uiso   1.00
C1411  C     0.08680   0.83337   0.75018   0.00000  Uiso   1.00
C1412  C     0.24654   0.83339   0.75061   0.00000  Uiso   1.00
C1413  C     0.16948   0.83346   0.66388   0.00000  Uiso   1.00
C1414  C     0.16546   0.83314   0.83638   0.00000  Uiso   1.00
C1415  C     0.20078   0.69068   0.76649   0.00000  Uiso   1.00
C1416  C     0.13237   0.97595   0.73383   0.00000  Uiso   1.00
C1417  C     0.13244   0.69077   0.73330   0.00000  Uiso   1.00
C1418  C     0.20173   0.97618   0.76403   0.00000  Uiso   1.00
C1419  C     0.02275   0.80654   0.78171   0.00000  Uiso   1.00
C1420  C     0.31064   0.86208   0.72139   0.00000  Uiso   1.00
C1421  C     0.31295   0.80604   0.78136   0.00000  Uiso   1.00
C1422  C     0.02035   0.86175   0.72104   0.00000  Uiso   1.00
C1423  C     0.16664   0.86169   0.54128   0.00000  Uiso   1.00
C1424  C     0.16413   0.78702   0.95347   0.00000  Uiso   1.00
C1425  C     0.20030   0.85844   0.95350   0.00000  Uiso   1.00
C1426  C     0.20060   0.78987   0.55223   0.00000  Uiso   1.00
C1427  C     0.16632   0.86905   0.58712   0.00000  Uiso   1.00
C1428  C     0.15408   0.79179   0.90770   0.00000  Uiso   1.00
C1429  C     0.18563   0.86745   0.90999   0.00000  Uiso   1.00
C1430  C     0.19690   0.79376   0.59823   0.00000  Uiso   1.00
C1431  C     0.17780   0.83264   0.61598   0.00000  Uiso   1.00
C1432  C     0.16679   0.83170   0.88541   0.00000  Uiso   1.00
C1433  C     0.18466   0.82333   0.52410   0.00000  Uiso   1.00
C1434  C     0.18674   0.82039   0.97594   0.00000  Uiso   1.00
C1435  C     0.29069   0.83373   0.75112   0.00000  Uiso   1.00
C1436  C     0.04265   0.83376   0.75094   0.00000  Uiso   1.00
H1437  H     0.15419   0.88654   0.51788   0.00000  Uiso   1.00
H1438  H     0.15231   0.75914   0.97266   0.00000  Uiso   1.00
H1439  H     0.21726   0.88364   0.97277   0.00000  Uiso   1.00
H1440  H     0.21581   0.76089   0.53848   0.00000  Uiso   1.00
H1441  H     0.04052   0.78571   0.80547   0.00000  Uiso   1.00
H1442  H     0.29293   0.88341   0.69801   0.00000  Uiso   1.00
H1443  H     0.29714   0.78480   0.80484   0.00000  Uiso   1.00
H1444  H     0.03609   0.88241   0.69706   0.00000  Uiso   1.00
N1445  N     0.16667   0.95240   0.75000   0.00000  Uiso   1.00
N1446  N     0.16667   0.71427   0.75000   0.00000  Uiso   1.00
O1447  O     0.10559   0.87154   0.75000   0.00000  Uiso   1.00
O1448  O     0.22774   0.79513   0.75001   0.00000  Uiso   1.00
O1449  O     0.22774   0.87154   0.75001   0.00000  Uiso   1.00
O1450  O     0.10559   0.79513   0.75000   0.00000  Uiso   1.00
O1451  O     0.16666   0.87155   0.68453   0.00000  Uiso   1.00
O1452  O     0.16667   0.79511   0.81547   0.00000  Uiso   1.00
O1453  O     0.16667   0.87155   0.81547   0.00000  Uiso   1.00
O1454  O     0.16666   0.79511   0.68453   0.00000  Uiso   1.00
Zn1455 Zn    0.16667   0.88437   0.75000   0.00000  Uiso   1.00
Zn1456 Zn    0.16667   0.78229   0.75000   0.00000  Uiso   1.00
N1457  N     0.23514   0.71424   0.78695   0.00000  Uiso   1.00
H1458  H     0.26462   0.70416   0.77820   0.00000  Uiso   1.00
C1459  C     0.23178   0.72308   0.83426   0.00000  Uiso   1.00
H1460  H     0.20028   0.71399   0.84642   0.00000  Uiso   1.00
H1461  H     0.23731   0.75920   0.84059   0.00000  Uiso   1.00
H1462  H     0.25599   0.70389   0.85401   0.00000  Uiso   1.00
N1463  N     0.09683   0.95164   0.71740   0.00000  Uiso   1.00
H1464  H     0.07196   0.94954   0.73833   0.00000  Uiso   1.00
C1465  C     0.08658   0.95371   0.66997   0.00000  Uiso   1.00
H1466  H     0.05426   0.96685   0.66385   0.00000  Uiso   1.00
H1467  H     0.08822   0.91955   0.65583   0.00000  Uiso   1.00
H1468  H     0.10872   0.97569   0.65261   0.00000  Uiso   1.00
N1469  N     0.09812   0.71501   0.71326   0.00000  Uiso   1.00
H1470  H     0.09559   0.71334   0.67891   0.00000  Uiso   1.00
C1471  C     0.05831   0.71224   0.73495   0.00000  Uiso   1.00
H1472  H     0.04085   0.68149   0.72548   0.00000  Uiso   1.00
H1473  H     0.03830   0.74066   0.72329   0.00000  Uiso   1.00
H1474  H     0.06308   0.71372   0.77188   0.00000  Uiso   1.00
N1475  N     0.24041   0.95332   0.77175   0.00000  Uiso   1.00
H1476  H     0.26373   0.96284   0.75064   0.00000  Uiso   1.00
C1477  C     0.25489   0.94665   0.81769   0.00000  Uiso   1.00
H1478  H     0.28572   0.96349   0.82378   0.00000  Uiso   1.00
H1479  H     0.25874   0.91027   0.82467   0.00000  Uiso   1.00
H1480  H     0.23238   0.96050   0.84093   0.00000  Uiso   1.00
N1481  N     0.15701   0.91280   0.60390   0.00000  Uiso   1.00
H1482  H     0.17886   0.92380   0.62766   0.00000  Uiso   1.00
C1483  C     0.14552   0.94844   0.57233   0.00000  Uiso   1.00
H1484  H     0.14049   0.98022   0.59002   0.00000  Uiso   1.00
H1485  H     0.11581   0.93989   0.55363   0.00000  Uiso   1.00
H1486  H     0.17131   0.95468   0.54907   0.00000  Uiso   1.00
N1487  N     0.12870   0.75908   0.88420   0.00000  Uiso   1.00
H1488  H     0.10596   0.77231   0.86243   0.00000  Uiso   1.00
C1489  C     0.11586   0.71826   0.90640   0.00000  Uiso   1.00
H1490  H     0.09313   0.72604   0.93245   0.00000  Uiso   1.00
H1491  H     0.14360   0.70056   0.92150   0.00000  Uiso   1.00
H1492  H     0.10037   0.69557   0.88154   0.00000  Uiso   1.00
N1493  N     0.18579   0.91245   0.89245   0.00000  Uiso   1.00
H1494  H     0.15835   0.92080   0.87496   0.00000  Uiso   1.00
C1495  C     0.19993   0.94900   0.92107   0.00000  Uiso   1.00
H1496  H     0.19649   0.98133   0.90271   0.00000  Uiso   1.00
H1497  H     0.23372   0.94493   0.93084   0.00000  Uiso   1.00
H1498  H     0.18055   0.95077   0.95110   0.00000  Uiso   1.00
N1499  N     0.21577   0.76043   0.62680   0.00000  Uiso   1.00
H1500  H     0.24765   0.75740   0.62276   0.00000  Uiso   1.00
C1501  C     0.19474   0.71738   0.62595   0.00000  Uiso   1.00
H1502  H     0.19890   0.70082   0.59333   0.00000  Uiso   1.00
H1503  H     0.16070   0.72146   0.63158   0.00000  Uiso   1.00
H1504  H     0.20848   0.69556   0.65296   0.00000  Uiso   1.00
C1505  C     0.42013   0.83337   0.75018   0.00000  Uiso   1.00
C1506  C     0.57987   0.83339   0.75061   0.00000  Uiso   1.00
C1507  C     0.50281   0.83346   0.66388   0.00000  Uiso   1.00
C1508  C     0.49880   0.83314   0.83638   0.00000  Uiso   1.00
C1509  C     0.53412   0.69068   0.76649   0.00000  Uiso   1.00
C1510  C     0.46570   0.97595   0.73383   0.00000  Uiso   1.00
C1511  C     0.46578   0.69077   0.73330   0.00000  Uiso   1.00
C1512  C     0.53506   0.97618   0.76403   0.00000  Uiso   1.00
C1513  C     0.35608   0.80654   0.78171   0.00000  Uiso   1.00
C1514  C     0.64397   0.86208   0.72139   0.00000  Uiso   1.00
C1515  C     0.64629   0.80604   0.78136   0.00000  Uiso   1.00
C1516  C     0.35368   0.86175   0.72104   0.00000  Uiso   1.00
C1517  C     0.49997   0.86169   0.54128   0.00000  Uiso   1.00
C1518  C     0.49747   0.78702   0.95347   0.00000  Uiso   1.00
C1519  C     0.53364   0.85844   0.95350   0.00000  Uiso   1.00
C1520  C     0.53393   0.78987   0.55223   0.00000  Uiso   1.00
C1521  C     0.49965   0.86905   0.58712   0.00000  Uiso   1.00
C1522  C     0.48741   0.79179   0.90770   0.00000  Uiso   1.00
C1523  C     0.51897   0.86745   0.90999   0.00000  Uiso   1.00
C1524  C     0.53023   0.79376   0.59823   0.00000  Uiso   1.00
C1525  C     0.51113   0.83264   0.61598   0.00000  Uiso   1.00
C1526  C     0.50012   0.83170   0.88541   0.00000  Uiso   1.00
C1527  C     0.51799   0.82333   0.52410   0.00000  Uiso   1.00
C1528  C     0.52007   0.82039   0.97594   0.00000  Uiso   1.00
C1529  C     0.62402   0.83373   0.75112   0.00000  Uiso   1.00
C1530  C     0.37599   0.83376   0.75094   0.00000  Uiso   1.00
H1531  H     0.48752   0.88654   0.51788   0.00000  Uiso   1.00
H1532  H     0.48564   0.75914   0.97266   0.00000  Uiso   1.00
H1533  H     0.55059   0.88364   0.97277   0.00000  Uiso   1.00
H1534  H     0.54914   0.76089   0.53848   0.00000  Uiso   1.00
H1535  H     0.37385   0.78571   0.80547   0.00000  Uiso   1.00
H1536  H     0.62626   0.88341   0.69801   0.00000  Uiso   1.00
H1537  H     0.63048   0.78480   0.80484   0.00000  Uiso   1.00
H1538  H     0.36942   0.88241   0.69706   0.00000  Uiso   1.00
N1539  N     0.50000   0.95240   0.75000   0.00000  Uiso   1.00
N1540  N     0.50000   0.71427   0.75000   0.00000  Uiso   1.00
O1541  O     0.43892   0.87154   0.75000   0.00000  Uiso   1.00
O1542  O     0.56108   0.79513   0.75001   0.00000  Uiso   1.00
O1543  O     0.56108   0.87154   0.75001   0.00000  Uiso   1.00
O1544  O     0.43892   0.79513   0.75000   0.00000  Uiso   1.00
O1545  O     0.50000   0.87155   0.68453   0.00000  Uiso   1.00
O1546  O     0.50000   0.79511   0.81547   0.00000  Uiso   1.00
O1547  O     0.50000   0.87155   0.81547   0.00000  Uiso   1.00
O1548  O     0.50000   0.79511   0.68453   0.00000  Uiso   1.00
Zn1549 Zn    0.50000   0.88437   0.75000   0.00000  Uiso   1.00
Zn1550 Zn    0.50000   0.78229   0.75000   0.00000  Uiso   1.00
N1551  N     0.56847   0.71424   0.78695   0.00000  Uiso   1.00
H1552  H     0.59795   0.70416   0.77820   0.00000  Uiso   1.00
C1553  C     0.56511   0.72308   0.83426   0.00000  Uiso   1.00
H1554  H     0.53362   0.71399   0.84642   0.00000  Uiso   1.00
H1555  H     0.57064   0.75920   0.84059   0.00000  Uiso   1.00
H1556  H     0.58933   0.70389   0.85401   0.00000  Uiso   1.00
N1557  N     0.43016   0.95164   0.71740   0.00000  Uiso   1.00
H1558  H     0.40530   0.94954   0.73833   0.00000  Uiso   1.00
C1559  C     0.41991   0.95371   0.66997   0.00000  Uiso   1.00
H1560  H     0.38760   0.96685   0.66385   0.00000  Uiso   1.00
H1561  H     0.42155   0.91955   0.65583   0.00000  Uiso   1.00
H1562  H     0.44206   0.97569   0.65261   0.00000  Uiso   1.00
N1563  N     0.43145   0.71501   0.71326   0.00000  Uiso   1.00
H1564  H     0.42893   0.71334   0.67891   0.00000  Uiso   1.00
C1565  C     0.39165   0.71224   0.73495   0.00000  Uiso   1.00
H1566  H     0.37418   0.68149   0.72548   0.00000  Uiso   1.00
H1567  H     0.37163   0.74066   0.72329   0.00000  Uiso   1.00
H1568  H     0.39641   0.71372   0.77188   0.00000  Uiso   1.00
N1569  N     0.57375   0.95332   0.77175   0.00000  Uiso   1.00
H1570  H     0.59706   0.96284   0.75064   0.00000  Uiso   1.00
C1571  C     0.58822   0.94665   0.81769   0.00000  Uiso   1.00
H1572  H     0.61905   0.96349   0.82378   0.00000  Uiso   1.00
H1573  H     0.59208   0.91027   0.82467   0.00000  Uiso   1.00
H1574  H     0.56572   0.96050   0.84093   0.00000  Uiso   1.00
N1575  N     0.49035   0.91280   0.60390   0.00000  Uiso   1.00
H1576  H     0.51219   0.92380   0.62766   0.00000  Uiso   1.00
C1577  C     0.47886   0.94844   0.57233   0.00000  Uiso   1.00
H1578  H     0.47382   0.98022   0.59002   0.00000  Uiso   1.00
H1579  H     0.44914   0.93989   0.55363   0.00000  Uiso   1.00
H1580  H     0.50464   0.95468   0.54907   0.00000  Uiso   1.00
N1581  N     0.46203   0.75908   0.88420   0.00000  Uiso   1.00
H1582  H     0.43930   0.77231   0.86243   0.00000  Uiso   1.00
C1583  C     0.44919   0.71826   0.90640   0.00000  Uiso   1.00
H1584  H     0.42646   0.72604   0.93245   0.00000  Uiso   1.00
H1585  H     0.47693   0.70056   0.92150   0.00000  Uiso   1.00
H1586  H     0.43371   0.69557   0.88154   0.00000  Uiso   1.00
N1587  N     0.51912   0.91245   0.89245   0.00000  Uiso   1.00
H1588  H     0.49168   0.92080   0.87496   0.00000  Uiso   1.00
C1589  C     0.53326   0.94900   0.92107   0.00000  Uiso   1.00
H1590  H     0.52982   0.98133   0.90271   0.00000  Uiso   1.00
H1591  H     0.56705   0.94493   0.93084   0.00000  Uiso   1.00
H1592  H     0.51389   0.95077   0.95110   0.00000  Uiso   1.00
N1593  N     0.54910   0.76043   0.62680   0.00000  Uiso   1.00
H1594  H     0.58099   0.75740   0.62276   0.00000  Uiso   1.00
C1595  C     0.52808   0.71738   0.62595   0.00000  Uiso   1.00
H1596  H     0.53223   0.70082   0.59333   0.00000  Uiso   1.00
H1597  H     0.49403   0.72146   0.63158   0.00000  Uiso   1.00
H1598  H     0.54181   0.69556   0.65296   0.00000  Uiso   1.00
C1599  C     0.75346   0.83337   0.75018   0.00000  Uiso   1.00
C1600  C     0.91320   0.83339   0.75061   0.00000  Uiso   1.00
C1601  C     0.83614   0.83346   0.66388   0.00000  Uiso   1.00
C1602  C     0.83213   0.83314   0.83638   0.00000  Uiso   1.00
C1603  C     0.86745   0.69068   0.76649   0.00000  Uiso   1.00
C1604  C     0.79904   0.97595   0.73383   0.00000  Uiso   1.00
C1605  C     0.79911   0.69077   0.73330   0.00000  Uiso   1.00
C1606  C     0.86839   0.97618   0.76403   0.00000  Uiso   1.00
C1607  C     0.68941   0.80654   0.78171   0.00000  Uiso   1.00
C1608  C     0.97731   0.86208   0.72139   0.00000  Uiso   1.00
C1609  C     0.97962   0.80604   0.78136   0.00000  Uiso   1.00
C1610  C     0.68701   0.86175   0.72104   0.00000  Uiso   1.00
C1611  C     0.83331   0.86169   0.54128   0.00000  Uiso   1.00
C1612  C     0.83080   0.78702   0.95347   0.00000  Uiso   1.00
C1613  C     0.86697   0.85844   0.95350   0.00000  Uiso   1.00
C1614  C     0.86726   0.78987   0.55223   0.00000  Uiso   1.00
C1615  C     0.83298   0.86905   0.58712   0.00000  Uiso   1.00
C1616  C     0.82074   0.79179   0.90770   0.00000  Uiso   1.00
C1617  C     0.85230   0.86745   0.90999   0.00000  Uiso   1.00
C1618  C     0.86356   0.79376   0.59823   0.00000  Uiso   1.00
C1619  C     0.84447   0.83264   0.61598   0.00000  Uiso   1.00
C1620  C     0.83345   0.83170   0.88541   0.00000  Uiso   1.00
C1621  C     0.85132   0.82333   0.52410   0.00000  Uiso   1.00
C1622  C     0.85340   0.82039   0.97594   0.00000  Uiso   1.00
C1623  C     0.95735   0.83373   0.75112   0.00000  Uiso   1.00
C1624  C     0.70932   0.83376   0.75094   0.00000  Uiso   1.00
H1625  H     0.82085   0.88654   0.51788   0.00000  Uiso   1.00
H1626  H     0.81898   0.75914   0.97266   0.00000  Uiso   1.00
H1627  H     0.88392   0.88364   0.97277   0.00000  Uiso   1.00
H1628  H     0.88247   0.76089   0.53848   0.00000  Uiso   1.00
H1629  H     0.70718   0.78571   0.80547   0.00000  Uiso   1.00
H1630  H     0.95960   0.88341   0.69801   0.00000  Uiso   1.00
H1631  H     0.96381   0.78480   0.80484   0.00000  Uiso   1.00
H1632  H     0.70276   0.88241   0.69706   0.00000  Uiso   1.00
N1633  N     0.83333   0.95240   0.75000   0.00000  Uiso   1.00
N1634  N     0.83333   0.71427   0.75000   0.00000  Uiso   1.00
O1635  O     0.77226   0.87154   0.75000   0.00000  Uiso   1.00
O1636  O     0.89441   0.79513   0.75001   0.00000  Uiso   1.00
O1637  O     0.89441   0.87154   0.75001   0.00000  Uiso   1.00
O1638  O     0.77226   0.79513   0.75000   0.00000  Uiso   1.00
O1639  O     0.83333   0.87155   0.68453   0.00000  Uiso   1.00
O1640  O     0.83334   0.79511   0.81547   0.00000  Uiso   1.00
O1641  O     0.83334   0.87155   0.81547   0.00000  Uiso   1.00
O1642  O     0.83333   0.79511   0.68453   0.00000  Uiso   1.00
Zn1643 Zn    0.83333   0.88437   0.75000   0.00000  Uiso   1.00
Zn1644 Zn    0.83333   0.78229   0.75000   0.00000  Uiso   1.00
N1645  N     0.90181   0.71424   0.78695   0.00000  Uiso   1.00
H1646  H     0.93129   0.70416   0.77820   0.00000  Uiso   1.00
C1647  C     0.89845   0.72308   0.83426   0.00000  Uiso   1.00
H1648  H     0.86695   0.71399   0.84642   0.00000  Uiso   1.00
H1649  H     0.90398   0.75920   0.84059   0.00000  Uiso   1.00
H1650  H     0.92266   0.70389   0.85401   0.00000  Uiso   1.00
N1651  N     0.76350   0.95164   0.71740   0.00000  Uiso   1.00
H1652  H     0.73863   0.94954   0.73833   0.00000  Uiso   1.00
C1653  C     0.75325   0.95371   0.66997   0.00000  Uiso   1.00
H1654  H     0.72093   0.96685   0.66385   0.00000  Uiso   1.00
H1655  H     0.75489   0.91955   0.65583   0.00000  Uiso   1.00
H1656  H     0.77539   0.97569   0.65261   0.00000  Uiso   1.00
N1657  N     0.76479   0.71501   0.71326   0.00000  Uiso   1.00
H1658  H     0.76226   0.71334   0.67891   0.00000  Uiso   1.00
C1659  C     0.72498   0.71224   0.73495   0.00000  Uiso   1.00
H1660  H     0.70752   0.68149   0.72548   0.00000  Uiso   1.00
H1661  H     0.70497   0.74066   0.72329   0.00000  Uiso   1.00
H1662  H     0.72974   0.71372   0.77188   0.00000  Uiso   1.00
N1663  N     0.90708   0.95332   0.77175   0.00000  Uiso   1.00
H1664  H     0.93040   0.96284   0.75064   0.00000  Uiso   1.00
C1665  C     0.92156   0.94665   0.81769   0.00000  Uiso   1.00
H1666  H     0.95239   0.96349   0.82378   0.00000  Uiso   1.00
H1667  H     0.92541   0.91027   0.82467   0.00000  Uiso   1.00
H1668  H     0.89905   0.96050   0.84093   0.00000  Uiso   1.00
N1669  N     0.82368   0.91280   0.60390   0.00000  Uiso   1.00
H1670  H     0.84552   0.92380   0.62766   0.00000  Uiso   1.00
C1671  C     0.81219   0.94844   0.57233   0.00000  Uiso   1.00
H1672  H     0.80715   0.98022   0.59002   0.00000  Uiso   1.00
H1673  H     0.78247   0.93989   0.55363   0.00000  Uiso   1.00
H1674  H     0.83797   0.95468   0.54907   0.00000  Uiso   1.00
N1675  N     0.79537   0.75908   0.88420   0.00000  Uiso   1.00
H1676  H     0.77263   0.77231   0.86243   0.00000  Uiso   1.00
C1677  C     0.78253   0.71826   0.90640   0.00000  Uiso   1.00
H1678  H     0.75979   0.72604   0.93245   0.00000  Uiso   1.00
H1679  H     0.81026   0.70056   0.92150   0.00000  Uiso   1.00
H1680  H     0.76704   0.69557   0.88154   0.00000  Uiso   1.00
N1681  N     0.85246   0.91245   0.89245   0.00000  Uiso   1.00
H1682  H     0.82501   0.92080   0.87496   0.00000  Uiso   1.00
C1683  C     0.86660   0.94900   0.92107   0.00000  Uiso   1.00
H1684  H     0.86316   0.98133   0.90271   0.00000  Uiso   1.00
H1685  H     0.90038   0.94493   0.93084   0.00000  Uiso   1.00
H1686  H     0.84722   0.95077   0.95110   0.00000  Uiso   1.00
N1687  N     0.88244   0.76043   0.62680   0.00000  Uiso   1.00
H1688  H     0.91432   0.75740   0.62276   0.00000  Uiso   1.00
C1689  C     0.86141   0.71738   0.62595   0.00000  Uiso   1.00
H1690  H     0.86556   0.70082   0.59333   0.00000  Uiso   1.00
H1691  H     0.82736   0.72146   0.63158   0.00000  Uiso   1.00
H1692  H     0.87515   0.69556   0.65296   0.00000  Uiso   1.00
loop_
_geom_bond_atom_site_label_1
_geom_bond_atom_site_label_2
_geom_bond_distance
_geom_bond_site_symmetry_2
_ccdc_geom_bond_type
C1     O40     1.289   .     A
C1     O37     1.285   .     A
C1     C26     1.407   .     S
C2     O39     1.286   .     A
C2     O38     1.287   .     A
C2     C25     1.405   .     S
C3     O44     1.300   .     A
C3     C21     1.469   .     S
C3     O41     1.303   .     A
C4     C22     1.467   .     S
C4     O43     1.302   .     A
C4     O42     1.301   .     A
C5     N47     1.420   .     S
C5     N36     1.369   .     A
C5     C572    1.429   1_545 S
C6     N35     1.370   .     A
C6     N53     1.417   .     S
C6     C289    1.436   .     S
C7     N36     1.374   .     A
C7     N59     1.422   .     S
C7     C570    1.436   1_545 S
C8     N65     1.420   .     S
C8     N35     1.375   .     A
C8     C287    1.429   .     S
C9     C26     1.393   .     A
C9     H31     1.084   .     S
C9     C199    1.373   1_455 S
C10    C25     1.392   .     A
C10    H32     1.084   .     S
C10    C106    1.371   .     S
C11    C25     1.394   .     A
C11    H33     1.080   .     S
C11    C103    1.373   .     S
C12    C26     1.394   .     A
C12    H34     1.079   .     S
C12    C198    1.371   1_455 S
C13    C23     1.393   .     A
C13    C17     1.392   .     A
C13    H27     1.081   .     S
C14    C18     1.401   .     A
C14    C24     1.390   .     A
C14    H28     1.082   .     S
C15    C19     1.390   .     A
C15    H29     1.082   .     S
C15    C24     1.390   .     A
C16    H30     1.084   .     S
C16    C20     1.392   .     A
C16    C23     1.384   .     A
C17    C21     1.421   .     A
C17    N71     1.438   .     S
C18    C22     1.425   .     A
C18    N77     1.436   .     S
C19    N83     1.437   .     S
C19    C22     1.419   .     A
C20    N89     1.424   .     S
C20    C21     1.427   .     A
C23    C870    1.449   1_554 S
C24    C869    1.449   .     S
N35    Zn45    2.029   .     S
N36    Zn46    2.029   .     S
O37    Zn45    1.981   .     S
O38    Zn46    1.981   .     S
O39    Zn45    1.983   .     S
O40    Zn46    1.983   .     S
O41    Zn45    2.000   .     S
O42    Zn46    2.000   .     S
O43    Zn45    1.993   .     S
O44    Zn46    1.993   .     S
N47    C49     1.451   .     S
N47    H48     1.031   .     S
C49    H50     1.112   .     S
C49    H51     1.108   .     S
C49    H52     1.110   .     S
N53    C55     1.445   .     S
N53    H54     1.030   .     S
C55    H56     1.110   .     S
C55    H57     1.109   .     S
C55    H58     1.103   .     S
N59    C61     1.449   .     S
N59    H60     1.030   .     S
C61    H63     1.107   .     S
C61    H64     1.111   .     S
C61    H62     1.105   .     S
N65    C67     1.445   .     S
N65    H66     1.032   .     S
C67    H68     1.111   .     S
C67    H69     1.109   .     S
C67    H70     1.102   .     S
N71    C73     1.454   .     S
N71    H72     1.030   .     S
C73    H75     1.111   .     S
C73    H74     1.105   .     S
C73    H76     1.112   .     S
N77    H78     1.032   .     S
N77    C79     1.448   .     S
C79    H81     1.109   .     S
C79    H82     1.111   .     S
C79    H80     1.111   .     S
N83    H84     1.031   .     S
N83    C85     1.452   .     S
C85    H87     1.111   .     S
C85    H86     1.109   .     S
C85    H88     1.112   .     S
N89    C91     1.447   .     S
N89    H90     1.032   .     S
C91    H92     1.111   .     S
C91    H93     1.111   .     S
C91    H94     1.110   .     S
C95    O134    1.289   .     A
C95    O131    1.285   .     A
C95    C120    1.407   .     S
C96    O133    1.286   .     A
C96    O132    1.287   .     A
C96    C119    1.405   .     S
C97    O138    1.300   .     A
C97    C115    1.469   .     S
C97    O135    1.303   .     A
C98    C116    1.467   .     S
C98    O137    1.302   .     A
C98    O136    1.301   .     A
C99    N141    1.420   .     S
C99    N130    1.369   .     A
C99    C666    1.429   1_545 S
C100   N129    1.370   .     A
C100   N147    1.417   .     S
C100   C383    1.436   .     S
C101   N130    1.374   .     A
C101   N153    1.422   .     S
C101   C664    1.436   1_545 S
C102   N159    1.420   .     S
C102   N129    1.375   .     A
C102   C381    1.429   .     S
C103   C120    1.393   .     A
C103   H125    1.084   .     S
C104   C119    1.392   .     A
C104   H126    1.084   .     S
C104   C200    1.371   .     S
C105   C119    1.394   .     A
C105   H127    1.080   .     S
C105   C197    1.373   .     S
C106   C120    1.394   .     A
C106   H128    1.079   .     S
C107   C117    1.393   .     A
C107   C111    1.392   .     A
C107   H121    1.081   .     S
C108   C112    1.401   .     A
C108   C118    1.390   .     A
C108   H122    1.082   .     S
C109   C113    1.390   .     A
C109   H123    1.082   .     S
C109   C118    1.390   .     A
C110   H124    1.084   .     S
C110   C114    1.392   .     A
C110   C117    1.384   .     A
C111   C115    1.421   .     A
C111   N165    1.438   .     S
C112   C116    1.425   .     A
C112   N171    1.436   .     S
C113   N177    1.437   .     S
C113   C116    1.419   .     A
C114   N183    1.424   .     S
C114   C115    1.427   .     A
C117   C964    1.449   1_554 S
C118   C963    1.449   .     S
N129   Zn139   2.029   .     S
N130   Zn140   2.029   .     S
O131   Zn139   1.981   .     S
O132   Zn140   1.981   .     S
O133   Zn139   1.983   .     S
O134   Zn140   1.983   .     S
O135   Zn139   2.000   .     S
O136   Zn140   2.000   .     S
O137   Zn139   1.993   .     S
O138   Zn140   1.993   .     S
N141   C143    1.451   .     S
N141   H142    1.031   .     S
C143   H144    1.112   .     S
C143   H145    1.108   .     S
C143   H146    1.110   .     S
N147   C149    1.445   .     S
N147   H148    1.030   .     S
C149   H150    1.110   .     S
C149   H151    1.109   .     S
C149   H152    1.103   .     S
N153   C155    1.449   .     S
N153   H154    1.030   .     S
C155   H157    1.107   .     S
C155   H158    1.111   .     S
C155   H156    1.105   .     S
N159   C161    1.445   .     S
N159   H160    1.032   .     S
C161   H162    1.111   .     S
C161   H163    1.109   .     S
C161   H164    1.102   .     S
N165   C167    1.454   .     S
N165   H166    1.030   .     S
C167   H169    1.111   .     S
C167   H168    1.105   .     S
C167   H170    1.112   .     S
N171   H172    1.032   .     S
N171   C173    1.448   .     S
C173   H175    1.109   .     S
C173   H176    1.111   .     S
C173   H174    1.111   .     S
N177   H178    1.031   .     S
N177   C179    1.452   .     S
C179   H181    1.111   .     S
C179   H180    1.109   .     S
C179   H182    1.112   .     S
N183   C185    1.447   .     S
N183   H184    1.032   .     S
C185   H186    1.111   .     S
C185   H187    1.111   .     S
C185   H188    1.110   .     S
C189   O228    1.289   .     A
C189   O225    1.285   .     A
C189   C214    1.407   .     S
C190   O227    1.286   .     A
C190   O226    1.287   .     A
C190   C213    1.405   .     S
C191   O232    1.300   .     A
C191   C209    1.469   .     S
C191   O229    1.303   .     A
C192   C210    1.467   .     S
C192   O231    1.302   .     A
C192   O230    1.301   .     A
C193   N235    1.420   .     S
C193   N224    1.369   .     A
C193   C760    1.429   1_545 S
C194   N223    1.370   .     A
C194   N241    1.417   .     S
C194   C477    1.436   .     S
C195   N224    1.374   .     A
C195   N247    1.422   .     S
C195   C758    1.436   1_545 S
C196   N253    1.420   .     S
C196   N223    1.375   .     A
C196   C475    1.429   .     S
C197   C214    1.393   .     A
C197   H219    1.084   .     S
C198   C213    1.392   .     A
C198   H220    1.084   .     S
C198   C12     1.371   1_655 S
C199   C213    1.394   .     A
C199   H221    1.080   .     S
C199   C9      1.373   1_655 S
C200   C214    1.394   .     A
C200   H222    1.079   .     S
C201   C211    1.393   .     A
C201   C205    1.392   .     A
C201   H215    1.081   .     S
C202   C206    1.401   .     A
C202   C212    1.390   .     A
C202   H216    1.082   .     S
C203   C207    1.390   .     A
C203   H217    1.082   .     S
C203   C212    1.390   .     A
C204   H218    1.084   .     S
C204   C208    1.392   .     A
C204   C211    1.384   .     A
C205   C209    1.421   .     A
C205   N259    1.438   .     S
C206   C210    1.425   .     A
C206   N265    1.436   .     S
C207   N271    1.437   .     S
C207   C210    1.419   .     A
C208   N277    1.424   .     S
C208   C209    1.427   .     A
C211   C1058   1.449   1_554 S
C212   C1057   1.449   .     S
N223   Zn233   2.029   .     S
N224   Zn234   2.029   .     S
O225   Zn233   1.981   .     S
O226   Zn234   1.981   .     S
O227   Zn233   1.983   .     S
O228   Zn234   1.983   .     S
O229   Zn233   2.000   .     S
O230   Zn234   2.000   .     S
O231   Zn233   1.993   .     S
O232   Zn234   1.993   .     S
N235   C237    1.451   .     S
N235   H236    1.031   .     S
C237   H238    1.112   .     S
C237   H239    1.108   .     S
C237   H240    1.110   .     S
N241   C243    1.445   .     S
N241   H242    1.030   .     S
C243   H244    1.110   .     S
C243   H245    1.109   .     S
C243   H246    1.103   .     S
N247   C249    1.449   .     S
N247   H248    1.030   .     S
C249   H251    1.107   .     S
C249   H252    1.111   .     S
C249   H250    1.105   .     S
N253   C255    1.445   .     S
N253   H254    1.032   .     S
C255   H256    1.111   .     S
C255   H257    1.109   .     S
C255   H258    1.102   .     S
N259   C261    1.454   .     S
N259   H260    1.030   .     S
C261   H263    1.111   .     S
C261   H262    1.105   .     S
C261   H264    1.112   .     S
N265   H266    1.032   .     S
N265   C267    1.448   .     S
C267   H269    1.109   .     S
C267   H270    1.111   .     S
C267   H268    1.111   .     S
N271   H272    1.031   .     S
N271   C273    1.452   .     S
C273   H275    1.111   .     S
C273   H274    1.109   .     S
C273   H276    1.112   .     S
N277   C279    1.447   .     S
N277   H278    1.032   .     S
C279   H280    1.111   .     S
C279   H281    1.111   .     S
C279   H282    1.110   .     S
C283   O322    1.289   .     A
C283   O319    1.285   .     A
C283   C308    1.407   .     S
C284   O321    1.286   .     A
C284   O320    1.287   .     A
C284   C307    1.405   .     S
C285   O326    1.300   .     A
C285   C303    1.469   .     S
C285   O323    1.303   .     A
C286   C304    1.467   .     S
C286   O325    1.302   .     A
C286   O324    1.301   .     A
C287   N329    1.420   .     S
C287   N318    1.369   .     A
C288   N317    1.370   .     A
C288   N335    1.417   .     S
C288   C571    1.436   .     S
C289   N318    1.374   .     A
C289   N341    1.422   .     S
C290   N347    1.420   .     S
C290   N317    1.375   .     A
C290   C569    1.429   .     S
C291   C308    1.393   .     A
C291   H313    1.084   .     S
C291   C481    1.373   1_455 S
C292   C307    1.392   .     A
C292   H314    1.084   .     S
C292   C388    1.371   .     S
C293   C307    1.394   .     A
C293   H315    1.080   .     S
C293   C385    1.373   .     S
C294   C308    1.394   .     A
C294   H316    1.079   .     S
C294   C480    1.371   1_455 S
C295   C305    1.393   .     A
C295   C299    1.392   .     A
C295   H309    1.081   .     S
C296   C300    1.401   .     A
C296   C306    1.390   .     A
C296   H310    1.082   .     S
C297   C301    1.390   .     A
C297   H311    1.082   .     S
C297   C306    1.390   .     A
C298   H312    1.084   .     S
C298   C302    1.392   .     A
C298   C305    1.384   .     A
C299   C303    1.421   .     A
C299   N353    1.438   .     S
C300   C304    1.425   .     A
C300   N359    1.436   .     S
C301   N365    1.437   .     S
C301   C304    1.419   .     A
C302   N371    1.424   .     S
C302   C303    1.427   .     A
C305   C1152   1.449   1_554 S
C306   C1151   1.449   .     S
N317   Zn327   2.029   .     S
N318   Zn328   2.029   .     S
O319   Zn327   1.981   .     S
O320   Zn328   1.981   .     S
O321   Zn327   1.983   .     S
O322   Zn328   1.983   .     S
O323   Zn327   2.000   .     S
O324   Zn328   2.000   .     S
O325   Zn327   1.993   .     S
O326   Zn328   1.993   .     S
N329   C331    1.451   .     S
N329   H330    1.031   .     S
C331   H332    1.112   .     S
C331   H333    1.108   .     S
C331   H334    1.110   .     S
N335   C337    1.445   .     S
N335   H336    1.030   .     S
C337   H338    1.110   .     S
C337   H339    1.109   .     S
C337   H340    1.103   .     S
N341   C343    1.449   .     S
N341   H342    1.030   .     S
C343   H345    1.107   .     S
C343   H346    1.111   .     S
C343   H344    1.105   .     S
N347   C349    1.445   .     S
N347   H348    1.032   .     S
C349   H350    1.111   .     S
C349   H351    1.109   .     S
C349   H352    1.102   .     S
N353   C355    1.454   .     S
N353   H354    1.030   .     S
C355   H357    1.111   .     S
C355   H356    1.105   .     S
C355   H358    1.112   .     S
N359   H360    1.032   .     S
N359   C361    1.448   .     S
C361   H363    1.109   .     S
C361   H364    1.111   .     S
C361   H362    1.111   .     S
N365   H366    1.031   .     S
N365   C367    1.452   .     S
C367   H369    1.111   .     S
C367   H368    1.109   .     S
C367   H370    1.112   .     S
N371   C373    1.447   .     S
N371   H372    1.032   .     S
C373   H374    1.111   .     S
C373   H375    1.111   .     S
C373   H376    1.110   .     S
C377   O416    1.289   .     A
C377   O413    1.285   .     A
C377   C402    1.407   .     S
C378   O415    1.286   .     A
C378   O414    1.287   .     A
C378   C401    1.405   .     S
C379   O420    1.300   .     A
C379   C397    1.469   .     S
C379   O417    1.303   .     A
C380   C398    1.467   .     S
C380   O419    1.302   .     A
C380   O418    1.301   .     A
C381   N423    1.420   .     S
C381   N412    1.369   .     A
C382   N411    1.370   .     A
C382   N429    1.417   .     S
C382   C665    1.436   .     S
C383   N412    1.374   .     A
C383   N435    1.422   .     S
C384   N441    1.420   .     S
C384   N411    1.375   .     A
C384   C663    1.429   .     S
C385   C402    1.393   .     A
C385   H407    1.084   .     S
C386   C401    1.392   .     A
C386   H408    1.084   .     S
C386   C482    1.371   .     S
C387   C401    1.394   .     A
C387   H409    1.080   .     S
C387   C479    1.373   .     S
C388   C402    1.394   .     A
C388   H410    1.079   .     S
C389   C399    1.393   .     A
C389   C393    1.392   .     A
C389   H403    1.081   .     S
C390   C394    1.401   .     A
C390   C400    1.390   .     A
C390   H404    1.082   .     S
C391   C395    1.390   .     A
C391   H405    1.082   .     S
C391   C400    1.390   .     A
C392   H406    1.084   .     S
C392   C396    1.392   .     A
C392   C399    1.384   .     A
C393   C397    1.421   .     A
C393   N447    1.438   .     S
C394   C398    1.425   .     A
C394   N453    1.436   .     S
C395   N459    1.437   .     S
C395   C398    1.419   .     A
C396   N465    1.424   .     S
C396   C397    1.427   .     A
C399   C1246   1.449   1_554 S
C400   C1245   1.449   .     S
N411   Zn421   2.029   .     S
N412   Zn422   2.029   .     S
O413   Zn421   1.981   .     S
O414   Zn422   1.981   .     S
O415   Zn421   1.983   .     S
O416   Zn422   1.983   .     S
O417   Zn421   2.000   .     S
O418   Zn422   2.000   .     S
O419   Zn421   1.993   .     S
O420   Zn422   1.993   .     S
N423   C425    1.451   .     S
N423   H424    1.031   .     S
C425   H426    1.112   .     S
C425   H427    1.108   .     S
C425   H428    1.110   .     S
N429   C431    1.445   .     S
N429   H430    1.030   .     S
C431   H432    1.110   .     S
C431   H433    1.109   .     S
C431   H434    1.103   .     S
N435   C437    1.449   .     S
N435   H436    1.030   .     S
C437   H439    1.107   .     S
C437   H440    1.111   .     S
C437   H438    1.105   .     S
N441   C443    1.445   .     S
N441   H442    1.032   .     S
C443   H444    1.111   .     S
C443   H445    1.109   .     S
C443   H446    1.102   .     S
N447   C449    1.454   .     S
N447   H448    1.030   .     S
C449   H451    1.111   .     S
C449   H450    1.105   .     S
C449   H452    1.112   .     S
N453   H454    1.032   .     S
N453   C455    1.448   .     S
C455   H457    1.109   .     S
C455   H458    1.111   .     S
C455   H456    1.111   .     S
N459   H460    1.031   .     S
N459   C461    1.452   .     S
C461   H463    1.111   .     S
C461   H462    1.109   .     S
C461   H464    1.112   .     S
N465   C467    1.447   .     S
N465   H466    1.032   .     S
C467   H468    1.111   .     S
C467   H469    1.111   .     S
C467   H470    1.110   .     S
C471   O510    1.289   .     A
C471   O507    1.285   .     A
C471   C496    1.407   .     S
C472   O509    1.286   .     A
C472   O508    1.287   .     A
C472   C495    1.405   .     S
C473   O514    1.300   .     A
C473   C491    1.469   .     S
C473   O511    1.303   .     A
C474   C492    1.467   .     S
C474   O513    1.302   .     A
C474   O512    1.301   .     A
C475   N517    1.420   .     S
C475   N506    1.369   .     A
C476   N505    1.370   .     A
C476   N523    1.417   .     S
C476   C759    1.436   .     S
C477   N506    1.374   .     A
C477   N529    1.422   .     S
C478   N535    1.420   .     S
C478   N505    1.375   .     A
C478   C757    1.429   .     S
C479   C496    1.393   .     A
C479   H501    1.084   .     S
C480   C495    1.392   .     A
C480   H502    1.084   .     S
C480   C294    1.371   1_655 S
C481   C495    1.394   .     A
C481   H503    1.080   .     S
C481   C291    1.373   1_655 S
C482   C496    1.394   .     A
C482   H504    1.079   .     S
C483   C493    1.393   .     A
C483   C487    1.392   .     A
C483   H497    1.081   .     S
C484   C488    1.401   .     A
C484   C494    1.390   .     A
C484   H498    1.082   .     S
C485   C489    1.390   .     A
C485   H499    1.082   .     S
C485   C494    1.390   .     A
C486   H500    1.084   .     S
C486   C490    1.392   .     A
C486   C493    1.384   .     A
C487   C491    1.421   .     A
C487   N541    1.438   .     S
C488   C492    1.425   .     A
C488   N547    1.436   .     S
C489   N553    1.437   .     S
C489   C492    1.419   .     A
C490   N559    1.424   .     S
C490   C491    1.427   .     A
C493   C1340   1.449   1_554 S
C494   C1339   1.449   .     S
N505   Zn515   2.029   .     S
N506   Zn516   2.029   .     S
O507   Zn515   1.981   .     S
O508   Zn516   1.981   .     S
O509   Zn515   1.983   .     S
O510   Zn516   1.983   .     S
O511   Zn515   2.000   .     S
O512   Zn516   2.000   .     S
O513   Zn515   1.993   .     S
O514   Zn516   1.993   .     S
N517   C519    1.451   .     S
N517   H518    1.031   .     S
C519   H520    1.112   .     S
C519   H521    1.108   .     S
C519   H522    1.110   .     S
N523   C525    1.445   .     S
N523   H524    1.030   .     S
C525   H526    1.110   .     S
C525   H527    1.109   .     S
C525   H528    1.103   .     S
N529   C531    1.449   .     S
N529   H530    1.030   .     S
C531   H533    1.107   .     S
C531   H534    1.111   .     S
C531   H532    1.105   .     S
N535   C537    1.445   .     S
N535   H536    1.032   .     S
C537   H538    1.111   .     S
C537   H539    1.109   .     S
C537   H540    1.102   .     S
N541   C543    1.454   .     S
N541   H542    1.030   .     S
C543   H545    1.111   .     S
C543   H544    1.105   .     S
C543   H546    1.112   .     S
N547   H548    1.032   .     S
N547   C549    1.448   .     S
C549   H551    1.109   .     S
C549   H552    1.111   .     S
C549   H550    1.111   .     S
N553   H554    1.031   .     S
N553   C555    1.452   .     S
C555   H557    1.111   .     S
C555   H556    1.109   .     S
C555   H558    1.112   .     S
N559   C561    1.447   .     S
N559   H560    1.032   .     S
C561   H562    1.111   .     S
C561   H563    1.111   .     S
C561   H564    1.110   .     S
C565   O604    1.289   .     A
C565   O601    1.285   .     A
C565   C590    1.407   .     S
C566   O603    1.286   .     A
C566   O602    1.287   .     A
C566   C589    1.405   .     S
C567   O608    1.300   .     A
C567   C585    1.469   .     S
C567   O605    1.303   .     A
C568   C586    1.467   .     S
C568   O607    1.302   .     A
C568   O606    1.301   .     A
C569   N611    1.420   .     S
C569   N600    1.369   .     A
C570   N599    1.370   .     A
C570   N617    1.417   .     S
C570   C7      1.436   1_565 S
C571   N600    1.374   .     A
C571   N623    1.422   .     S
C572   N629    1.420   .     S
C572   N599    1.375   .     A
C572   C5      1.429   1_565 S
C573   C590    1.393   .     A
C573   H595    1.084   .     S
C573   C763    1.373   1_455 S
C574   C589    1.392   .     A
C574   H596    1.084   .     S
C574   C670    1.371   .     S
C575   C589    1.394   .     A
C575   H597    1.080   .     S
C575   C667    1.373   .     S
C576   C590    1.394   .     A
C576   H598    1.079   .     S
C576   C762    1.371   1_455 S
C577   C587    1.393   .     A
C577   C581    1.392   .     A
C577   H591    1.081   .     S
C578   C582    1.401   .     A
C578   C588    1.390   .     A
C578   H592    1.082   .     S
C579   C583    1.390   .     A
C579   H593    1.082   .     S
C579   C588    1.390   .     A
C580   H594    1.084   .     S
C580   C584    1.392   .     A
C580   C587    1.384   .     A
C581   C585    1.421   .     A
C581   N635    1.438   .     S
C582   C586    1.425   .     A
C582   N641    1.436   .     S
C583   N647    1.437   .     S
C583   C586    1.419   .     A
C584   N653    1.424   .     S
C584   C585    1.427   .     A
C587   C1434   1.449   1_554 S
C588   C1433   1.449   .     S
N599   Zn609   2.029   .     S
N600   Zn610   2.029   .     S
O601   Zn609   1.981   .     S
O602   Zn610   1.981   .     S
O603   Zn609   1.983   .     S
O604   Zn610   1.983   .     S
O605   Zn609   2.000   .     S
O606   Zn610   2.000   .     S
O607   Zn609   1.993   .     S
O608   Zn610   1.993   .     S
N611   C613    1.451   .     S
N611   H612    1.031   .     S
C613   H614    1.112   .     S
C613   H615    1.108   .     S
C613   H616    1.110   .     S
N617   C619    1.445   .     S
N617   H618    1.030   .     S
C619   H620    1.110   .     S
C619   H621    1.109   .     S
C619   H622    1.103   .     S
N623   C625    1.449   .     S
N623   H624    1.030   .     S
C625   H627    1.107   .     S
C625   H628    1.111   .     S
C625   H626    1.105   .     S
N629   C631    1.445   .     S
N629   H630    1.032   .     S
C631   H632    1.111   .     S
C631   H633    1.109   .     S
C631   H634    1.102   .     S
N635   C637    1.454   .     S
N635   H636    1.030   .     S
C637   H639    1.111   .     S
C637   H638    1.105   .     S
C637   H640    1.112   .     S
N641   H642    1.032   .     S
N641   C643    1.448   .     S
C643   H645    1.109   .     S
C643   H646    1.111   .     S
C643   H644    1.111   .     S
N647   H648    1.031   .     S
N647   C649    1.452   .     S
C649   H651    1.111   .     S
C649   H650    1.109   .     S
C649   H652    1.112   .     S
N653   C655    1.447   .     S
N653   H654    1.032   .     S
C655   H656    1.111   .     S
C655   H657    1.111   .     S
C655   H658    1.110   .     S
C659   O698    1.289   .     A
C659   O695    1.285   .     A
C659   C684    1.407   .     S
C660   O697    1.286   .     A
C660   O696    1.287   .     A
C660   C683    1.405   .     S
C661   O702    1.300   .     A
C661   C679    1.469   .     S
C661   O699    1.303   .     A
C662   C680    1.467   .     S
C662   O701    1.302   .     A
C662   O700    1.301   .     A
C663   N705    1.420   .     S
C663   N694    1.369   .     A
C664   N693    1.370   .     A
C664   N711    1.417   .     S
C664   C101    1.436   1_565 S
C665   N694    1.374   .     A
C665   N717    1.422   .     S
C666   N723    1.420   .     S
C666   N693    1.375   .     A
C666   C99     1.429   1_565 S
C667   C684    1.393   .     A
C667   H689    1.084   .     S
C668   C683    1.392   .     A
C668   H690    1.084   .     S
C668   C764    1.371   .     S
C669   C683    1.394   .     A
C669   H691    1.080   .     S
C669   C761    1.373   .     S
C670   C684    1.394   .     A
C670   H692    1.079   .     S
C671   C681    1.393   .     A
C671   C675    1.392   .     A
C671   H685    1.081   .     S
C672   C676    1.401   .     A
C672   C682    1.390   .     A
C672   H686    1.082   .     S
C673   C677    1.390   .     A
C673   H687    1.082   .     S
C673   C682    1.390   .     A
C674   H688    1.084   .     S
C674   C678    1.392   .     A
C674   C681    1.384   .     A
C675   C679    1.421   .     A
C675   N729    1.438   .     S
C676   C680    1.425   .     A
C676   N735    1.436   .     S
C677   N741    1.437   .     S
C677   C680    1.419   .     A
C678   N747    1.424   .     S
C678   C679    1.427   .     A
C681   C1528   1.449   1_554 S
C682   C1527   1.449   .     S
N693   Zn703   2.029   .     S
N694   Zn704   2.029   .     S
O695   Zn703   1.981   .     S
O696   Zn704   1.981   .     S
O697   Zn703   1.983   .     S
O698   Zn704   1.983   .     S
O699   Zn703   2.000   .     S
O700   Zn704   2.000   .     S
O701   Zn703   1.993   .     S
O702   Zn704   1.993   .     S
N705   C707    1.451   .     S
N705   H706    1.031   .     S
C707   H708    1.112   .     S
C707   H709    1.108   .     S
C707   H710    1.110   .     S
N711   C713    1.445   .     S
N711   H712    1.030   .     S
C713   H714    1.110   .     S
C713   H715    1.109   .     S
C713   H716    1.103   .     S
N717   C719    1.449   .     S
N717   H718    1.030   .     S
C719   H721    1.107   .     S
C719   H722    1.111   .     S
C719   H720    1.105   .     S
N723   C725    1.445   .     S
N723   H724    1.032   .     S
C725   H726    1.111   .     S
C725   H727    1.109   .     S
C725   H728    1.102   .     S
N729   C731    1.454   .     S
N729   H730    1.030   .     S
C731   H733    1.111   .     S
C731   H732    1.105   .     S
C731   H734    1.112   .     S
N735   H736    1.032   .     S
N735   C737    1.448   .     S
C737   H739    1.109   .     S
C737   H740    1.111   .     S
C737   H738    1.111   .     S
N741   H742    1.031   .     S
N741   C743    1.452   .     S
C743   H745    1.111   .     S
C743   H744    1.109   .     S
C743   H746    1.112   .     S
N747   C749    1.447   .     S
N747   H748    1.032   .     S
C749   H750    1.111   .     S
C749   H751    1.111   .     S
C749   H752    1.110   .     S
C753   O792    1.289   .     A
C753   O789    1.285   .     A
C753   C778    1.407   .     S
C754   O791    1.286   .     A
C754   O790    1.287   .     A
C754   C777    1.405   .     S
C755   O796    1.300   .     A
C755   C773    1.469   .     S
C755   O793    1.303   .     A
C756   C774    1.467   .     S
C756   O795    1.302   .     A
C756   O794    1.301   .     A
C757   N799    1.420   .     S
C757   N788    1.369   .     A
C758   N787    1.370   .     A
C758   N805    1.417   .     S
C758   C195    1.436   1_565 S
C759   N788    1.374   .     A
C759   N811    1.422   .     S
C760   N817    1.420   .     S
C760   N787    1.375   .     A
C760   C193    1.429   1_565 S
C761   C778    1.393   .     A
C761   H783    1.084   .     S
C762   C777    1.392   .     A
C762   H784    1.084   .     S
C762   C576    1.371   1_655 S
C763   C777    1.394   .     A
C763   H785    1.080   .     S
C763   C573    1.373   1_655 S
C764   C778    1.394   .     A
C764   H786    1.079   .     S
C765   C775    1.393   .     A
C765   C769    1.392   .     A
C765   H779    1.081   .     S
C766   C770    1.401   .     A
C766   C776    1.390   .     A
C766   H780    1.082   .     S
C767   C771    1.390   .     A
C767   H781    1.082   .     S
C767   C776    1.390   .     A
C768   H782    1.084   .     S
C768   C772    1.392   .     A
C768   C775    1.384   .     A
C769   C773    1.421   .     A
C769   N823    1.438   .     S
C770   C774    1.425   .     A
C770   N829    1.436   .     S
C771   N835    1.437   .     S
C771   C774    1.419   .     A
C772   N841    1.424   .     S
C772   C773    1.427   .     A
C775   C1622   1.449   1_554 S
C776   C1621   1.449   .     S
N787   Zn797   2.029   .     S
N788   Zn798   2.029   .     S
O789   Zn797   1.981   .     S
O790   Zn798   1.981   .     S
O791   Zn797   1.983   .     S
O792   Zn798   1.983   .     S
O793   Zn797   2.000   .     S
O794   Zn798   2.000   .     S
O795   Zn797   1.993   .     S
O796   Zn798   1.993   .     S
N799   C801    1.451   .     S
N799   H800    1.031   .     S
C801   H802    1.112   .     S
C801   H803    1.108   .     S
C801   H804    1.110   .     S
N805   C807    1.445   .     S
N805   H806    1.030   .     S
C807   H808    1.110   .     S
C807   H809    1.109   .     S
C807   H810    1.103   .     S
N811   C813    1.449   .     S
N811   H812    1.030   .     S
C813   H815    1.107   .     S
C813   H816    1.111   .     S
C813   H814    1.105   .     S
N817   C819    1.445   .     S
N817   H818    1.032   .     S
C819   H820    1.111   .     S
C819   H821    1.109   .     S
C819   H822    1.102   .     S
N823   C825    1.454   .     S
N823   H824    1.030   .     S
C825   H827    1.111   .     S
C825   H826    1.105   .     S
C825   H828    1.112   .     S
N829   H830    1.032   .     S
N829   C831    1.448   .     S
C831   H833    1.109   .     S
C831   H834    1.111   .     S
C831   H832    1.111   .     S
N835   H836    1.031   .     S
N835   C837    1.452   .     S
C837   H839    1.111   .     S
C837   H838    1.109   .     S
C837   H840    1.112   .     S
N841   C843    1.447   .     S
N841   H842    1.032   .     S
C843   H844    1.111   .     S
C843   H845    1.111   .     S
C843   H846    1.110   .     S
C847   O886    1.289   .     A
C847   O883    1.285   .     A
C847   C872    1.407   .     S
C848   O885    1.286   .     A
C848   O884    1.287   .     A
C848   C871    1.405   .     S
C849   O890    1.300   .     A
C849   C867    1.469   .     S
C849   O887    1.303   .     A
C850   C868    1.467   .     S
C850   O889    1.302   .     A
C850   O888    1.301   .     A
C851   N893    1.420   .     S
C851   N882    1.369   .     A
C851   C1418   1.429   1_545 S
C852   N881    1.370   .     A
C852   N899    1.417   .     S
C852   C1135   1.436   .     S
C853   N882    1.374   .     A
C853   N905    1.422   .     S
C853   C1416   1.436   1_545 S
C854   N911    1.420   .     S
C854   N881    1.375   .     A
C854   C1133   1.429   .     S
C855   C872    1.393   .     A
C855   H877    1.084   .     S
C855   C1045   1.373   1_455 S
C856   C871    1.392   .     A
C856   H878    1.084   .     S
C856   C952    1.371   .     S
C857   C871    1.394   .     A
C857   H879    1.080   .     S
C857   C949    1.373   .     S
C858   C872    1.394   .     A
C858   H880    1.079   .     S
C858   C1044   1.371   1_455 S
C859   C869    1.393   .     A
C859   C863    1.392   .     A
C859   H873    1.081   .     S
C860   C864    1.401   .     A
C860   C870    1.390   .     A
C860   H874    1.082   .     S
C861   C865    1.390   .     A
C861   H875    1.082   .     S
C861   C870    1.390   .     A
C862   H876    1.084   .     S
C862   C866    1.392   .     A
C862   C869    1.384   .     A
C863   C867    1.421   .     A
C863   N917    1.438   .     S
C864   C868    1.425   .     A
C864   N923    1.436   .     S
C865   N929    1.437   .     S
C865   C868    1.419   .     A
C866   N935    1.424   .     S
C866   C867    1.427   .     A
C870   C23     1.449   1_556 S
N881   Zn891   2.029   .     S
N882   Zn892   2.029   .     S
O883   Zn891   1.981   .     S
O884   Zn892   1.981   .     S
O885   Zn891   1.983   .     S
O886   Zn892   1.983   .     S
O887   Zn891   2.000   .     S
O888   Zn892   2.000   .     S
O889   Zn891   1.993   .     S
O890   Zn892   1.993   .     S
N893   C895    1.451   .     S
N893   H894    1.031   .     S
C895   H896    1.112   .     S
C895   H897    1.108   .     S
C895   H898    1.110   .     S
N899   C901    1.445   .     S
N899   H900    1.030   .     S
C901   H902    1.110   .     S
C901   H903    1.109   .     S
C901   H904    1.103   .     S
N905   C907    1.449   .     S
N905   H906    1.030   .     S
C907   H909    1.107   .     S
C907   H910    1.111   .     S
C907   H908    1.105   .     S
N911   C913    1.445   .     S
N911   H912    1.032   .     S
C913   H914    1.111   .     S
C913   H915    1.109   .     S
C913   H916    1.102   .     S
N917   C919    1.454   .     S
N917   H918    1.030   .     S
C919   H921    1.111   .     S
C919   H920    1.105   .     S
C919   H922    1.112   .     S
N923   H924    1.032   .     S
N923   C925    1.448   .     S
C925   H927    1.109   .     S
C925   H928    1.111   .     S
C925   H926    1.111   .     S
N929   H930    1.031   .     S
N929   C931    1.452   .     S
C931   H933    1.111   .     S
C931   H932    1.109   .     S
C931   H934    1.112   .     S
N935   C937    1.447   .     S
N935   H936    1.032   .     S
C937   H938    1.111   .     S
C937   H939    1.111   .     S
C937   H940    1.110   .     S
C941   O980    1.289   .     A
C941   O977    1.285   .     A
C941   C966    1.407   .     S
C942   O979    1.286   .     A
C942   O978    1.287   .     A
C942   C965    1.405   .     S
C943   O984    1.300   .     A
C943   C961    1.469   .     S
C943   O981    1.303   .     A
C944   C962    1.467   .     S
C944   O983    1.302   .     A
C944   O982    1.301   .     A
C945   N987    1.420   .     S
C945   N976    1.369   .     A
C945   C1512   1.429   1_545 S
C946   N975    1.370   .     A
C946   N993    1.417   .     S
C946   C1229   1.436   .     S
C947   N976    1.374   .     A
C947   N999    1.422   .     S
C947   C1510   1.436   1_545 S
C948   N1005   1.420   .     S
C948   N975    1.375   .     A
C948   C1227   1.429   .     S
C949   C966    1.393   .     A
C949   H971    1.084   .     S
C950   C965    1.392   .     A
C950   H972    1.084   .     S
C950   C1046   1.371   .     S
C951   C965    1.394   .     A
C951   H973    1.080   .     S
C951   C1043   1.373   .     S
C952   C966    1.394   .     A
C952   H974    1.079   .     S
C953   C963    1.393   .     A
C953   C957    1.392   .     A
C953   H967    1.081   .     S
C954   C958    1.401   .     A
C954   C964    1.390   .     A
C954   H968    1.082   .     S
C955   C959    1.390   .     A
C955   H969    1.082   .     S
C955   C964    1.390   .     A
C956   H970    1.084   .     S
C956   C960    1.392   .     A
C956   C963    1.384   .     A
C957   C961    1.421   .     A
C957   N1011   1.438   .     S
C958   C962    1.425   .     A
C958   N1017   1.436   .     S
C959   N1023   1.437   .     S
C959   C962    1.419   .     A
C960   N1029   1.424   .     S
C960   C961    1.427   .     A
C964   C117    1.449   1_556 S
N975   Zn985   2.029   .     S
N976   Zn986   2.029   .     S
O977   Zn985   1.981   .     S
O978   Zn986   1.981   .     S
O979   Zn985   1.983   .     S
O980   Zn986   1.983   .     S
O981   Zn985   2.000   .     S
O982   Zn986   2.000   .     S
O983   Zn985   1.993   .     S
O984   Zn986   1.993   .     S
N987   C989    1.451   .     S
N987   H988    1.031   .     S
C989   H990    1.112   .     S
C989   H991    1.108   .     S
C989   H992    1.110   .     S
N993   C995    1.445   .     S
N993   H994    1.030   .     S
C995   H996    1.110   .     S
C995   H997    1.109   .     S
C995   H998    1.103   .     S
N999   C1001   1.449   .     S
N999   H1000   1.030   .     S
C1001  H1003   1.107   .     S
C1001  H1004   1.111   .     S
C1001  H1002   1.105   .     S
N1005  C1007   1.445   .     S
N1005  H1006   1.032   .     S
C1007  H1008   1.111   .     S
C1007  H1009   1.109   .     S
C1007  H1010   1.102   .     S
N1011  C1013   1.454   .     S
N1011  H1012   1.030   .     S
C1013  H1015   1.111   .     S
C1013  H1014   1.105   .     S
C1013  H1016   1.112   .     S
N1017  H1018   1.032   .     S
N1017  C1019   1.448   .     S
C1019  H1021   1.109   .     S
C1019  H1022   1.111   .     S
C1019  H1020   1.111   .     S
N1023  H1024   1.031   .     S
N1023  C1025   1.452   .     S
C1025  H1027   1.111   .     S
C1025  H1026   1.109   .     S
C1025  H1028   1.112   .     S
N1029  C1031   1.447   .     S
N1029  H1030   1.032   .     S
C1031  H1032   1.111   .     S
C1031  H1033   1.111   .     S
C1031  H1034   1.110   .     S
C1035  O1074   1.289   .     A
C1035  O1071   1.285   .     A
C1035  C1060   1.407   .     S
C1036  O1073   1.286   .     A
C1036  O1072   1.287   .     A
C1036  C1059   1.405   .     S
C1037  O1078   1.300   .     A
C1037  C1055   1.469   .     S
C1037  O1075   1.303   .     A
C1038  C1056   1.467   .     S
C1038  O1077   1.302   .     A
C1038  O1076   1.301   .     A
C1039  N1081   1.420   .     S
C1039  N1070   1.369   .     A
C1039  C1606   1.429   1_545 S
C1040  N1069   1.370   .     A
C1040  N1087   1.417   .     S
C1040  C1323   1.436   .     S
C1041  N1070   1.374   .     A
C1041  N1093   1.422   .     S
C1041  C1604   1.436   1_545 S
C1042  N1099   1.420   .     S
C1042  N1069   1.375   .     A
C1042  C1321   1.429   .     S
C1043  C1060   1.393   .     A
C1043  H1065   1.084   .     S
C1044  C1059   1.392   .     A
C1044  H1066   1.084   .     S
C1044  C858    1.371   1_655 S
C1045  C1059   1.394   .     A
C1045  H1067   1.080   .     S
C1045  C855    1.373   1_655 S
C1046  C1060   1.394   .     A
C1046  H1068   1.079   .     S
C1047  C1057   1.393   .     A
C1047  C1051   1.392   .     A
C1047  H1061   1.081   .     S
C1048  C1052   1.401   .     A
C1048  C1058   1.390   .     A
C1048  H1062   1.082   .     S
C1049  C1053   1.390   .     A
C1049  H1063   1.082   .     S
C1049  C1058   1.390   .     A
C1050  H1064   1.084   .     S
C1050  C1054   1.392   .     A
C1050  C1057   1.384   .     A
C1051  C1055   1.421   .     A
C1051  N1105   1.438   .     S
C1052  C1056   1.425   .     A
C1052  N1111   1.436   .     S
C1053  N1117   1.437   .     S
C1053  C1056   1.419   .     A
C1054  N1123   1.424   .     S
C1054  C1055   1.427   .     A
C1058  C211    1.449   1_556 S
N1069  Zn1079  2.029   .     S
N1070  Zn1080  2.029   .     S
O1071  Zn1079  1.981   .     S
O1072  Zn1080  1.981   .     S
O1073  Zn1079  1.983   .     S
O1074  Zn1080  1.983   .     S
O1075  Zn1079  2.000   .     S
O1076  Zn1080  2.000   .     S
O1077  Zn1079  1.993   .     S
O1078  Zn1080  1.993   .     S
N1081  C1083   1.451   .     S
N1081  H1082   1.031   .     S
C1083  H1084   1.112   .     S
C1083  H1085   1.108   .     S
C1083  H1086   1.110   .     S
N1087  C1089   1.445   .     S
N1087  H1088   1.030   .     S
C1089  H1090   1.110   .     S
C1089  H1091   1.109   .     S
C1089  H1092   1.103   .     S
N1093  C1095   1.449   .     S
N1093  H1094   1.030   .     S
C1095  H1097   1.107   .     S
C1095  H1098   1.111   .     S
C1095  H1096   1.105   .     S
N1099  C1101   1.445   .     S
N1099  H1100   1.032   .     S
C1101  H1102   1.111   .     S
C1101  H1103   1.109   .     S
C1101  H1104   1.102   .     S
N1105  C1107   1.454   .     S
N1105  H1106   1.030   .     S
C1107  H1109   1.111   .     S
C1107  H1108   1.105   .     S
C1107  H1110   1.112   .     S
N1111  H1112   1.032   .     S
N1111  C1113   1.448   .     S
C1113  H1115   1.109   .     S
C1113  H1116   1.111   .     S
C1113  H1114   1.111   .     S
N1117  H1118   1.031   .     S
N1117  C1119   1.452   .     S
C1119  H1121   1.111   .     S
C1119  H1120   1.109   .     S
C1119  H1122   1.112   .     S
N1123  C1125   1.447   .     S
N1123  H1124   1.032   .     S
C1125  H1126   1.111   .     S
C1125  H1127   1.111   .     S
C1125  H1128   1.110   .     S
C1129  O1168   1.289   .     A
C1129  O1165   1.285   .     A
C1129  C1154   1.407   .     S
C1130  O1167   1.286   .     A
C1130  O1166   1.287   .     A
C1130  C1153   1.405   .     S
C1131  O1172   1.300   .     A
C1131  C1149   1.469   .     S
C1131  O1169   1.303   .     A
C1132  C1150   1.467   .     S
C1132  O1171   1.302   .     A
C1132  O1170   1.301   .     A
C1133  N1175   1.420   .     S
C1133  N1164   1.369   .     A
C1134  N1163   1.370   .     A
C1134  N1181   1.417   .     S
C1134  C1417   1.436   .     S
C1135  N1164   1.374   .     A
C1135  N1187   1.422   .     S
C1136  N1193   1.420   .     S
C1136  N1163   1.375   .     A
C1136  C1415   1.429   .     S
C1137  C1154   1.393   .     A
C1137  H1159   1.084   .     S
C1137  C1327   1.373   1_455 S
C1138  C1153   1.392   .     A
C1138  H1160   1.084   .     S
C1138  C1234   1.371   .     S
C1139  C1153   1.394   .     A
C1139  H1161   1.080   .     S
C1139  C1231   1.373   .     S
C1140  C1154   1.394   .     A
C1140  H1162   1.079   .     S
C1140  C1326   1.371   1_455 S
C1141  C1151   1.393   .     A
C1141  C1145   1.392   .     A
C1141  H1155   1.081   .     S
C1142  C1146   1.401   .     A
C1142  C1152   1.390   .     A
C1142  H1156   1.082   .     S
C1143  C1147   1.390   .     A
C1143  H1157   1.082   .     S
C1143  C1152   1.390   .     A
C1144  H1158   1.084   .     S
C1144  C1148   1.392   .     A
C1144  C1151   1.384   .     A
C1145  C1149   1.421   .     A
C1145  N1199   1.438   .     S
C1146  C1150   1.425   .     A
C1146  N1205   1.436   .     S
C1147  N1211   1.437   .     S
C1147  C1150   1.419   .     A
C1148  N1217   1.424   .     S
C1148  C1149   1.427   .     A
C1152  C305    1.449   1_556 S
N1163  Zn1173  2.029   .     S
N1164  Zn1174  2.029   .     S
O1165  Zn1173  1.981   .     S
O1166  Zn1174  1.981   .     S
O1167  Zn1173  1.983   .     S
O1168  Zn1174  1.983   .     S
O1169  Zn1173  2.000   .     S
O1170  Zn1174  2.000   .     S
O1171  Zn1173  1.993   .     S
O1172  Zn1174  1.993   .     S
N1175  C1177   1.451   .     S
N1175  H1176   1.031   .     S
C1177  H1178   1.112   .     S
C1177  H1179   1.108   .     S
C1177  H1180   1.110   .     S
N1181  C1183   1.445   .     S
N1181  H1182   1.030   .     S
C1183  H1184   1.110   .     S
C1183  H1185   1.109   .     S
C1183  H1186   1.103   .     S
N1187  C1189   1.449   .     S
N1187  H1188   1.030   .     S
C1189  H1191   1.107   .     S
C1189  H1192   1.111   .     S
C1189  H1190   1.105   .     S
N1193  C1195   1.445   .     S
N1193  H1194   1.032   .     S
C1195  H1196   1.111   .     S
C1195  H1197   1.109   .     S
C1195  H1198   1.102   .     S
N1199  C1201   1.454   .     S
N1199  H1200   1.030   .     S
C1201  H1203   1.111   .     S
C1201  H1202   1.105   .     S
C1201  H1204   1.112   .     S
N1205  H1206   1.032   .     S
N1205  C1207   1.448   .     S
C1207  H1209   1.109   .     S
C1207  H1210   1.111   .     S
C1207  H1208   1.111   .     S
N1211  H1212   1.031   .     S
N1211  C1213   1.452   .     S
C1213  H1215   1.111   .     S
C1213  H1214   1.109   .     S
C1213  H1216   1.112   .     S
N1217  C1219   1.447   .     S
N1217  H1218   1.032   .     S
C1219  H1220   1.111   .     S
C1219  H1221   1.111   .     S
C1219  H1222   1.110   .     S
C1223  O1262   1.289   .     A
C1223  O1259   1.285   .     A
C1223  C1248   1.407   .     S
C1224  O1261   1.286   .     A
C1224  O1260   1.287   .     A
C1224  C1247   1.405   .     S
C1225  O1266   1.300   .     A
C1225  C1243   1.469   .     S
C1225  O1263   1.303   .     A
C1226  C1244   1.467   .     S
C1226  O1265   1.302   .     A
C1226  O1264   1.301   .     A
C1227  N1269   1.420   .     S
C1227  N1258   1.369   .     A
C1228  N1257   1.370   .     A
C1228  N1275   1.417   .     S
C1228  C1511   1.436   .     S
C1229  N1258   1.374   .     A
C1229  N1281   1.422   .     S
C1230  N1287   1.420   .     S
C1230  N1257   1.375   .     A
C1230  C1509   1.429   .     S
C1231  C1248   1.393   .     A
C1231  H1253   1.084   .     S
C1232  C1247   1.392   .     A
C1232  H1254   1.084   .     S
C1232  C1328   1.371   .     S
C1233  C1247   1.394   .     A
C1233  H1255   1.080   .     S
C1233  C1325   1.373   .     S
C1234  C1248   1.394   .     A
C1234  H1256   1.079   .     S
C1235  C1245   1.393   .     A
C1235  C1239   1.392   .     A
C1235  H1249   1.081   .     S
C1236  C1240   1.401   .     A
C1236  C1246   1.390   .     A
C1236  H1250   1.082   .     S
C1237  C1241   1.390   .     A
C1237  H1251   1.082   .     S
C1237  C1246   1.390   .     A
C1238  H1252   1.084   .     S
C1238  C1242   1.392   .     A
C1238  C1245   1.384   .     A
C1239  C1243   1.421   .     A
C1239  N1293   1.438   .     S
C1240  C1244   1.425   .     A
C1240  N1299   1.436   .     S
C1241  N1305   1.437   .     S
C1241  C1244   1.419   .     A
C1242  N1311   1.424   .     S
C1242  C1243   1.427   .     A
C1246  C399    1.449   1_556 S
N1257  Zn1267  2.029   .     S
N1258  Zn1268  2.029   .     S
O1259  Zn1267  1.981   .     S
O1260  Zn1268  1.981   .     S
O1261  Zn1267  1.983   .     S
O1262  Zn1268  1.983   .     S
O1263  Zn1267  2.000   .     S
O1264  Zn1268  2.000   .     S
O1265  Zn1267  1.993   .     S
O1266  Zn1268  1.993   .     S
N1269  C1271   1.451   .     S
N1269  H1270   1.031   .     S
C1271  H1272   1.112   .     S
C1271  H1273   1.108   .     S
C1271  H1274   1.110   .     S
N1275  C1277   1.445   .     S
N1275  H1276   1.030   .     S
C1277  H1278   1.110   .     S
C1277  H1279   1.109   .     S
C1277  H1280   1.103   .     S
N1281  C1283   1.449   .     S
N1281  H1282   1.030   .     S
C1283  H1285   1.107   .     S
C1283  H1286   1.111   .     S
C1283  H1284   1.105   .     S
N1287  C1289   1.445   .     S
N1287  H1288   1.032   .     S
C1289  H1290   1.111   .     S
C1289  H1291   1.109   .     S
C1289  H1292   1.102   .     S
N1293  C1295   1.454   .     S
N1293  H1294   1.030   .     S
C1295  H1297   1.111   .     S
C1295  H1296   1.105   .     S
C1295  H1298   1.112   .     S
N1299  H1300   1.032   .     S
N1299  C1301   1.448   .     S
C1301  H1303   1.109   .     S
C1301  H1304   1.111   .     S
C1301  H1302   1.111   .     S
N1305  H1306   1.031   .     S
N1305  C1307   1.452   .     S
C1307  H1309   1.111   .     S
C1307  H1308   1.109   .     S
C1307  H1310   1.112   .     S
N1311  C1313   1.447   .     S
N1311  H1312   1.032   .     S
C1313  H1314   1.111   .     S
C1313  H1315   1.111   .     S
C1313  H1316   1.110   .     S
C1317  O1356   1.289   .     A
C1317  O1353   1.285   .     A
C1317  C1342   1.407   .     S
C1318  O1355   1.286   .     A
C1318  O1354   1.287   .     A
C1318  C1341   1.405   .     S
C1319  O1360   1.300   .     A
C1319  C1337   1.469   .     S
C1319  O1357   1.303   .     A
C1320  C1338   1.467   .     S
C1320  O1359   1.302   .     A
C1320  O1358   1.301   .     A
C1321  N1363   1.420   .     S
C1321  N1352   1.369   .     A
C1322  N1351   1.370   .     A
C1322  N1369   1.417   .     S
C1322  C1605   1.436   .     S
C1323  N1352   1.374   .     A
C1323  N1375   1.422   .     S
C1324  N1381   1.420   .     S
C1324  N1351   1.375   .     A
C1324  C1603   1.429   .     S
C1325  C1342   1.393   .     A
C1325  H1347   1.084   .     S
C1326  C1341   1.392   .     A
C1326  H1348   1.084   .     S
C1326  C1140   1.371   1_655 S
C1327  C1341   1.394   .     A
C1327  H1349   1.080   .     S
C1327  C1137   1.373   1_655 S
C1328  C1342   1.394   .     A
C1328  H1350   1.079   .     S
C1329  C1339   1.393   .     A
C1329  C1333   1.392   .     A
C1329  H1343   1.081   .     S
C1330  C1334   1.401   .     A
C1330  C1340   1.390   .     A
C1330  H1344   1.082   .     S
C1331  C1335   1.390   .     A
C1331  H1345   1.082   .     S
C1331  C1340   1.390   .     A
C1332  H1346   1.084   .     S
C1332  C1336   1.392   .     A
C1332  C1339   1.384   .     A
C1333  C1337   1.421   .     A
C1333  N1387   1.438   .     S
C1334  C1338   1.425   .     A
C1334  N1393   1.436   .     S
C1335  N1399   1.437   .     S
C1335  C1338   1.419   .     A
C1336  N1405   1.424   .     S
C1336  C1337   1.427   .     A
C1340  C493    1.449   1_556 S
N1351  Zn1361  2.029   .     S
N1352  Zn1362  2.029   .     S
O1353  Zn1361  1.981   .     S
O1354  Zn1362  1.981   .     S
O1355  Zn1361  1.983   .     S
O1356  Zn1362  1.983   .     S
O1357  Zn1361  2.000   .     S
O1358  Zn1362  2.000   .     S
O1359  Zn1361  1.993   .     S
O1360  Zn1362  1.993   .     S
N1363  C1365   1.451   .     S
N1363  H1364   1.031   .     S
C1365  H1366   1.112   .     S
C1365  H1367   1.108   .     S
C1365  H1368   1.110   .     S
N1369  C1371   1.445   .     S
N1369  H1370   1.030   .     S
C1371  H1372   1.110   .     S
C1371  H1373   1.109   .     S
C1371  H1374   1.103   .     S
N1375  C1377   1.449   .     S
N1375  H1376   1.030   .     S
C1377  H1379   1.107   .     S
C1377  H1380   1.111   .     S
C1377  H1378   1.105   .     S
N1381  C1383   1.445   .     S
N1381  H1382   1.032   .     S
C1383  H1384   1.111   .     S
C1383  H1385   1.109   .     S
C1383  H1386   1.102   .     S
N1387  C1389   1.454   .     S
N1387  H1388   1.030   .     S
C1389  H1391   1.111   .     S
C1389  H1390   1.105   .     S
C1389  H1392   1.112   .     S
N1393  H1394   1.032   .     S
N1393  C1395   1.448   .     S
C1395  H1397   1.109   .     S
C1395  H1398   1.111   .     S
C1395  H1396   1.111   .     S
N1399  H1400   1.031   .     S
N1399  C1401   1.452   .     S
C1401  H1403   1.111   .     S
C1401  H1402   1.109   .     S
C1401  H1404   1.112   .     S
N1405  C1407   1.447   .     S
N1405  H1406   1.032   .     S
C1407  H1408   1.111   .     S
C1407  H1409   1.111   .     S
C1407  H1410   1.110   .     S
C1411  O1450   1.289   .     A
C1411  O1447   1.285   .     A
C1411  C1436   1.407   .     S
C1412  O1449   1.286   .     A
C1412  O1448   1.287   .     A
C1412  C1435   1.405   .     S
C1413  O1454   1.300   .     A
C1413  C1431   1.469   .     S
C1413  O1451   1.303   .     A
C1414  C1432   1.467   .     S
C1414  O1453   1.302   .     A
C1414  O1452   1.301   .     A
C1415  N1457   1.420   .     S
C1415  N1446   1.369   .     A
C1416  N1445   1.370   .     A
C1416  N1463   1.417   .     S
C1416  C853    1.436   1_565 S
C1417  N1446   1.374   .     A
C1417  N1469   1.422   .     S
C1418  N1475   1.420   .     S
C1418  N1445   1.375   .     A
C1418  C851    1.429   1_565 S
C1419  C1436   1.393   .     A
C1419  H1441   1.084   .     S
C1419  C1609   1.373   1_455 S
C1420  C1435   1.392   .     A
C1420  H1442   1.084   .     S
C1420  C1516   1.371   .     S
C1421  C1435   1.394   .     A
C1421  H1443   1.080   .     S
C1421  C1513   1.373   .     S
C1422  C1436   1.394   .     A
C1422  H1444   1.079   .     S
C1422  C1608   1.371   1_455 S
C1423  C1433   1.393   .     A
C1423  C1427   1.392   .     A
C1423  H1437   1.081   .     S
C1424  C1428   1.401   .     A
C1424  C1434   1.390   .     A
C1424  H1438   1.082   .     S
C1425  C1429   1.390   .     A
C1425  H1439   1.082   .     S
C1425  C1434   1.390   .     A
C1426  H1440   1.084   .     S
C1426  C1430   1.392   .     A
C1426  C1433   1.384   .     A
C1427  C1431   1.421   .     A
C1427  N1481   1.438   .     S
C1428  C1432   1.425   .     A
C1428  N1487   1.436   .     S
C1429  N1493   1.437   .     S
C1429  C1432   1.419   .     A
C1430  N1499   1.424   .     S
C1430  C1431   1.427   .     A
C1434  C587    1.449   1_556 S
N1445  Zn1455  2.029   .     S
N1446  Zn1456  2.029   .     S
O1447  Zn1455  1.981   .     S
O1448  Zn1456  1.981   .     S
O1449  Zn1455  1.983   .     S
O1450  Zn1456  1.983   .     S
O1451  Zn1455  2.000   .     S
O1452  Zn1456  2.000   .     S
O1453  Zn1455  1.993   .     S
O1454  Zn1456  1.993   .     S
N1457  C1459   1.451   .     S
N1457  H1458   1.031   .     S
C1459  H1460   1.112   .     S
C1459  H1461   1.108   .     S
C1459  H1462   1.110   .     S
N1463  C1465   1.445   .     S
N1463  H1464   1.030   .     S
C1465  H1466   1.110   .     S
C1465  H1467   1.109   .     S
C1465  H1468   1.103   .     S
N1469  C1471   1.449   .     S
N1469  H1470   1.030   .     S
C1471  H1473   1.107   .     S
C1471  H1474   1.111   .     S
C1471  H1472   1.105   .     S
N1475  C1477   1.445   .     S
N1475  H1476   1.032   .     S
C1477  H1478   1.111   .     S
C1477  H1479   1.109   .     S
C1477  H1480   1.102   .     S
N1481  C1483   1.454   .     S
N1481  H1482   1.030   .     S
C1483  H1485   1.111   .     S
C1483  H1484   1.105   .     S
C1483  H1486   1.112   .     S
N1487  H1488   1.032   .     S
N1487  C1489   1.448   .     S
C1489  H1491   1.109   .     S
C1489  H1492   1.111   .     S
C1489  H1490   1.111   .     S
N1493  H1494   1.031   .     S
N1493  C1495   1.452   .     S
C1495  H1497   1.111   .     S
C1495  H1496   1.109   .     S
C1495  H1498   1.112   .     S
N1499  C1501   1.447   .     S
N1499  H1500   1.032   .     S
C1501  H1502   1.111   .     S
C1501  H1503   1.111   .     S
C1501  H1504   1.110   .     S
C1505  O1544   1.289   .     A
C1505  O1541   1.285   .     A
C1505  C1530   1.407   .     S
C1506  O1543   1.286   .     A
C1506  O1542   1.287   .     A
C1506  C1529   1.405   .     S
C1507  O1548   1.300   .     A
C1507  C1525   1.469   .     S
C1507  O1545   1.303   .     A
C1508  C1526   1.467   .     S
C1508  O1547   1.302   .     A
C1508  O1546   1.301   .     A
C1509  N1551   1.420   .     S
C1509  N1540   1.369   .     A
C1510  N1539   1.370   .     A
C1510  N1557   1.417   .     S
C1510  C947    1.436   1_565 S
C1511  N1540   1.374   .     A
C1511  N1563   1.422   .     S
C1512  N1569   1.420   .     S
C1512  N1539   1.375   .     A
C1512  C945    1.429   1_565 S
C1513  C1530   1.393   .     A
C1513  H1535   1.084   .     S
C1514  C1529   1.392   .     A
C1514  H1536   1.084   .     S
C1514  C1610   1.371   .     S
C1515  C1529   1.394   .     A
C1515  H1537   1.080   .     S
C1515  C1607   1.373   .     S
C1516  C1530   1.394   .     A
C1516  H1538   1.079   .     S
C1517  C1527   1.393   .     A
C1517  C1521   1.392   .     A
C1517  H1531   1.081   .     S
C1518  C1522   1.401   .     A
C1518  C1528   1.390   .     A
C1518  H1532   1.082   .     S
C1519  C1523   1.390   .     A
C1519  H1533   1.082   .     S
C1519  C1528   1.390   .     A
C1520  H1534   1.084   .     S
C1520  C1524   1.392   .     A
C1520  C1527   1.384   .     A
C1521  C1525   1.421   .     A
C1521  N1575   1.438   .     S
C1522  C1526   1.425   .     A
C1522  N1581   1.436   .     S
C1523  N1587   1.437   .     S
C1523  C1526   1.419   .     A
C1524  N1593   1.424   .     S
C1524  C1525   1.427   .     A
C1528  C681    1.449   1_556 S
N1539  Zn1549  2.029   .     S
N1540  Zn1550  2.029   .     S
O1541  Zn1549  1.981   .     S
O1542  Zn1550  1.981   .     S
O1543  Zn1549  1.983   .     S
O1544  Zn1550  1.983   .     S
O1545  Zn1549  2.000   .     S
O1546  Zn1550  2.000   .     S
O1547  Zn1549  1.993   .     S
O1548  Zn1550  1.993   .     S
N1551  C1553   1.451   .     S
N1551  H1552   1.031   .     S
C1553  H1554   1.112   .     S
C1553  H1555   1.108   .     S
C1553  H1556   1.110   .     S
N1557  C1559   1.445   .     S
N1557  H1558   1.030   .     S
C1559  H1560   1.110   .     S
C1559  H1561   1.109   .     S
C1559  H1562   1.103   .     S
N1563  C1565   1.449   .     S
N1563  H1564   1.030   .     S
C1565  H1567   1.107   .     S
C1565  H1568   1.111   .     S
C1565  H1566   1.105   .     S
N1569  C1571   1.445   .     S
N1569  H1570   1.032   .     S
C1571  H1572   1.111   .     S
C1571  H1573   1.109   .     S
C1571  H1574   1.102   .     S
N1575  C1577   1.454   .     S
N1575  H1576   1.030   .     S
C1577  H1579   1.111   .     S
C1577  H1578   1.105   .     S
C1577  H1580   1.112   .     S
N1581  H1582   1.032   .     S
N1581  C1583   1.448   .     S
C1583  H1585   1.109   .     S
C1583  H1586   1.111   .     S
C1583  H1584   1.111   .     S
N1587  H1588   1.031   .     S
N1587  C1589   1.452   .     S
C1589  H1591   1.111   .     S
C1589  H1590   1.109   .     S
C1589  H1592   1.112   .     S
N1593  C1595   1.447   .     S
N1593  H1594   1.032   .     S
C1595  H1596   1.111   .     S
C1595  H1597   1.111   .     S
C1595  H1598   1.110   .     S
C1599  O1638   1.289   .     A
C1599  O1635   1.285   .     A
C1599  C1624   1.407   .     S
C1600  O1637   1.286   .     A
C1600  O1636   1.287   .     A
C1600  C1623   1.405   .     S
C1601  O1642   1.300   .     A
C1601  C1619   1.469   .     S
C1601  O1639   1.303   .     A
C1602  C1620   1.467   .     S
C1602  O1641   1.302   .     A
C1602  O1640   1.301   .     A
C1603  N1645   1.420   .     S
C1603  N1634   1.369   .     A
C1604  N1633   1.370   .     A
C1604  N1651   1.417   .     S
C1604  C1041   1.436   1_565 S
C1605  N1634   1.374   .     A
C1605  N1657   1.422   .     S
C1606  N1663   1.420   .     S
C1606  N1633   1.375   .     A
C1606  C1039   1.429   1_565 S
C1607  C1624   1.393   .     A
C1607  H1629   1.084   .     S
C1608  C1623   1.392   .     A
C1608  H1630   1.084   .     S
C1608  C1422   1.371   1_655 S
C1609  C1623   1.394   .     A
C1609  H1631   1.080   .     S
C1609  C1419   1.373   1_655 S
C1610  C1624   1.394   .     A
C1610  H1632   1.079   .     S
C1611  C1621   1.393   .     A
C1611  C1615   1.392   .     A
C1611  H1625   1.081   .     S
C1612  C1616   1.401   .     A
C1612  C1622   1.390   .     A
C1612  H1626   1.082   .     S
C1613  C1617   1.390   .     A
C1613  H1627   1.082   .     S
C1613  C1622   1.390   .     A
C1614  H1628   1.084   .     S
C1614  C1618   1.392   .     A
C1614  C1621   1.384   .     A
C1615  C1619   1.421   .     A
C1615  N1669   1.438   .     S
C1616  C1620   1.425   .     A
C1616  N1675   1.436   .     S
C1617  N1681   1.437   .     S
C1617  C1620   1.419   .     A
C1618  N1687   1.424   .     S
C1618  C1619   1.427   .     A
C1622  C775    1.449   1_556 S
N1633  Zn1643  2.029   .     S
N1634  Zn1644  2.029   .     S
O1635  Zn1643  1.981   .     S
O1636  Zn1644  1.981   .     S
O1637  Zn1643  1.983   .     S
O1638  Zn1644  1.983   .     S
O1639  Zn1643  2.000   .     S
O1640  Zn1644  2.000   .     S
O1641  Zn1643  1.993   .     S
O1642  Zn1644  1.993   .     S
N1645  C1647   1.451   .     S
N1645  H1646   1.031   .     S
C1647  H1648   1.112   .     S
C1647  H1649   1.108   .     S
C1647  H1650   1.110   .     S
N1651  C1653   1.445   .     S
N1651  H1652   1.030   .     S
C1653  H1654   1.110   .     S
C1653  H1655   1.109   .     S
C1653  H1656   1.103   .     S
N1657  C1659   1.449   .     S
N1657  H1658   1.030   .     S
C1659  H1661   1.107   .     S
C1659  H1662   1.111   .     S
C1659  H1660   1.105   .     S
N1663  C1665   1.445   .     S
N1663  H1664   1.032   .     S
C1665  H1666   1.111   .     S
C1665  H1667   1.109   .     S
C1665  H1668   1.102   .     S
N1669  C1671   1.454   .     S
N1669  H1670   1.030   .     S
C1671  H1673   1.111   .     S
C1671  H1672   1.105   .     S
C1671  H1674   1.112   .     S
N1675  H1676   1.032   .     S
N1675  C1677   1.448   .     S
C1677  H1679   1.109   .     S
C1677  H1680   1.111   .     S
C1677  H1678   1.111   .     S
N1681  H1682   1.031   .     S
N1681  C1683   1.452   .     S
C1683  H1685   1.111   .     S
C1683  H1684   1.109   .     S
C1683  H1686   1.112   .     S
N1687  C1689   1.447   .     S
N1687  H1688   1.032   .     S
C1689  H1690   1.111   .     S
C1689  H1691   1.111   .     S
C1689  H1692   1.110   .     S
