data_str_m2_o2_o5_pcu_sym.100
_audit_creation_date              2020-01-03
_audit_creation_method            'Materials Studio'
_symmetry_space_group_name_H-M    'P1'
_symmetry_Int_Tables_number       1
_symmetry_cell_setting            triclinic
loop_
_symmetry_equiv_pos_as_xyz
  x,y,z
_cell_length_a                    30.4192
_cell_length_b                    28.0570
_cell_length_c                    27.4561
_cell_angle_alpha                 89.7552
_cell_angle_beta                  97.0781
_cell_angle_gamma                 89.6610
loop_
_atom_site_label
_atom_site_type_symbol
_atom_site_fract_x
_atom_site_fract_y
_atom_site_fract_z
_atom_site_U_iso_or_equiv
_atom_site_adp_type
_atom_site_occupancy
C1     C     0.16567   0.25008   0.17186   0.00000  Uiso   1.00
C2     C     0.27818   0.44629   0.20050   0.00000  Uiso   1.00
C3     C     0.24992   0.25006   0.07356   0.00000  Uiso   1.00
C4     C     0.25020   0.24994   0.25979   0.00000  Uiso   1.00
C5     C     0.24978   0.02705   0.16690   0.00000  Uiso   1.00
C6     C     0.24969   0.47287   0.16700   0.00000  Uiso   1.00
C7     C     0.25006   0.25009   0.02182   0.00000  Uiso   1.00
C8     C     0.25014   0.24993   0.31155   0.00000  Uiso   1.00
C9     C     0.04928   0.29206   0.15328   0.00000  Uiso   1.00
C10    C     0.44978   0.21195   0.13378   0.00000  Uiso   1.00
C11    C     0.44964   0.29344   0.16249   0.00000  Uiso   1.00
C12    C     0.33404   0.24986   0.16094   0.00000  Uiso   1.00
C13    C     0.04708   0.20983   0.18157   0.00000  Uiso   1.00
C14    C     0.09364   0.29363   0.17275   0.00000  Uiso   1.00
C15    C     0.40392   0.20828   0.13793   0.00000  Uiso   1.00
C16    C     0.40377   0.29374   0.15134   0.00000  Uiso   1.00
C17    C     0.09406   0.20838   0.18784   0.00000  Uiso   1.00
C18    C     0.11781   0.25058   0.17914   0.00000  Uiso   1.00
C19    C     0.38088   0.25007   0.15037   0.00000  Uiso   1.00
C20    C     0.02399   0.25104   0.16104   0.00000  Uiso   1.00
C21    C     0.47409   0.25226   0.15261   0.00000  Uiso   1.00
C22    C     0.02298   0.32160   0.07705   0.00000  Uiso   1.00
C23    C     0.27212   0.10313   0.20569   0.00000  Uiso   1.00
C24    C     0.06557   0.31578   0.05252   0.00000  Uiso   1.00
C25    C     0.05649   0.29135   0.00297   0.00000  Uiso   1.00
C26    C     0.47348   0.19298   0.05917   0.00000  Uiso   1.00
C27    C     0.43285   0.22084   0.03283   0.00000  Uiso   1.00
C28    C     0.43666   0.23001   0.31235   0.00000  Uiso   1.00
C29    C     0.47376   0.33991   0.22828   0.00000  Uiso   1.00
C30    C     0.46792   0.39224   0.24155   0.00000  Uiso   1.00
C31    C     0.47623   0.39993   0.29684   0.00000  Uiso   1.00
C32    C     0.00988   0.17500   0.23917   0.00000  Uiso   1.00
C33    C     0.49274   0.12729   0.25633   0.00000  Uiso   1.00
C34    C     0.22341   0.39685   0.13092   0.00000  Uiso   1.00
C35    C     0.45019   0.11220   0.22532   0.00000  Uiso   1.00
C36    C     0.22780   0.10368   0.12772   0.00000  Uiso   1.00
C37    C     0.27677   0.39613   0.20243   0.00000  Uiso   1.00
C38    C     0.26875   0.05312   0.20713   0.00000  Uiso   1.00
C39    C     0.22137   0.44693   0.13334   0.00000  Uiso   1.00
C40    C     0.23099   0.05361   0.12652   0.00000  Uiso   1.00
Cu41   Cu    0.25000   0.29822   0.16667   0.00000  Uiso   1.00
Cu42   Cu    0.25000   0.20179   0.16667   0.00000  Uiso   1.00
H43    H     0.28159   0.03479   0.24049   0.00000  Uiso   1.00
H44    H     0.00108   0.29049   0.07056   0.00000  Uiso   1.00
H45    H     0.08009   0.35150   0.04780   0.00000  Uiso   1.00
H46    H     0.09028   0.29356   0.07542   0.00000  Uiso   1.00
H47    H     0.05373   0.25226   0.00803   0.00000  Uiso   1.00
H48    H     0.08385   0.29841   0.31398   0.00000  Uiso   1.00
H49    H     0.02503   0.30480   0.31680   0.00000  Uiso   1.00
H50    H     0.47808   0.16050   0.03754   0.00000  Uiso   1.00
H51    H     0.00436   0.21359   0.05896   0.00000  Uiso   1.00
H52    H     0.40213   0.20032   0.03477   0.00000  Uiso   1.00
H53    H     0.42935   0.25595   0.05052   0.00000  Uiso   1.00
H54    H     0.19805   0.46565   0.10731   0.00000  Uiso   1.00
H55    H     0.46924   0.24571   0.30789   0.00000  Uiso   1.00
H56    H     0.41020   0.25513   0.29688   0.00000  Uiso   1.00
H57    H     0.43204   0.19612   0.29201   0.00000  Uiso   1.00
H58    H     0.00762   0.32794   0.24248   0.00000  Uiso   1.00
H59    H     0.44916   0.31840   0.24588   0.00000  Uiso   1.00
H60    H     0.49122   0.41462   0.22340   0.00000  Uiso   1.00
H61    H     0.43365   0.40399   0.22808   0.00000  Uiso   1.00
H62    H     0.45399   0.37700   0.31590   0.00000  Uiso   1.00
H63    H     0.46952   0.43777   0.30521   0.00000  Uiso   1.00
H64    H     0.01131   0.39165   0.31061   0.00000  Uiso   1.00
H65    H     0.21811   0.03563   0.09323   0.00000  Uiso   1.00
H66    H     0.48311   0.20213   0.23727   0.00000  Uiso   1.00
H67    H     0.03746   0.18657   0.26712   0.00000  Uiso   1.00
H68    H     0.01808   0.09891   0.25487   0.00000  Uiso   1.00
H69    H     0.48629   0.13038   0.29502   0.00000  Uiso   1.00
H70    H     0.42407   0.13956   0.22745   0.00000  Uiso   1.00
H71    H     0.43861   0.07792   0.23940   0.00000  Uiso   1.00
H72    H     0.45602   0.10734   0.18653   0.00000  Uiso   1.00
H73    H     0.08846   0.41059   0.22909   0.00000  Uiso   1.00
H74    H     0.31640   0.13819   0.06893   0.00000  Uiso   1.00
H75    H     0.34629   0.31595   0.06014   0.00000  Uiso   1.00
H76    H     0.30143   0.46458   0.22652   0.00000  Uiso   1.00
H77    H     0.15462   0.18832   0.27692   0.00000  Uiso   1.00
H78    H     0.34320   0.18814   0.28412   0.00000  Uiso   1.00
H79    H     0.16393   0.30912   0.04632   0.00000  Uiso   1.00
H80    H     0.15416   0.18846   0.04918   0.00000  Uiso   1.00
H81    H     0.34335   0.30904   0.28528   0.00000  Uiso   1.00
H82    H     0.00375   0.35200   0.05920   0.00000  Uiso   1.00
N83    N     0.25000   0.12935   0.16667   0.00000  Uiso   1.00
N84    N     0.25000   0.37066   0.16667   0.00000  Uiso   1.00
O85    O     0.18573   0.29072   0.16667   0.00000  Uiso   1.00
O86    O     0.33882   0.08969   0.27819   0.00000  Uiso   1.00
O87    O     0.33288   0.17673   0.25058   0.00000  Uiso   1.00
O88    O     0.16096   0.40853   0.05266   0.00000  Uiso   1.00
O89    O     0.22919   0.36777   0.03993   0.00000  Uiso   1.00
O90    O     0.16963   0.32152   0.08023   0.00000  Uiso   1.00
O91    O     0.22463   0.13601   0.03591   0.00000  Uiso   1.00
O92    O     0.16094   0.09147   0.05549   0.00000  Uiso   1.00
O93    O     0.16698   0.17838   0.08258   0.00000  Uiso   1.00
O94    O     0.34184   0.40666   0.27798   0.00000  Uiso   1.00
O95    O     0.27520   0.36546   0.29407   0.00000  Uiso   1.00
O96    O     0.31427   0.20929   0.16666   0.00000  Uiso   1.00
O97    O     0.33369   0.31992   0.25125   0.00000  Uiso   1.00
O98    O     0.03203   0.33199   0.12758   0.00000  Uiso   1.00
O99    O     0.46967   0.17744   0.10794   0.00000  Uiso   1.00
O100   O     0.46970   0.33591   0.17683   0.00000  Uiso   1.00
O101   O     0.02417   0.16951   0.19248   0.00000  Uiso   1.00
O102   O     0.15338   0.34350   0.23357   0.00000  Uiso   1.00
O103   O     0.12857   0.37788   0.15212   0.00000  Uiso   1.00
O104   O     0.07464   0.38011   0.21763   0.00000  Uiso   1.00
O105   O     0.40428   0.12027   0.09435   0.00000  Uiso   1.00
O106   O     0.35919   0.12967   0.16083   0.00000  Uiso   1.00
O107   O     0.31427   0.29072   0.16666   0.00000  Uiso   1.00
O108   O     0.33171   0.16877   0.07674   0.00000  Uiso   1.00
O109   O     0.36461   0.37735   0.16716   0.00000  Uiso   1.00
O110   O     0.41165   0.37561   0.10151   0.00000  Uiso   1.00
O111   O     0.33468   0.33626   0.08515   0.00000  Uiso   1.00
O112   O     0.09354   0.12298   0.23732   0.00000  Uiso   1.00
O113   O     0.13718   0.12793   0.16932   0.00000  Uiso   1.00
O114   O     0.16661   0.16920   0.25125   0.00000  Uiso   1.00
O115   O     0.18573   0.20929   0.16667   0.00000  Uiso   1.00
O116   O     0.25000   0.29071   0.09613   0.00000  Uiso   1.00
O117   O     0.25000   0.20929   0.23720   0.00000  Uiso   1.00
O118   O     0.25000   0.29071   0.23720   0.00000  Uiso   1.00
O119   O     0.25000   0.20929   0.09613   0.00000  Uiso   1.00
O120   O     0.27495   0.13499   0.29718   0.00000  Uiso   1.00
S121   S     0.30500   0.12657   0.25869   0.00000  Uiso   1.00
S122   S     0.19541   0.37354   0.07499   0.00000  Uiso   1.00
S123   S     0.19481   0.12784   0.07465   0.00000  Uiso   1.00
S124   S     0.30723   0.37175   0.25716   0.00000  Uiso   1.00
S125   S     0.11480   0.34969   0.19415   0.00000  Uiso   1.00
S126   S     0.37536   0.15457   0.11800   0.00000  Uiso   1.00
S127   S     0.37882   0.34761   0.12656   0.00000  Uiso   1.00
S128   S     0.12221   0.15522   0.21128   0.00000  Uiso   1.00
C129   C     0.66567   0.25008   0.17186   0.00000  Uiso   1.00
C130   C     0.77818   0.44629   0.20050   0.00000  Uiso   1.00
C131   C     0.74992   0.25006   0.07356   0.00000  Uiso   1.00
C132   C     0.75020   0.24994   0.25979   0.00000  Uiso   1.00
C133   C     0.74978   0.02705   0.16690   0.00000  Uiso   1.00
C134   C     0.74969   0.47287   0.16700   0.00000  Uiso   1.00
C135   C     0.75006   0.25009   0.02182   0.00000  Uiso   1.00
C136   C     0.75014   0.24993   0.31155   0.00000  Uiso   1.00
C137   C     0.54928   0.29206   0.15328   0.00000  Uiso   1.00
C138   C     0.94978   0.21195   0.13378   0.00000  Uiso   1.00
C139   C     0.94964   0.29344   0.16249   0.00000  Uiso   1.00
C140   C     0.83404   0.24986   0.16094   0.00000  Uiso   1.00
C141   C     0.54708   0.20983   0.18157   0.00000  Uiso   1.00
C142   C     0.59364   0.29363   0.17275   0.00000  Uiso   1.00
C143   C     0.90392   0.20828   0.13793   0.00000  Uiso   1.00
C144   C     0.90377   0.29374   0.15134   0.00000  Uiso   1.00
C145   C     0.59406   0.20838   0.18784   0.00000  Uiso   1.00
C146   C     0.61781   0.25058   0.17914   0.00000  Uiso   1.00
C147   C     0.88088   0.25007   0.15037   0.00000  Uiso   1.00
C148   C     0.52399   0.25104   0.16104   0.00000  Uiso   1.00
C149   C     0.97409   0.25226   0.15261   0.00000  Uiso   1.00
C150   C     0.52298   0.32160   0.07705   0.00000  Uiso   1.00
C151   C     0.77212   0.10313   0.20569   0.00000  Uiso   1.00
C152   C     0.56557   0.31578   0.05252   0.00000  Uiso   1.00
C153   C     0.55649   0.29135   0.00297   0.00000  Uiso   1.00
C154   C     0.97348   0.19298   0.05917   0.00000  Uiso   1.00
C155   C     0.93285   0.22084   0.03283   0.00000  Uiso   1.00
C156   C     0.93666   0.23001   0.31235   0.00000  Uiso   1.00
C157   C     0.97376   0.33991   0.22828   0.00000  Uiso   1.00
C158   C     0.96792   0.39224   0.24155   0.00000  Uiso   1.00
C159   C     0.97623   0.39993   0.29684   0.00000  Uiso   1.00
C160   C     0.50988   0.17500   0.23917   0.00000  Uiso   1.00
C161   C     0.99274   0.12729   0.25633   0.00000  Uiso   1.00
C162   C     0.72341   0.39685   0.13092   0.00000  Uiso   1.00
C163   C     0.95019   0.11220   0.22532   0.00000  Uiso   1.00
C164   C     0.72780   0.10368   0.12772   0.00000  Uiso   1.00
C165   C     0.77677   0.39613   0.20243   0.00000  Uiso   1.00
C166   C     0.76875   0.05312   0.20713   0.00000  Uiso   1.00
C167   C     0.72137   0.44693   0.13334   0.00000  Uiso   1.00
C168   C     0.73099   0.05361   0.12652   0.00000  Uiso   1.00
Cu169  Cu    0.75000   0.29822   0.16667   0.00000  Uiso   1.00
Cu170  Cu    0.75000   0.20179   0.16667   0.00000  Uiso   1.00
H171   H     0.78159   0.03479   0.24049   0.00000  Uiso   1.00
H172   H     0.50108   0.29049   0.07056   0.00000  Uiso   1.00
H173   H     0.58009   0.35150   0.04780   0.00000  Uiso   1.00
H174   H     0.59028   0.29356   0.07542   0.00000  Uiso   1.00
H175   H     0.55373   0.25226   0.00803   0.00000  Uiso   1.00
H176   H     0.58385   0.29841   0.31398   0.00000  Uiso   1.00
H177   H     0.52503   0.30480   0.31680   0.00000  Uiso   1.00
H178   H     0.97808   0.16050   0.03754   0.00000  Uiso   1.00
H179   H     0.50436   0.21359   0.05896   0.00000  Uiso   1.00
H180   H     0.90213   0.20032   0.03477   0.00000  Uiso   1.00
H181   H     0.92935   0.25595   0.05052   0.00000  Uiso   1.00
H182   H     0.69805   0.46565   0.10731   0.00000  Uiso   1.00
H183   H     0.96924   0.24571   0.30789   0.00000  Uiso   1.00
H184   H     0.91020   0.25513   0.29688   0.00000  Uiso   1.00
H185   H     0.93204   0.19612   0.29201   0.00000  Uiso   1.00
H186   H     0.50762   0.32794   0.24248   0.00000  Uiso   1.00
H187   H     0.94916   0.31840   0.24588   0.00000  Uiso   1.00
H188   H     0.99122   0.41462   0.22340   0.00000  Uiso   1.00
H189   H     0.93365   0.40399   0.22808   0.00000  Uiso   1.00
H190   H     0.95399   0.37700   0.31590   0.00000  Uiso   1.00
H191   H     0.96952   0.43777   0.30521   0.00000  Uiso   1.00
H192   H     0.51131   0.39165   0.31061   0.00000  Uiso   1.00
H193   H     0.71811   0.03563   0.09323   0.00000  Uiso   1.00
H194   H     0.98311   0.20213   0.23727   0.00000  Uiso   1.00
H195   H     0.53746   0.18657   0.26712   0.00000  Uiso   1.00
H196   H     0.51808   0.09891   0.25487   0.00000  Uiso   1.00
H197   H     0.98629   0.13038   0.29502   0.00000  Uiso   1.00
H198   H     0.92407   0.13956   0.22745   0.00000  Uiso   1.00
H199   H     0.93861   0.07792   0.23940   0.00000  Uiso   1.00
H200   H     0.95602   0.10734   0.18653   0.00000  Uiso   1.00
H201   H     0.58846   0.41059   0.22909   0.00000  Uiso   1.00
H202   H     0.81640   0.13819   0.06893   0.00000  Uiso   1.00
H203   H     0.84629   0.31595   0.06014   0.00000  Uiso   1.00
H204   H     0.80143   0.46458   0.22652   0.00000  Uiso   1.00
H205   H     0.65462   0.18832   0.27692   0.00000  Uiso   1.00
H206   H     0.84320   0.18814   0.28412   0.00000  Uiso   1.00
H207   H     0.66393   0.30912   0.04632   0.00000  Uiso   1.00
H208   H     0.65416   0.18846   0.04918   0.00000  Uiso   1.00
H209   H     0.84335   0.30904   0.28528   0.00000  Uiso   1.00
H210   H     0.50375   0.35200   0.05920   0.00000  Uiso   1.00
N211   N     0.75000   0.12935   0.16667   0.00000  Uiso   1.00
N212   N     0.75000   0.37066   0.16667   0.00000  Uiso   1.00
O213   O     0.68573   0.29072   0.16667   0.00000  Uiso   1.00
O214   O     0.83882   0.08969   0.27819   0.00000  Uiso   1.00
O215   O     0.83288   0.17673   0.25058   0.00000  Uiso   1.00
O216   O     0.66096   0.40853   0.05266   0.00000  Uiso   1.00
O217   O     0.72919   0.36777   0.03993   0.00000  Uiso   1.00
O218   O     0.66963   0.32152   0.08023   0.00000  Uiso   1.00
O219   O     0.72463   0.13601   0.03591   0.00000  Uiso   1.00
O220   O     0.66094   0.09147   0.05549   0.00000  Uiso   1.00
O221   O     0.66698   0.17838   0.08258   0.00000  Uiso   1.00
O222   O     0.84184   0.40666   0.27798   0.00000  Uiso   1.00
O223   O     0.77520   0.36546   0.29407   0.00000  Uiso   1.00
O224   O     0.81427   0.20929   0.16666   0.00000  Uiso   1.00
O225   O     0.83369   0.31992   0.25125   0.00000  Uiso   1.00
O226   O     0.53203   0.33199   0.12758   0.00000  Uiso   1.00
O227   O     0.96967   0.17744   0.10794   0.00000  Uiso   1.00
O228   O     0.96970   0.33591   0.17683   0.00000  Uiso   1.00
O229   O     0.52417   0.16951   0.19248   0.00000  Uiso   1.00
O230   O     0.65338   0.34350   0.23357   0.00000  Uiso   1.00
O231   O     0.62857   0.37788   0.15212   0.00000  Uiso   1.00
O232   O     0.57464   0.38011   0.21763   0.00000  Uiso   1.00
O233   O     0.90428   0.12027   0.09435   0.00000  Uiso   1.00
O234   O     0.85919   0.12967   0.16083   0.00000  Uiso   1.00
O235   O     0.81427   0.29072   0.16666   0.00000  Uiso   1.00
O236   O     0.83171   0.16877   0.07674   0.00000  Uiso   1.00
O237   O     0.86461   0.37735   0.16716   0.00000  Uiso   1.00
O238   O     0.91165   0.37561   0.10151   0.00000  Uiso   1.00
O239   O     0.83468   0.33626   0.08515   0.00000  Uiso   1.00
O240   O     0.59354   0.12298   0.23732   0.00000  Uiso   1.00
O241   O     0.63718   0.12793   0.16932   0.00000  Uiso   1.00
O242   O     0.66661   0.16920   0.25125   0.00000  Uiso   1.00
O243   O     0.68573   0.20929   0.16667   0.00000  Uiso   1.00
O244   O     0.75000   0.29071   0.09613   0.00000  Uiso   1.00
O245   O     0.75000   0.20929   0.23720   0.00000  Uiso   1.00
O246   O     0.75000   0.29071   0.23720   0.00000  Uiso   1.00
O247   O     0.75000   0.20929   0.09613   0.00000  Uiso   1.00
O248   O     0.77495   0.13499   0.29718   0.00000  Uiso   1.00
S249   S     0.80500   0.12657   0.25869   0.00000  Uiso   1.00
S250   S     0.69541   0.37354   0.07499   0.00000  Uiso   1.00
S251   S     0.69481   0.12784   0.07465   0.00000  Uiso   1.00
S252   S     0.80723   0.37175   0.25716   0.00000  Uiso   1.00
S253   S     0.61480   0.34969   0.19415   0.00000  Uiso   1.00
S254   S     0.87536   0.15457   0.11800   0.00000  Uiso   1.00
S255   S     0.87882   0.34761   0.12656   0.00000  Uiso   1.00
S256   S     0.62221   0.15522   0.21128   0.00000  Uiso   1.00
C257   C     0.16567   0.75008   0.17186   0.00000  Uiso   1.00
C258   C     0.27818   0.94629   0.20050   0.00000  Uiso   1.00
C259   C     0.24992   0.75006   0.07356   0.00000  Uiso   1.00
C260   C     0.25020   0.74994   0.25979   0.00000  Uiso   1.00
C261   C     0.24978   0.52705   0.16690   0.00000  Uiso   1.00
C262   C     0.24969   0.97287   0.16700   0.00000  Uiso   1.00
C263   C     0.25006   0.75009   0.02182   0.00000  Uiso   1.00
C264   C     0.25014   0.74993   0.31155   0.00000  Uiso   1.00
C265   C     0.04928   0.79206   0.15328   0.00000  Uiso   1.00
C266   C     0.44978   0.71195   0.13378   0.00000  Uiso   1.00
C267   C     0.44964   0.79344   0.16249   0.00000  Uiso   1.00
C268   C     0.33404   0.74986   0.16094   0.00000  Uiso   1.00
C269   C     0.04708   0.70983   0.18157   0.00000  Uiso   1.00
C270   C     0.09364   0.79363   0.17275   0.00000  Uiso   1.00
C271   C     0.40392   0.70828   0.13793   0.00000  Uiso   1.00
C272   C     0.40377   0.79374   0.15134   0.00000  Uiso   1.00
C273   C     0.09406   0.70838   0.18784   0.00000  Uiso   1.00
C274   C     0.11781   0.75058   0.17914   0.00000  Uiso   1.00
C275   C     0.38088   0.75007   0.15037   0.00000  Uiso   1.00
C276   C     0.02399   0.75104   0.16104   0.00000  Uiso   1.00
C277   C     0.47409   0.75226   0.15261   0.00000  Uiso   1.00
C278   C     0.02298   0.82160   0.07705   0.00000  Uiso   1.00
C279   C     0.27212   0.60313   0.20569   0.00000  Uiso   1.00
C280   C     0.06557   0.81578   0.05252   0.00000  Uiso   1.00
C281   C     0.05649   0.79135   0.00297   0.00000  Uiso   1.00
C282   C     0.47348   0.69298   0.05917   0.00000  Uiso   1.00
C283   C     0.43285   0.72084   0.03283   0.00000  Uiso   1.00
C284   C     0.43666   0.73001   0.31235   0.00000  Uiso   1.00
C285   C     0.47376   0.83991   0.22828   0.00000  Uiso   1.00
C286   C     0.46792   0.89224   0.24155   0.00000  Uiso   1.00
C287   C     0.47623   0.89993   0.29684   0.00000  Uiso   1.00
C288   C     0.00988   0.67500   0.23917   0.00000  Uiso   1.00
C289   C     0.49274   0.62729   0.25633   0.00000  Uiso   1.00
C290   C     0.22341   0.89685   0.13092   0.00000  Uiso   1.00
C291   C     0.45019   0.61220   0.22532   0.00000  Uiso   1.00
C292   C     0.22780   0.60368   0.12772   0.00000  Uiso   1.00
C293   C     0.27677   0.89613   0.20243   0.00000  Uiso   1.00
C294   C     0.26875   0.55312   0.20713   0.00000  Uiso   1.00
C295   C     0.22137   0.94693   0.13334   0.00000  Uiso   1.00
C296   C     0.23099   0.55361   0.12652   0.00000  Uiso   1.00
Cu297  Cu    0.25000   0.79822   0.16667   0.00000  Uiso   1.00
Cu298  Cu    0.25000   0.70179   0.16667   0.00000  Uiso   1.00
H299   H     0.28159   0.53479   0.24049   0.00000  Uiso   1.00
H300   H     0.00108   0.79049   0.07056   0.00000  Uiso   1.00
H301   H     0.08009   0.85150   0.04780   0.00000  Uiso   1.00
H302   H     0.09028   0.79356   0.07542   0.00000  Uiso   1.00
H303   H     0.05373   0.75226   0.00803   0.00000  Uiso   1.00
H304   H     0.08385   0.79841   0.31398   0.00000  Uiso   1.00
H305   H     0.02503   0.80480   0.31680   0.00000  Uiso   1.00
H306   H     0.47808   0.66050   0.03754   0.00000  Uiso   1.00
H307   H     0.00436   0.71359   0.05896   0.00000  Uiso   1.00
H308   H     0.40213   0.70032   0.03477   0.00000  Uiso   1.00
H309   H     0.42935   0.75595   0.05052   0.00000  Uiso   1.00
H310   H     0.19805   0.96565   0.10731   0.00000  Uiso   1.00
H311   H     0.46924   0.74571   0.30789   0.00000  Uiso   1.00
H312   H     0.41020   0.75513   0.29688   0.00000  Uiso   1.00
H313   H     0.43204   0.69612   0.29201   0.00000  Uiso   1.00
H314   H     0.00762   0.82794   0.24248   0.00000  Uiso   1.00
H315   H     0.44916   0.81840   0.24588   0.00000  Uiso   1.00
H316   H     0.49122   0.91462   0.22340   0.00000  Uiso   1.00
H317   H     0.43365   0.90399   0.22808   0.00000  Uiso   1.00
H318   H     0.45399   0.87700   0.31590   0.00000  Uiso   1.00
H319   H     0.46952   0.93777   0.30521   0.00000  Uiso   1.00
H320   H     0.01131   0.89165   0.31061   0.00000  Uiso   1.00
H321   H     0.21811   0.53563   0.09323   0.00000  Uiso   1.00
H322   H     0.48311   0.70213   0.23727   0.00000  Uiso   1.00
H323   H     0.03746   0.68657   0.26712   0.00000  Uiso   1.00
H324   H     0.01808   0.59891   0.25487   0.00000  Uiso   1.00
H325   H     0.48629   0.63038   0.29502   0.00000  Uiso   1.00
H326   H     0.42407   0.63956   0.22745   0.00000  Uiso   1.00
H327   H     0.43861   0.57792   0.23940   0.00000  Uiso   1.00
H328   H     0.45602   0.60734   0.18653   0.00000  Uiso   1.00
H329   H     0.08846   0.91059   0.22909   0.00000  Uiso   1.00
H330   H     0.31640   0.63819   0.06893   0.00000  Uiso   1.00
H331   H     0.34629   0.81595   0.06014   0.00000  Uiso   1.00
H332   H     0.30143   0.96458   0.22652   0.00000  Uiso   1.00
H333   H     0.15462   0.68832   0.27692   0.00000  Uiso   1.00
H334   H     0.34320   0.68814   0.28412   0.00000  Uiso   1.00
H335   H     0.16393   0.80912   0.04632   0.00000  Uiso   1.00
H336   H     0.15416   0.68846   0.04918   0.00000  Uiso   1.00
H337   H     0.34335   0.80904   0.28528   0.00000  Uiso   1.00
H338   H     0.00375   0.85200   0.05920   0.00000  Uiso   1.00
N339   N     0.25000   0.62935   0.16667   0.00000  Uiso   1.00
N340   N     0.25000   0.87066   0.16667   0.00000  Uiso   1.00
O341   O     0.18573   0.79072   0.16667   0.00000  Uiso   1.00
O342   O     0.33882   0.58969   0.27819   0.00000  Uiso   1.00
O343   O     0.33288   0.67673   0.25058   0.00000  Uiso   1.00
O344   O     0.16096   0.90853   0.05266   0.00000  Uiso   1.00
O345   O     0.22919   0.86777   0.03993   0.00000  Uiso   1.00
O346   O     0.16963   0.82152   0.08023   0.00000  Uiso   1.00
O347   O     0.22463   0.63601   0.03591   0.00000  Uiso   1.00
O348   O     0.16094   0.59147   0.05549   0.00000  Uiso   1.00
O349   O     0.16698   0.67838   0.08258   0.00000  Uiso   1.00
O350   O     0.34184   0.90666   0.27798   0.00000  Uiso   1.00
O351   O     0.27520   0.86546   0.29407   0.00000  Uiso   1.00
O352   O     0.31427   0.70929   0.16666   0.00000  Uiso   1.00
O353   O     0.33369   0.81992   0.25125   0.00000  Uiso   1.00
O354   O     0.03203   0.83199   0.12758   0.00000  Uiso   1.00
O355   O     0.46967   0.67744   0.10794   0.00000  Uiso   1.00
O356   O     0.46970   0.83591   0.17683   0.00000  Uiso   1.00
O357   O     0.02417   0.66951   0.19248   0.00000  Uiso   1.00
O358   O     0.15338   0.84350   0.23357   0.00000  Uiso   1.00
O359   O     0.12857   0.87788   0.15212   0.00000  Uiso   1.00
O360   O     0.07464   0.88011   0.21763   0.00000  Uiso   1.00
O361   O     0.40428   0.62027   0.09435   0.00000  Uiso   1.00
O362   O     0.35919   0.62967   0.16083   0.00000  Uiso   1.00
O363   O     0.31427   0.79072   0.16666   0.00000  Uiso   1.00
O364   O     0.33171   0.66877   0.07674   0.00000  Uiso   1.00
O365   O     0.36461   0.87735   0.16716   0.00000  Uiso   1.00
O366   O     0.41165   0.87561   0.10151   0.00000  Uiso   1.00
O367   O     0.33468   0.83626   0.08515   0.00000  Uiso   1.00
O368   O     0.09354   0.62298   0.23732   0.00000  Uiso   1.00
O369   O     0.13718   0.62793   0.16932   0.00000  Uiso   1.00
O370   O     0.16661   0.66920   0.25125   0.00000  Uiso   1.00
O371   O     0.18573   0.70929   0.16667   0.00000  Uiso   1.00
O372   O     0.25000   0.79071   0.09613   0.00000  Uiso   1.00
O373   O     0.25000   0.70929   0.23720   0.00000  Uiso   1.00
O374   O     0.25000   0.79071   0.23720   0.00000  Uiso   1.00
O375   O     0.25000   0.70929   0.09613   0.00000  Uiso   1.00
O376   O     0.27495   0.63499   0.29718   0.00000  Uiso   1.00
S377   S     0.30500   0.62657   0.25869   0.00000  Uiso   1.00
S378   S     0.19541   0.87354   0.07499   0.00000  Uiso   1.00
S379   S     0.19481   0.62784   0.07465   0.00000  Uiso   1.00
S380   S     0.30723   0.87175   0.25716   0.00000  Uiso   1.00
S381   S     0.11480   0.84969   0.19415   0.00000  Uiso   1.00
S382   S     0.37536   0.65457   0.11800   0.00000  Uiso   1.00
S383   S     0.37882   0.84761   0.12656   0.00000  Uiso   1.00
S384   S     0.12221   0.65522   0.21128   0.00000  Uiso   1.00
C385   C     0.66567   0.75008   0.17186   0.00000  Uiso   1.00
C386   C     0.77818   0.94629   0.20050   0.00000  Uiso   1.00
C387   C     0.74992   0.75006   0.07356   0.00000  Uiso   1.00
C388   C     0.75020   0.74994   0.25979   0.00000  Uiso   1.00
C389   C     0.74978   0.52705   0.16690   0.00000  Uiso   1.00
C390   C     0.74969   0.97287   0.16700   0.00000  Uiso   1.00
C391   C     0.75006   0.75009   0.02182   0.00000  Uiso   1.00
C392   C     0.75014   0.74993   0.31155   0.00000  Uiso   1.00
C393   C     0.54928   0.79206   0.15328   0.00000  Uiso   1.00
C394   C     0.94978   0.71195   0.13378   0.00000  Uiso   1.00
C395   C     0.94964   0.79344   0.16249   0.00000  Uiso   1.00
C396   C     0.83404   0.74986   0.16094   0.00000  Uiso   1.00
C397   C     0.54708   0.70983   0.18157   0.00000  Uiso   1.00
C398   C     0.59364   0.79363   0.17275   0.00000  Uiso   1.00
C399   C     0.90392   0.70828   0.13793   0.00000  Uiso   1.00
C400   C     0.90377   0.79374   0.15134   0.00000  Uiso   1.00
C401   C     0.59406   0.70838   0.18784   0.00000  Uiso   1.00
C402   C     0.61781   0.75058   0.17914   0.00000  Uiso   1.00
C403   C     0.88088   0.75007   0.15037   0.00000  Uiso   1.00
C404   C     0.52399   0.75104   0.16104   0.00000  Uiso   1.00
C405   C     0.97409   0.75226   0.15261   0.00000  Uiso   1.00
C406   C     0.52298   0.82160   0.07705   0.00000  Uiso   1.00
C407   C     0.77212   0.60313   0.20569   0.00000  Uiso   1.00
C408   C     0.56557   0.81578   0.05252   0.00000  Uiso   1.00
C409   C     0.55649   0.79135   0.00297   0.00000  Uiso   1.00
C410   C     0.97348   0.69298   0.05917   0.00000  Uiso   1.00
C411   C     0.93285   0.72084   0.03283   0.00000  Uiso   1.00
C412   C     0.93666   0.73001   0.31235   0.00000  Uiso   1.00
C413   C     0.97376   0.83991   0.22828   0.00000  Uiso   1.00
C414   C     0.96792   0.89224   0.24155   0.00000  Uiso   1.00
C415   C     0.97623   0.89993   0.29684   0.00000  Uiso   1.00
C416   C     0.50988   0.67500   0.23917   0.00000  Uiso   1.00
C417   C     0.99274   0.62729   0.25633   0.00000  Uiso   1.00
C418   C     0.72341   0.89685   0.13092   0.00000  Uiso   1.00
C419   C     0.95019   0.61220   0.22532   0.00000  Uiso   1.00
C420   C     0.72780   0.60368   0.12772   0.00000  Uiso   1.00
C421   C     0.77677   0.89613   0.20243   0.00000  Uiso   1.00
C422   C     0.76875   0.55312   0.20713   0.00000  Uiso   1.00
C423   C     0.72137   0.94693   0.13334   0.00000  Uiso   1.00
C424   C     0.73099   0.55361   0.12652   0.00000  Uiso   1.00
Cu425  Cu    0.75000   0.79822   0.16667   0.00000  Uiso   1.00
Cu426  Cu    0.75000   0.70179   0.16667   0.00000  Uiso   1.00
H427   H     0.78159   0.53479   0.24049   0.00000  Uiso   1.00
H428   H     0.50108   0.79049   0.07056   0.00000  Uiso   1.00
H429   H     0.58009   0.85150   0.04780   0.00000  Uiso   1.00
H430   H     0.59028   0.79356   0.07542   0.00000  Uiso   1.00
H431   H     0.55373   0.75226   0.00803   0.00000  Uiso   1.00
H432   H     0.58385   0.79841   0.31398   0.00000  Uiso   1.00
H433   H     0.52503   0.80480   0.31680   0.00000  Uiso   1.00
H434   H     0.97808   0.66050   0.03754   0.00000  Uiso   1.00
H435   H     0.50436   0.71359   0.05896   0.00000  Uiso   1.00
H436   H     0.90213   0.70032   0.03477   0.00000  Uiso   1.00
H437   H     0.92935   0.75595   0.05052   0.00000  Uiso   1.00
H438   H     0.69805   0.96565   0.10731   0.00000  Uiso   1.00
H439   H     0.96924   0.74571   0.30789   0.00000  Uiso   1.00
H440   H     0.91020   0.75513   0.29688   0.00000  Uiso   1.00
H441   H     0.93204   0.69612   0.29201   0.00000  Uiso   1.00
H442   H     0.50762   0.82794   0.24248   0.00000  Uiso   1.00
H443   H     0.94916   0.81840   0.24588   0.00000  Uiso   1.00
H444   H     0.99122   0.91462   0.22340   0.00000  Uiso   1.00
H445   H     0.93365   0.90399   0.22808   0.00000  Uiso   1.00
H446   H     0.95399   0.87700   0.31590   0.00000  Uiso   1.00
H447   H     0.96952   0.93777   0.30521   0.00000  Uiso   1.00
H448   H     0.51131   0.89165   0.31061   0.00000  Uiso   1.00
H449   H     0.71811   0.53563   0.09323   0.00000  Uiso   1.00
H450   H     0.98311   0.70213   0.23727   0.00000  Uiso   1.00
H451   H     0.53746   0.68657   0.26712   0.00000  Uiso   1.00
H452   H     0.51808   0.59891   0.25487   0.00000  Uiso   1.00
H453   H     0.98629   0.63038   0.29502   0.00000  Uiso   1.00
H454   H     0.92407   0.63956   0.22745   0.00000  Uiso   1.00
H455   H     0.93861   0.57792   0.23940   0.00000  Uiso   1.00
H456   H     0.95602   0.60734   0.18653   0.00000  Uiso   1.00
H457   H     0.58846   0.91059   0.22909   0.00000  Uiso   1.00
H458   H     0.81640   0.63819   0.06893   0.00000  Uiso   1.00
H459   H     0.84629   0.81595   0.06014   0.00000  Uiso   1.00
H460   H     0.80143   0.96458   0.22652   0.00000  Uiso   1.00
H461   H     0.65462   0.68832   0.27692   0.00000  Uiso   1.00
H462   H     0.84320   0.68814   0.28412   0.00000  Uiso   1.00
H463   H     0.66393   0.80912   0.04632   0.00000  Uiso   1.00
H464   H     0.65416   0.68846   0.04918   0.00000  Uiso   1.00
H465   H     0.84335   0.80904   0.28528   0.00000  Uiso   1.00
H466   H     0.50375   0.85200   0.05920   0.00000  Uiso   1.00
N467   N     0.75000   0.62935   0.16667   0.00000  Uiso   1.00
N468   N     0.75000   0.87066   0.16667   0.00000  Uiso   1.00
O469   O     0.68573   0.79072   0.16667   0.00000  Uiso   1.00
O470   O     0.83882   0.58969   0.27819   0.00000  Uiso   1.00
O471   O     0.83288   0.67673   0.25058   0.00000  Uiso   1.00
O472   O     0.66096   0.90853   0.05266   0.00000  Uiso   1.00
O473   O     0.72919   0.86777   0.03993   0.00000  Uiso   1.00
O474   O     0.66963   0.82152   0.08023   0.00000  Uiso   1.00
O475   O     0.72463   0.63601   0.03591   0.00000  Uiso   1.00
O476   O     0.66094   0.59147   0.05549   0.00000  Uiso   1.00
O477   O     0.66698   0.67838   0.08258   0.00000  Uiso   1.00
O478   O     0.84184   0.90666   0.27798   0.00000  Uiso   1.00
O479   O     0.77520   0.86546   0.29407   0.00000  Uiso   1.00
O480   O     0.81427   0.70929   0.16666   0.00000  Uiso   1.00
O481   O     0.83369   0.81992   0.25125   0.00000  Uiso   1.00
O482   O     0.53203   0.83199   0.12758   0.00000  Uiso   1.00
O483   O     0.96967   0.67744   0.10794   0.00000  Uiso   1.00
O484   O     0.96970   0.83591   0.17683   0.00000  Uiso   1.00
O485   O     0.52417   0.66951   0.19248   0.00000  Uiso   1.00
O486   O     0.65338   0.84350   0.23357   0.00000  Uiso   1.00
O487   O     0.62857   0.87788   0.15212   0.00000  Uiso   1.00
O488   O     0.57464   0.88011   0.21763   0.00000  Uiso   1.00
O489   O     0.90428   0.62027   0.09435   0.00000  Uiso   1.00
O490   O     0.85919   0.62967   0.16083   0.00000  Uiso   1.00
O491   O     0.81427   0.79072   0.16666   0.00000  Uiso   1.00
O492   O     0.83171   0.66877   0.07674   0.00000  Uiso   1.00
O493   O     0.86461   0.87735   0.16716   0.00000  Uiso   1.00
O494   O     0.91165   0.87561   0.10151   0.00000  Uiso   1.00
O495   O     0.83468   0.83626   0.08515   0.00000  Uiso   1.00
O496   O     0.59354   0.62298   0.23732   0.00000  Uiso   1.00
O497   O     0.63718   0.62793   0.16932   0.00000  Uiso   1.00
O498   O     0.66661   0.66920   0.25125   0.00000  Uiso   1.00
O499   O     0.68573   0.70929   0.16667   0.00000  Uiso   1.00
O500   O     0.75000   0.79071   0.09613   0.00000  Uiso   1.00
O501   O     0.75000   0.70929   0.23720   0.00000  Uiso   1.00
O502   O     0.75000   0.79071   0.23720   0.00000  Uiso   1.00
O503   O     0.75000   0.70929   0.09613   0.00000  Uiso   1.00
O504   O     0.77495   0.63499   0.29718   0.00000  Uiso   1.00
S505   S     0.80500   0.62657   0.25869   0.00000  Uiso   1.00
S506   S     0.69541   0.87354   0.07499   0.00000  Uiso   1.00
S507   S     0.69481   0.62784   0.07465   0.00000  Uiso   1.00
S508   S     0.80723   0.87175   0.25716   0.00000  Uiso   1.00
S509   S     0.61480   0.84969   0.19415   0.00000  Uiso   1.00
S510   S     0.87536   0.65457   0.11800   0.00000  Uiso   1.00
S511   S     0.87882   0.84761   0.12656   0.00000  Uiso   1.00
S512   S     0.62221   0.65522   0.21128   0.00000  Uiso   1.00
C513   C     0.16567   0.25008   0.50519   0.00000  Uiso   1.00
C514   C     0.27818   0.44629   0.53384   0.00000  Uiso   1.00
C515   C     0.24992   0.25006   0.40689   0.00000  Uiso   1.00
C516   C     0.25020   0.24994   0.59312   0.00000  Uiso   1.00
C517   C     0.24978   0.02705   0.50023   0.00000  Uiso   1.00
C518   C     0.24969   0.47287   0.50033   0.00000  Uiso   1.00
C519   C     0.25006   0.25009   0.35515   0.00000  Uiso   1.00
C520   C     0.25014   0.24993   0.64488   0.00000  Uiso   1.00
C521   C     0.04928   0.29206   0.48661   0.00000  Uiso   1.00
C522   C     0.44978   0.21195   0.46711   0.00000  Uiso   1.00
C523   C     0.44964   0.29344   0.49582   0.00000  Uiso   1.00
C524   C     0.33404   0.24986   0.49427   0.00000  Uiso   1.00
C525   C     0.04708   0.20983   0.51490   0.00000  Uiso   1.00
C526   C     0.09364   0.29363   0.50608   0.00000  Uiso   1.00
C527   C     0.40392   0.20828   0.47127   0.00000  Uiso   1.00
C528   C     0.40377   0.29374   0.48467   0.00000  Uiso   1.00
C529   C     0.09406   0.20838   0.52117   0.00000  Uiso   1.00
C530   C     0.11781   0.25058   0.51248   0.00000  Uiso   1.00
C531   C     0.38088   0.25007   0.48370   0.00000  Uiso   1.00
C532   C     0.02399   0.25104   0.49438   0.00000  Uiso   1.00
C533   C     0.47409   0.25226   0.48594   0.00000  Uiso   1.00
C534   C     0.02298   0.32160   0.41038   0.00000  Uiso   1.00
C535   C     0.27212   0.10313   0.53903   0.00000  Uiso   1.00
C536   C     0.06557   0.31578   0.38586   0.00000  Uiso   1.00
C537   C     0.05649   0.29135   0.33630   0.00000  Uiso   1.00
C538   C     0.47348   0.19298   0.39250   0.00000  Uiso   1.00
C539   C     0.43285   0.22084   0.36617   0.00000  Uiso   1.00
C540   C     0.43666   0.23001   0.64568   0.00000  Uiso   1.00
C541   C     0.47376   0.33991   0.56161   0.00000  Uiso   1.00
C542   C     0.46792   0.39224   0.57489   0.00000  Uiso   1.00
C543   C     0.47623   0.39993   0.63017   0.00000  Uiso   1.00
C544   C     0.00988   0.17500   0.57250   0.00000  Uiso   1.00
C545   C     0.49274   0.12729   0.58966   0.00000  Uiso   1.00
C546   C     0.22341   0.39685   0.46425   0.00000  Uiso   1.00
C547   C     0.45019   0.11220   0.55865   0.00000  Uiso   1.00
C548   C     0.22780   0.10368   0.46105   0.00000  Uiso   1.00
C549   C     0.27677   0.39613   0.53576   0.00000  Uiso   1.00
C550   C     0.26875   0.05312   0.54046   0.00000  Uiso   1.00
C551   C     0.22137   0.44693   0.46668   0.00000  Uiso   1.00
C552   C     0.23099   0.05361   0.45985   0.00000  Uiso   1.00
Cu553  Cu    0.25000   0.29822   0.50000   0.00000  Uiso   1.00
Cu554  Cu    0.25000   0.20179   0.50000   0.00000  Uiso   1.00
H555   H     0.28159   0.03479   0.57383   0.00000  Uiso   1.00
H556   H     0.00108   0.29049   0.40390   0.00000  Uiso   1.00
H557   H     0.08009   0.35150   0.38113   0.00000  Uiso   1.00
H558   H     0.09028   0.29356   0.40875   0.00000  Uiso   1.00
H559   H     0.05373   0.25226   0.34136   0.00000  Uiso   1.00
H560   H     0.08385   0.29841   0.64731   0.00000  Uiso   1.00
H561   H     0.02503   0.30480   0.65014   0.00000  Uiso   1.00
H562   H     0.47808   0.16050   0.37088   0.00000  Uiso   1.00
H563   H     0.00436   0.21359   0.39230   0.00000  Uiso   1.00
H564   H     0.40213   0.20032   0.36810   0.00000  Uiso   1.00
H565   H     0.42935   0.25595   0.38386   0.00000  Uiso   1.00
H566   H     0.19805   0.46565   0.44065   0.00000  Uiso   1.00
H567   H     0.46924   0.24571   0.64122   0.00000  Uiso   1.00
H568   H     0.41020   0.25513   0.63021   0.00000  Uiso   1.00
H569   H     0.43204   0.19612   0.62534   0.00000  Uiso   1.00
H570   H     0.00762   0.32794   0.57581   0.00000  Uiso   1.00
H571   H     0.44916   0.31840   0.57922   0.00000  Uiso   1.00
H572   H     0.49122   0.41462   0.55673   0.00000  Uiso   1.00
H573   H     0.43365   0.40399   0.56141   0.00000  Uiso   1.00
H574   H     0.45399   0.37700   0.64924   0.00000  Uiso   1.00
H575   H     0.46952   0.43777   0.63855   0.00000  Uiso   1.00
H576   H     0.01131   0.39165   0.64395   0.00000  Uiso   1.00
H577   H     0.21811   0.03563   0.42656   0.00000  Uiso   1.00
H578   H     0.48311   0.20213   0.57060   0.00000  Uiso   1.00
H579   H     0.03746   0.18657   0.60046   0.00000  Uiso   1.00
H580   H     0.01808   0.09891   0.58820   0.00000  Uiso   1.00
H581   H     0.48629   0.13038   0.62836   0.00000  Uiso   1.00
H582   H     0.42407   0.13956   0.56078   0.00000  Uiso   1.00
H583   H     0.43861   0.07792   0.57273   0.00000  Uiso   1.00
H584   H     0.45602   0.10734   0.51986   0.00000  Uiso   1.00
H585   H     0.08846   0.41059   0.56242   0.00000  Uiso   1.00
H586   H     0.31640   0.13819   0.40226   0.00000  Uiso   1.00
H587   H     0.34629   0.31595   0.39347   0.00000  Uiso   1.00
H588   H     0.30143   0.46458   0.55986   0.00000  Uiso   1.00
H589   H     0.15462   0.18832   0.61025   0.00000  Uiso   1.00
H590   H     0.34320   0.18814   0.61745   0.00000  Uiso   1.00
H591   H     0.16393   0.30912   0.37965   0.00000  Uiso   1.00
H592   H     0.15416   0.18846   0.38251   0.00000  Uiso   1.00
H593   H     0.34335   0.30904   0.61861   0.00000  Uiso   1.00
H594   H     0.00375   0.35200   0.39254   0.00000  Uiso   1.00
N595   N     0.25000   0.12935   0.50000   0.00000  Uiso   1.00
N596   N     0.25000   0.37066   0.50000   0.00000  Uiso   1.00
O597   O     0.18573   0.29072   0.50000   0.00000  Uiso   1.00
O598   O     0.33882   0.08969   0.61153   0.00000  Uiso   1.00
O599   O     0.33288   0.17673   0.58392   0.00000  Uiso   1.00
O600   O     0.16096   0.40853   0.38600   0.00000  Uiso   1.00
O601   O     0.22919   0.36777   0.37326   0.00000  Uiso   1.00
O602   O     0.16963   0.32152   0.41356   0.00000  Uiso   1.00
O603   O     0.22463   0.13601   0.36924   0.00000  Uiso   1.00
O604   O     0.16094   0.09147   0.38882   0.00000  Uiso   1.00
O605   O     0.16698   0.17838   0.41591   0.00000  Uiso   1.00
O606   O     0.34184   0.40666   0.61131   0.00000  Uiso   1.00
O607   O     0.27520   0.36546   0.62740   0.00000  Uiso   1.00
O608   O     0.31427   0.20929   0.50000   0.00000  Uiso   1.00
O609   O     0.33369   0.31992   0.58459   0.00000  Uiso   1.00
O610   O     0.03203   0.33199   0.46092   0.00000  Uiso   1.00
O611   O     0.46967   0.17744   0.44127   0.00000  Uiso   1.00
O612   O     0.46970   0.33591   0.51016   0.00000  Uiso   1.00
O613   O     0.02417   0.16951   0.52582   0.00000  Uiso   1.00
O614   O     0.15338   0.34350   0.56690   0.00000  Uiso   1.00
O615   O     0.12857   0.37788   0.48545   0.00000  Uiso   1.00
O616   O     0.07464   0.38011   0.55097   0.00000  Uiso   1.00
O617   O     0.40428   0.12027   0.42768   0.00000  Uiso   1.00
O618   O     0.35919   0.12967   0.49417   0.00000  Uiso   1.00
O619   O     0.31427   0.29072   0.50000   0.00000  Uiso   1.00
O620   O     0.33171   0.16877   0.41008   0.00000  Uiso   1.00
O621   O     0.36461   0.37735   0.50049   0.00000  Uiso   1.00
O622   O     0.41165   0.37561   0.43484   0.00000  Uiso   1.00
O623   O     0.33468   0.33626   0.41849   0.00000  Uiso   1.00
O624   O     0.09354   0.12298   0.57066   0.00000  Uiso   1.00
O625   O     0.13718   0.12793   0.50266   0.00000  Uiso   1.00
O626   O     0.16661   0.16920   0.58458   0.00000  Uiso   1.00
O627   O     0.18573   0.20929   0.50000   0.00000  Uiso   1.00
O628   O     0.25000   0.29071   0.42946   0.00000  Uiso   1.00
O629   O     0.25000   0.20929   0.57054   0.00000  Uiso   1.00
O630   O     0.25000   0.29071   0.57054   0.00000  Uiso   1.00
O631   O     0.25000   0.20929   0.42946   0.00000  Uiso   1.00
O632   O     0.27495   0.13499   0.63051   0.00000  Uiso   1.00
S633   S     0.30500   0.12657   0.59203   0.00000  Uiso   1.00
S634   S     0.19541   0.37354   0.40832   0.00000  Uiso   1.00
S635   S     0.19481   0.12784   0.40799   0.00000  Uiso   1.00
S636   S     0.30723   0.37175   0.59050   0.00000  Uiso   1.00
S637   S     0.11480   0.34969   0.52748   0.00000  Uiso   1.00
S638   S     0.37536   0.15457   0.45134   0.00000  Uiso   1.00
S639   S     0.37882   0.34761   0.45990   0.00000  Uiso   1.00
S640   S     0.12221   0.15522   0.54461   0.00000  Uiso   1.00
C641   C     0.66567   0.25008   0.50519   0.00000  Uiso   1.00
C642   C     0.77818   0.44629   0.53384   0.00000  Uiso   1.00
C643   C     0.74992   0.25006   0.40689   0.00000  Uiso   1.00
C644   C     0.75020   0.24994   0.59312   0.00000  Uiso   1.00
C645   C     0.74978   0.02705   0.50023   0.00000  Uiso   1.00
C646   C     0.74969   0.47287   0.50033   0.00000  Uiso   1.00
C647   C     0.75006   0.25009   0.35515   0.00000  Uiso   1.00
C648   C     0.75014   0.24993   0.64488   0.00000  Uiso   1.00
C649   C     0.54928   0.29206   0.48661   0.00000  Uiso   1.00
C650   C     0.94978   0.21195   0.46711   0.00000  Uiso   1.00
C651   C     0.94964   0.29344   0.49582   0.00000  Uiso   1.00
C652   C     0.83404   0.24986   0.49427   0.00000  Uiso   1.00
C653   C     0.54708   0.20983   0.51490   0.00000  Uiso   1.00
C654   C     0.59364   0.29363   0.50608   0.00000  Uiso   1.00
C655   C     0.90392   0.20828   0.47127   0.00000  Uiso   1.00
C656   C     0.90377   0.29374   0.48467   0.00000  Uiso   1.00
C657   C     0.59406   0.20838   0.52117   0.00000  Uiso   1.00
C658   C     0.61781   0.25058   0.51248   0.00000  Uiso   1.00
C659   C     0.88088   0.25007   0.48370   0.00000  Uiso   1.00
C660   C     0.52399   0.25104   0.49438   0.00000  Uiso   1.00
C661   C     0.97409   0.25226   0.48594   0.00000  Uiso   1.00
C662   C     0.52298   0.32160   0.41038   0.00000  Uiso   1.00
C663   C     0.77212   0.10313   0.53903   0.00000  Uiso   1.00
C664   C     0.56557   0.31578   0.38586   0.00000  Uiso   1.00
C665   C     0.55649   0.29135   0.33630   0.00000  Uiso   1.00
C666   C     0.97348   0.19298   0.39250   0.00000  Uiso   1.00
C667   C     0.93285   0.22084   0.36617   0.00000  Uiso   1.00
C668   C     0.93666   0.23001   0.64568   0.00000  Uiso   1.00
C669   C     0.97376   0.33991   0.56161   0.00000  Uiso   1.00
C670   C     0.96792   0.39224   0.57489   0.00000  Uiso   1.00
C671   C     0.97623   0.39993   0.63017   0.00000  Uiso   1.00
C672   C     0.50988   0.17500   0.57250   0.00000  Uiso   1.00
C673   C     0.99274   0.12729   0.58966   0.00000  Uiso   1.00
C674   C     0.72341   0.39685   0.46425   0.00000  Uiso   1.00
C675   C     0.95019   0.11220   0.55865   0.00000  Uiso   1.00
C676   C     0.72780   0.10368   0.46105   0.00000  Uiso   1.00
C677   C     0.77677   0.39613   0.53576   0.00000  Uiso   1.00
C678   C     0.76875   0.05312   0.54046   0.00000  Uiso   1.00
C679   C     0.72137   0.44693   0.46668   0.00000  Uiso   1.00
C680   C     0.73099   0.05361   0.45985   0.00000  Uiso   1.00
Cu681  Cu    0.75000   0.29822   0.50000   0.00000  Uiso   1.00
Cu682  Cu    0.75000   0.20179   0.50000   0.00000  Uiso   1.00
H683   H     0.78159   0.03479   0.57383   0.00000  Uiso   1.00
H684   H     0.50108   0.29049   0.40390   0.00000  Uiso   1.00
H685   H     0.58009   0.35150   0.38113   0.00000  Uiso   1.00
H686   H     0.59028   0.29356   0.40875   0.00000  Uiso   1.00
H687   H     0.55373   0.25226   0.34136   0.00000  Uiso   1.00
H688   H     0.58385   0.29841   0.64731   0.00000  Uiso   1.00
H689   H     0.52503   0.30480   0.65014   0.00000  Uiso   1.00
H690   H     0.97808   0.16050   0.37088   0.00000  Uiso   1.00
H691   H     0.50436   0.21359   0.39230   0.00000  Uiso   1.00
H692   H     0.90213   0.20032   0.36810   0.00000  Uiso   1.00
H693   H     0.92935   0.25595   0.38386   0.00000  Uiso   1.00
H694   H     0.69805   0.46565   0.44065   0.00000  Uiso   1.00
H695   H     0.96924   0.24571   0.64122   0.00000  Uiso   1.00
H696   H     0.91020   0.25513   0.63021   0.00000  Uiso   1.00
H697   H     0.93204   0.19612   0.62534   0.00000  Uiso   1.00
H698   H     0.50762   0.32794   0.57581   0.00000  Uiso   1.00
H699   H     0.94916   0.31840   0.57922   0.00000  Uiso   1.00
H700   H     0.99122   0.41462   0.55673   0.00000  Uiso   1.00
H701   H     0.93365   0.40399   0.56141   0.00000  Uiso   1.00
H702   H     0.95399   0.37700   0.64924   0.00000  Uiso   1.00
H703   H     0.96952   0.43777   0.63855   0.00000  Uiso   1.00
H704   H     0.51131   0.39165   0.64395   0.00000  Uiso   1.00
H705   H     0.71811   0.03563   0.42656   0.00000  Uiso   1.00
H706   H     0.98311   0.20213   0.57060   0.00000  Uiso   1.00
H707   H     0.53746   0.18657   0.60046   0.00000  Uiso   1.00
H708   H     0.51808   0.09891   0.58820   0.00000  Uiso   1.00
H709   H     0.98629   0.13038   0.62836   0.00000  Uiso   1.00
H710   H     0.92407   0.13956   0.56078   0.00000  Uiso   1.00
H711   H     0.93861   0.07792   0.57273   0.00000  Uiso   1.00
H712   H     0.95602   0.10734   0.51986   0.00000  Uiso   1.00
H713   H     0.58846   0.41059   0.56242   0.00000  Uiso   1.00
H714   H     0.81640   0.13819   0.40226   0.00000  Uiso   1.00
H715   H     0.84629   0.31595   0.39347   0.00000  Uiso   1.00
H716   H     0.80143   0.46458   0.55986   0.00000  Uiso   1.00
H717   H     0.65462   0.18832   0.61025   0.00000  Uiso   1.00
H718   H     0.84320   0.18814   0.61745   0.00000  Uiso   1.00
H719   H     0.66393   0.30912   0.37965   0.00000  Uiso   1.00
H720   H     0.65416   0.18846   0.38251   0.00000  Uiso   1.00
H721   H     0.84335   0.30904   0.61861   0.00000  Uiso   1.00
H722   H     0.50375   0.35200   0.39254   0.00000  Uiso   1.00
N723   N     0.75000   0.12935   0.50000   0.00000  Uiso   1.00
N724   N     0.75000   0.37066   0.50000   0.00000  Uiso   1.00
O725   O     0.68573   0.29072   0.50000   0.00000  Uiso   1.00
O726   O     0.83882   0.08969   0.61153   0.00000  Uiso   1.00
O727   O     0.83288   0.17673   0.58392   0.00000  Uiso   1.00
O728   O     0.66096   0.40853   0.38600   0.00000  Uiso   1.00
O729   O     0.72919   0.36777   0.37326   0.00000  Uiso   1.00
O730   O     0.66963   0.32152   0.41356   0.00000  Uiso   1.00
O731   O     0.72463   0.13601   0.36924   0.00000  Uiso   1.00
O732   O     0.66094   0.09147   0.38882   0.00000  Uiso   1.00
O733   O     0.66698   0.17838   0.41591   0.00000  Uiso   1.00
O734   O     0.84184   0.40666   0.61131   0.00000  Uiso   1.00
O735   O     0.77520   0.36546   0.62740   0.00000  Uiso   1.00
O736   O     0.81427   0.20929   0.50000   0.00000  Uiso   1.00
O737   O     0.83369   0.31992   0.58459   0.00000  Uiso   1.00
O738   O     0.53203   0.33199   0.46092   0.00000  Uiso   1.00
O739   O     0.96967   0.17744   0.44127   0.00000  Uiso   1.00
O740   O     0.96970   0.33591   0.51016   0.00000  Uiso   1.00
O741   O     0.52417   0.16951   0.52582   0.00000  Uiso   1.00
O742   O     0.65338   0.34350   0.56690   0.00000  Uiso   1.00
O743   O     0.62857   0.37788   0.48545   0.00000  Uiso   1.00
O744   O     0.57464   0.38011   0.55097   0.00000  Uiso   1.00
O745   O     0.90428   0.12027   0.42768   0.00000  Uiso   1.00
O746   O     0.85919   0.12967   0.49417   0.00000  Uiso   1.00
O747   O     0.81427   0.29072   0.50000   0.00000  Uiso   1.00
O748   O     0.83171   0.16877   0.41008   0.00000  Uiso   1.00
O749   O     0.86461   0.37735   0.50049   0.00000  Uiso   1.00
O750   O     0.91165   0.37561   0.43484   0.00000  Uiso   1.00
O751   O     0.83468   0.33626   0.41849   0.00000  Uiso   1.00
O752   O     0.59354   0.12298   0.57066   0.00000  Uiso   1.00
O753   O     0.63718   0.12793   0.50266   0.00000  Uiso   1.00
O754   O     0.66661   0.16920   0.58458   0.00000  Uiso   1.00
O755   O     0.68573   0.20929   0.50000   0.00000  Uiso   1.00
O756   O     0.75000   0.29071   0.42946   0.00000  Uiso   1.00
O757   O     0.75000   0.20929   0.57054   0.00000  Uiso   1.00
O758   O     0.75000   0.29071   0.57054   0.00000  Uiso   1.00
O759   O     0.75000   0.20929   0.42946   0.00000  Uiso   1.00
O760   O     0.77495   0.13499   0.63051   0.00000  Uiso   1.00
S761   S     0.80500   0.12657   0.59203   0.00000  Uiso   1.00
S762   S     0.69541   0.37354   0.40832   0.00000  Uiso   1.00
S763   S     0.69481   0.12784   0.40799   0.00000  Uiso   1.00
S764   S     0.80723   0.37175   0.59050   0.00000  Uiso   1.00
S765   S     0.61480   0.34969   0.52748   0.00000  Uiso   1.00
S766   S     0.87536   0.15457   0.45134   0.00000  Uiso   1.00
S767   S     0.87882   0.34761   0.45990   0.00000  Uiso   1.00
S768   S     0.62221   0.15522   0.54461   0.00000  Uiso   1.00
C769   C     0.16567   0.75008   0.50519   0.00000  Uiso   1.00
C770   C     0.27818   0.94629   0.53384   0.00000  Uiso   1.00
C771   C     0.24992   0.75006   0.40689   0.00000  Uiso   1.00
C772   C     0.25020   0.74994   0.59312   0.00000  Uiso   1.00
C773   C     0.24978   0.52705   0.50023   0.00000  Uiso   1.00
C774   C     0.24969   0.97287   0.50033   0.00000  Uiso   1.00
C775   C     0.25006   0.75009   0.35515   0.00000  Uiso   1.00
C776   C     0.25014   0.74993   0.64488   0.00000  Uiso   1.00
C777   C     0.04928   0.79206   0.48661   0.00000  Uiso   1.00
C778   C     0.44978   0.71195   0.46711   0.00000  Uiso   1.00
C779   C     0.44964   0.79344   0.49582   0.00000  Uiso   1.00
C780   C     0.33404   0.74986   0.49427   0.00000  Uiso   1.00
C781   C     0.04708   0.70983   0.51490   0.00000  Uiso   1.00
C782   C     0.09364   0.79363   0.50608   0.00000  Uiso   1.00
C783   C     0.40392   0.70828   0.47127   0.00000  Uiso   1.00
C784   C     0.40377   0.79374   0.48467   0.00000  Uiso   1.00
C785   C     0.09406   0.70838   0.52117   0.00000  Uiso   1.00
C786   C     0.11781   0.75058   0.51248   0.00000  Uiso   1.00
C787   C     0.38088   0.75007   0.48370   0.00000  Uiso   1.00
C788   C     0.02399   0.75104   0.49438   0.00000  Uiso   1.00
C789   C     0.47409   0.75226   0.48594   0.00000  Uiso   1.00
C790   C     0.02298   0.82160   0.41038   0.00000  Uiso   1.00
C791   C     0.27212   0.60313   0.53903   0.00000  Uiso   1.00
C792   C     0.06557   0.81578   0.38586   0.00000  Uiso   1.00
C793   C     0.05649   0.79135   0.33630   0.00000  Uiso   1.00
C794   C     0.47348   0.69298   0.39250   0.00000  Uiso   1.00
C795   C     0.43285   0.72084   0.36617   0.00000  Uiso   1.00
C796   C     0.43666   0.73001   0.64568   0.00000  Uiso   1.00
C797   C     0.47376   0.83991   0.56161   0.00000  Uiso   1.00
C798   C     0.46792   0.89224   0.57489   0.00000  Uiso   1.00
C799   C     0.47623   0.89993   0.63017   0.00000  Uiso   1.00
C800   C     0.00988   0.67500   0.57250   0.00000  Uiso   1.00
C801   C     0.49274   0.62729   0.58966   0.00000  Uiso   1.00
C802   C     0.22341   0.89685   0.46425   0.00000  Uiso   1.00
C803   C     0.45019   0.61220   0.55865   0.00000  Uiso   1.00
C804   C     0.22780   0.60368   0.46105   0.00000  Uiso   1.00
C805   C     0.27677   0.89613   0.53576   0.00000  Uiso   1.00
C806   C     0.26875   0.55312   0.54046   0.00000  Uiso   1.00
C807   C     0.22137   0.94693   0.46668   0.00000  Uiso   1.00
C808   C     0.23099   0.55361   0.45985   0.00000  Uiso   1.00
Cu809  Cu    0.25000   0.79822   0.50000   0.00000  Uiso   1.00
Cu810  Cu    0.25000   0.70179   0.50000   0.00000  Uiso   1.00
H811   H     0.28159   0.53479   0.57383   0.00000  Uiso   1.00
H812   H     0.00108   0.79049   0.40390   0.00000  Uiso   1.00
H813   H     0.08009   0.85150   0.38113   0.00000  Uiso   1.00
H814   H     0.09028   0.79356   0.40875   0.00000  Uiso   1.00
H815   H     0.05373   0.75226   0.34136   0.00000  Uiso   1.00
H816   H     0.08385   0.79841   0.64731   0.00000  Uiso   1.00
H817   H     0.02503   0.80480   0.65014   0.00000  Uiso   1.00
H818   H     0.47808   0.66050   0.37088   0.00000  Uiso   1.00
H819   H     0.00436   0.71359   0.39230   0.00000  Uiso   1.00
H820   H     0.40213   0.70032   0.36810   0.00000  Uiso   1.00
H821   H     0.42935   0.75595   0.38386   0.00000  Uiso   1.00
H822   H     0.19805   0.96565   0.44065   0.00000  Uiso   1.00
H823   H     0.46924   0.74571   0.64122   0.00000  Uiso   1.00
H824   H     0.41020   0.75513   0.63021   0.00000  Uiso   1.00
H825   H     0.43204   0.69612   0.62534   0.00000  Uiso   1.00
H826   H     0.00762   0.82794   0.57581   0.00000  Uiso   1.00
H827   H     0.44916   0.81840   0.57922   0.00000  Uiso   1.00
H828   H     0.49122   0.91462   0.55673   0.00000  Uiso   1.00
H829   H     0.43365   0.90399   0.56141   0.00000  Uiso   1.00
H830   H     0.45399   0.87700   0.64924   0.00000  Uiso   1.00
H831   H     0.46952   0.93777   0.63855   0.00000  Uiso   1.00
H832   H     0.01131   0.89165   0.64395   0.00000  Uiso   1.00
H833   H     0.21811   0.53563   0.42656   0.00000  Uiso   1.00
H834   H     0.48311   0.70213   0.57060   0.00000  Uiso   1.00
H835   H     0.03746   0.68657   0.60046   0.00000  Uiso   1.00
H836   H     0.01808   0.59891   0.58820   0.00000  Uiso   1.00
H837   H     0.48629   0.63038   0.62836   0.00000  Uiso   1.00
H838   H     0.42407   0.63956   0.56078   0.00000  Uiso   1.00
H839   H     0.43861   0.57792   0.57273   0.00000  Uiso   1.00
H840   H     0.45602   0.60734   0.51986   0.00000  Uiso   1.00
H841   H     0.08846   0.91059   0.56242   0.00000  Uiso   1.00
H842   H     0.31640   0.63819   0.40226   0.00000  Uiso   1.00
H843   H     0.34629   0.81595   0.39347   0.00000  Uiso   1.00
H844   H     0.30143   0.96458   0.55986   0.00000  Uiso   1.00
H845   H     0.15462   0.68832   0.61025   0.00000  Uiso   1.00
H846   H     0.34320   0.68814   0.61745   0.00000  Uiso   1.00
H847   H     0.16393   0.80912   0.37965   0.00000  Uiso   1.00
H848   H     0.15416   0.68846   0.38251   0.00000  Uiso   1.00
H849   H     0.34335   0.80904   0.61861   0.00000  Uiso   1.00
H850   H     0.00375   0.85200   0.39254   0.00000  Uiso   1.00
N851   N     0.25000   0.62935   0.50000   0.00000  Uiso   1.00
N852   N     0.25000   0.87066   0.50000   0.00000  Uiso   1.00
O853   O     0.18573   0.79072   0.50000   0.00000  Uiso   1.00
O854   O     0.33882   0.58969   0.61153   0.00000  Uiso   1.00
O855   O     0.33288   0.67673   0.58392   0.00000  Uiso   1.00
O856   O     0.16096   0.90853   0.38600   0.00000  Uiso   1.00
O857   O     0.22919   0.86777   0.37326   0.00000  Uiso   1.00
O858   O     0.16963   0.82152   0.41356   0.00000  Uiso   1.00
O859   O     0.22463   0.63601   0.36924   0.00000  Uiso   1.00
O860   O     0.16094   0.59147   0.38882   0.00000  Uiso   1.00
O861   O     0.16698   0.67838   0.41591   0.00000  Uiso   1.00
O862   O     0.34184   0.90666   0.61131   0.00000  Uiso   1.00
O863   O     0.27520   0.86546   0.62740   0.00000  Uiso   1.00
O864   O     0.31427   0.70929   0.50000   0.00000  Uiso   1.00
O865   O     0.33369   0.81992   0.58459   0.00000  Uiso   1.00
O866   O     0.03203   0.83199   0.46092   0.00000  Uiso   1.00
O867   O     0.46967   0.67744   0.44127   0.00000  Uiso   1.00
O868   O     0.46970   0.83591   0.51016   0.00000  Uiso   1.00
O869   O     0.02417   0.66951   0.52582   0.00000  Uiso   1.00
O870   O     0.15338   0.84350   0.56690   0.00000  Uiso   1.00
O871   O     0.12857   0.87788   0.48545   0.00000  Uiso   1.00
O872   O     0.07464   0.88011   0.55097   0.00000  Uiso   1.00
O873   O     0.40428   0.62027   0.42768   0.00000  Uiso   1.00
O874   O     0.35919   0.62967   0.49417   0.00000  Uiso   1.00
O875   O     0.31427   0.79072   0.50000   0.00000  Uiso   1.00
O876   O     0.33171   0.66877   0.41008   0.00000  Uiso   1.00
O877   O     0.36461   0.87735   0.50049   0.00000  Uiso   1.00
O878   O     0.41165   0.87561   0.43484   0.00000  Uiso   1.00
O879   O     0.33468   0.83626   0.41849   0.00000  Uiso   1.00
O880   O     0.09354   0.62298   0.57066   0.00000  Uiso   1.00
O881   O     0.13718   0.62793   0.50266   0.00000  Uiso   1.00
O882   O     0.16661   0.66920   0.58458   0.00000  Uiso   1.00
O883   O     0.18573   0.70929   0.50000   0.00000  Uiso   1.00
O884   O     0.25000   0.79071   0.42946   0.00000  Uiso   1.00
O885   O     0.25000   0.70929   0.57054   0.00000  Uiso   1.00
O886   O     0.25000   0.79071   0.57054   0.00000  Uiso   1.00
O887   O     0.25000   0.70929   0.42946   0.00000  Uiso   1.00
O888   O     0.27495   0.63499   0.63051   0.00000  Uiso   1.00
S889   S     0.30500   0.62657   0.59203   0.00000  Uiso   1.00
S890   S     0.19541   0.87354   0.40832   0.00000  Uiso   1.00
S891   S     0.19481   0.62784   0.40799   0.00000  Uiso   1.00
S892   S     0.30723   0.87175   0.59050   0.00000  Uiso   1.00
S893   S     0.11480   0.84969   0.52748   0.00000  Uiso   1.00
S894   S     0.37536   0.65457   0.45134   0.00000  Uiso   1.00
S895   S     0.37882   0.84761   0.45990   0.00000  Uiso   1.00
S896   S     0.12221   0.65522   0.54461   0.00000  Uiso   1.00
C897   C     0.66567   0.75008   0.50519   0.00000  Uiso   1.00
C898   C     0.77818   0.94629   0.53384   0.00000  Uiso   1.00
C899   C     0.74992   0.75006   0.40689   0.00000  Uiso   1.00
C900   C     0.75020   0.74994   0.59312   0.00000  Uiso   1.00
C901   C     0.74978   0.52705   0.50023   0.00000  Uiso   1.00
C902   C     0.74969   0.97287   0.50033   0.00000  Uiso   1.00
C903   C     0.75006   0.75009   0.35515   0.00000  Uiso   1.00
C904   C     0.75014   0.74993   0.64488   0.00000  Uiso   1.00
C905   C     0.54928   0.79206   0.48661   0.00000  Uiso   1.00
C906   C     0.94978   0.71195   0.46711   0.00000  Uiso   1.00
C907   C     0.94964   0.79344   0.49582   0.00000  Uiso   1.00
C908   C     0.83404   0.74986   0.49427   0.00000  Uiso   1.00
C909   C     0.54708   0.70983   0.51490   0.00000  Uiso   1.00
C910   C     0.59364   0.79363   0.50608   0.00000  Uiso   1.00
C911   C     0.90392   0.70828   0.47127   0.00000  Uiso   1.00
C912   C     0.90377   0.79374   0.48467   0.00000  Uiso   1.00
C913   C     0.59406   0.70838   0.52117   0.00000  Uiso   1.00
C914   C     0.61781   0.75058   0.51248   0.00000  Uiso   1.00
C915   C     0.88088   0.75007   0.48370   0.00000  Uiso   1.00
C916   C     0.52399   0.75104   0.49438   0.00000  Uiso   1.00
C917   C     0.97409   0.75226   0.48594   0.00000  Uiso   1.00
C918   C     0.52298   0.82160   0.41038   0.00000  Uiso   1.00
C919   C     0.77212   0.60313   0.53903   0.00000  Uiso   1.00
C920   C     0.56557   0.81578   0.38586   0.00000  Uiso   1.00
C921   C     0.55649   0.79135   0.33630   0.00000  Uiso   1.00
C922   C     0.97348   0.69298   0.39250   0.00000  Uiso   1.00
C923   C     0.93285   0.72084   0.36617   0.00000  Uiso   1.00
C924   C     0.93666   0.73001   0.64568   0.00000  Uiso   1.00
C925   C     0.97376   0.83991   0.56161   0.00000  Uiso   1.00
C926   C     0.96792   0.89224   0.57489   0.00000  Uiso   1.00
C927   C     0.97623   0.89993   0.63017   0.00000  Uiso   1.00
C928   C     0.50988   0.67500   0.57250   0.00000  Uiso   1.00
C929   C     0.99274   0.62729   0.58966   0.00000  Uiso   1.00
C930   C     0.72341   0.89685   0.46425   0.00000  Uiso   1.00
C931   C     0.95019   0.61220   0.55865   0.00000  Uiso   1.00
C932   C     0.72780   0.60368   0.46105   0.00000  Uiso   1.00
C933   C     0.77677   0.89613   0.53576   0.00000  Uiso   1.00
C934   C     0.76875   0.55312   0.54046   0.00000  Uiso   1.00
C935   C     0.72137   0.94693   0.46668   0.00000  Uiso   1.00
C936   C     0.73099   0.55361   0.45985   0.00000  Uiso   1.00
Cu937  Cu    0.75000   0.79822   0.50000   0.00000  Uiso   1.00
Cu938  Cu    0.75000   0.70179   0.50000   0.00000  Uiso   1.00
H939   H     0.78159   0.53479   0.57383   0.00000  Uiso   1.00
H940   H     0.50108   0.79049   0.40390   0.00000  Uiso   1.00
H941   H     0.58009   0.85150   0.38113   0.00000  Uiso   1.00
H942   H     0.59028   0.79356   0.40875   0.00000  Uiso   1.00
H943   H     0.55373   0.75226   0.34136   0.00000  Uiso   1.00
H944   H     0.58385   0.79841   0.64731   0.00000  Uiso   1.00
H945   H     0.52503   0.80480   0.65014   0.00000  Uiso   1.00
H946   H     0.97808   0.66050   0.37088   0.00000  Uiso   1.00
H947   H     0.50436   0.71359   0.39230   0.00000  Uiso   1.00
H948   H     0.90213   0.70032   0.36810   0.00000  Uiso   1.00
H949   H     0.92935   0.75595   0.38386   0.00000  Uiso   1.00
H950   H     0.69805   0.96565   0.44065   0.00000  Uiso   1.00
H951   H     0.96924   0.74571   0.64122   0.00000  Uiso   1.00
H952   H     0.91020   0.75513   0.63021   0.00000  Uiso   1.00
H953   H     0.93204   0.69612   0.62534   0.00000  Uiso   1.00
H954   H     0.50762   0.82794   0.57581   0.00000  Uiso   1.00
H955   H     0.94916   0.81840   0.57922   0.00000  Uiso   1.00
H956   H     0.99122   0.91462   0.55673   0.00000  Uiso   1.00
H957   H     0.93365   0.90399   0.56141   0.00000  Uiso   1.00
H958   H     0.95399   0.87700   0.64924   0.00000  Uiso   1.00
H959   H     0.96952   0.93777   0.63855   0.00000  Uiso   1.00
H960   H     0.51131   0.89165   0.64395   0.00000  Uiso   1.00
H961   H     0.71811   0.53563   0.42656   0.00000  Uiso   1.00
H962   H     0.98311   0.70213   0.57060   0.00000  Uiso   1.00
H963   H     0.53746   0.68657   0.60046   0.00000  Uiso   1.00
H964   H     0.51808   0.59891   0.58820   0.00000  Uiso   1.00
H965   H     0.98629   0.63038   0.62836   0.00000  Uiso   1.00
H966   H     0.92407   0.63956   0.56078   0.00000  Uiso   1.00
H967   H     0.93861   0.57792   0.57273   0.00000  Uiso   1.00
H968   H     0.95602   0.60734   0.51986   0.00000  Uiso   1.00
H969   H     0.58846   0.91059   0.56242   0.00000  Uiso   1.00
H970   H     0.81640   0.63819   0.40226   0.00000  Uiso   1.00
H971   H     0.84629   0.81595   0.39347   0.00000  Uiso   1.00
H972   H     0.80143   0.96458   0.55986   0.00000  Uiso   1.00
H973   H     0.65462   0.68832   0.61025   0.00000  Uiso   1.00
H974   H     0.84320   0.68814   0.61745   0.00000  Uiso   1.00
H975   H     0.66393   0.80912   0.37965   0.00000  Uiso   1.00
H976   H     0.65416   0.68846   0.38251   0.00000  Uiso   1.00
H977   H     0.84335   0.80904   0.61861   0.00000  Uiso   1.00
H978   H     0.50375   0.85200   0.39254   0.00000  Uiso   1.00
N979   N     0.75000   0.62935   0.50000   0.00000  Uiso   1.00
N980   N     0.75000   0.87066   0.50000   0.00000  Uiso   1.00
O981   O     0.68573   0.79072   0.50000   0.00000  Uiso   1.00
O982   O     0.83882   0.58969   0.61153   0.00000  Uiso   1.00
O983   O     0.83288   0.67673   0.58392   0.00000  Uiso   1.00
O984   O     0.66096   0.90853   0.38600   0.00000  Uiso   1.00
O985   O     0.72919   0.86777   0.37326   0.00000  Uiso   1.00
O986   O     0.66963   0.82152   0.41356   0.00000  Uiso   1.00
O987   O     0.72463   0.63601   0.36924   0.00000  Uiso   1.00
O988   O     0.66094   0.59147   0.38882   0.00000  Uiso   1.00
O989   O     0.66698   0.67838   0.41591   0.00000  Uiso   1.00
O990   O     0.84184   0.90666   0.61131   0.00000  Uiso   1.00
O991   O     0.77520   0.86546   0.62740   0.00000  Uiso   1.00
O992   O     0.81427   0.70929   0.50000   0.00000  Uiso   1.00
O993   O     0.83369   0.81992   0.58459   0.00000  Uiso   1.00
O994   O     0.53203   0.83199   0.46092   0.00000  Uiso   1.00
O995   O     0.96967   0.67744   0.44127   0.00000  Uiso   1.00
O996   O     0.96970   0.83591   0.51016   0.00000  Uiso   1.00
O997   O     0.52417   0.66951   0.52582   0.00000  Uiso   1.00
O998   O     0.65338   0.84350   0.56690   0.00000  Uiso   1.00
O999   O     0.62857   0.87788   0.48545   0.00000  Uiso   1.00
O1000  O     0.57464   0.88011   0.55097   0.00000  Uiso   1.00
O1001  O     0.90428   0.62027   0.42768   0.00000  Uiso   1.00
O1002  O     0.85919   0.62967   0.49417   0.00000  Uiso   1.00
O1003  O     0.81427   0.79072   0.50000   0.00000  Uiso   1.00
O1004  O     0.83171   0.66877   0.41008   0.00000  Uiso   1.00
O1005  O     0.86461   0.87735   0.50049   0.00000  Uiso   1.00
O1006  O     0.91165   0.87561   0.43484   0.00000  Uiso   1.00
O1007  O     0.83468   0.83626   0.41849   0.00000  Uiso   1.00
O1008  O     0.59354   0.62298   0.57066   0.00000  Uiso   1.00
O1009  O     0.63718   0.62793   0.50266   0.00000  Uiso   1.00
O1010  O     0.66661   0.66920   0.58458   0.00000  Uiso   1.00
O1011  O     0.68573   0.70929   0.50000   0.00000  Uiso   1.00
O1012  O     0.75000   0.79071   0.42946   0.00000  Uiso   1.00
O1013  O     0.75000   0.70929   0.57054   0.00000  Uiso   1.00
O1014  O     0.75000   0.79071   0.57054   0.00000  Uiso   1.00
O1015  O     0.75000   0.70929   0.42946   0.00000  Uiso   1.00
O1016  O     0.77495   0.63499   0.63051   0.00000  Uiso   1.00
S1017  S     0.80500   0.62657   0.59203   0.00000  Uiso   1.00
S1018  S     0.69541   0.87354   0.40832   0.00000  Uiso   1.00
S1019  S     0.69481   0.62784   0.40799   0.00000  Uiso   1.00
S1020  S     0.80723   0.87175   0.59050   0.00000  Uiso   1.00
S1021  S     0.61480   0.84969   0.52748   0.00000  Uiso   1.00
S1022  S     0.87536   0.65457   0.45134   0.00000  Uiso   1.00
S1023  S     0.87882   0.84761   0.45990   0.00000  Uiso   1.00
S1024  S     0.62221   0.65522   0.54461   0.00000  Uiso   1.00
C1025  C     0.16567   0.25008   0.83852   0.00000  Uiso   1.00
C1026  C     0.27818   0.44629   0.86717   0.00000  Uiso   1.00
C1027  C     0.24992   0.25006   0.74022   0.00000  Uiso   1.00
C1028  C     0.25020   0.24994   0.92646   0.00000  Uiso   1.00
C1029  C     0.24978   0.02705   0.83357   0.00000  Uiso   1.00
C1030  C     0.24969   0.47287   0.83366   0.00000  Uiso   1.00
C1031  C     0.25006   0.25009   0.68848   0.00000  Uiso   1.00
C1032  C     0.25014   0.24993   0.97821   0.00000  Uiso   1.00
C1033  C     0.04928   0.29206   0.81995   0.00000  Uiso   1.00
C1034  C     0.44978   0.21195   0.80045   0.00000  Uiso   1.00
C1035  C     0.44964   0.29344   0.82915   0.00000  Uiso   1.00
C1036  C     0.33404   0.24986   0.82760   0.00000  Uiso   1.00
C1037  C     0.04708   0.20983   0.84824   0.00000  Uiso   1.00
C1038  C     0.09364   0.29363   0.83942   0.00000  Uiso   1.00
C1039  C     0.40392   0.20828   0.80460   0.00000  Uiso   1.00
C1040  C     0.40377   0.29374   0.81800   0.00000  Uiso   1.00
C1041  C     0.09406   0.20838   0.85450   0.00000  Uiso   1.00
C1042  C     0.11781   0.25058   0.84581   0.00000  Uiso   1.00
C1043  C     0.38088   0.25007   0.81703   0.00000  Uiso   1.00
C1044  C     0.02399   0.25104   0.82771   0.00000  Uiso   1.00
C1045  C     0.47409   0.25226   0.81928   0.00000  Uiso   1.00
C1046  C     0.02298   0.32160   0.74372   0.00000  Uiso   1.00
C1047  C     0.27212   0.10313   0.87236   0.00000  Uiso   1.00
C1048  C     0.06557   0.31578   0.71919   0.00000  Uiso   1.00
C1049  C     0.05649   0.29135   0.66963   0.00000  Uiso   1.00
C1050  C     0.47348   0.19298   0.72584   0.00000  Uiso   1.00
C1051  C     0.43285   0.22084   0.69950   0.00000  Uiso   1.00
C1052  C     0.43666   0.23001   0.97902   0.00000  Uiso   1.00
C1053  C     0.47376   0.33991   0.89494   0.00000  Uiso   1.00
C1054  C     0.46792   0.39224   0.90822   0.00000  Uiso   1.00
C1055  C     0.47623   0.39993   0.96351   0.00000  Uiso   1.00
C1056  C     0.00988   0.17500   0.90584   0.00000  Uiso   1.00
C1057  C     0.49274   0.12729   0.92300   0.00000  Uiso   1.00
C1058  C     0.22341   0.39685   0.79758   0.00000  Uiso   1.00
C1059  C     0.45019   0.11220   0.89198   0.00000  Uiso   1.00
C1060  C     0.22780   0.10368   0.79438   0.00000  Uiso   1.00
C1061  C     0.27677   0.39613   0.86909   0.00000  Uiso   1.00
C1062  C     0.26875   0.05312   0.87379   0.00000  Uiso   1.00
C1063  C     0.22137   0.44693   0.80001   0.00000  Uiso   1.00
C1064  C     0.23099   0.05361   0.79318   0.00000  Uiso   1.00
Cu1065 Cu    0.25000   0.29822   0.83333   0.00000  Uiso   1.00
Cu1066 Cu    0.25000   0.20179   0.83333   0.00000  Uiso   1.00
H1067  H     0.28159   0.03479   0.90716   0.00000  Uiso   1.00
H1068  H     0.00108   0.29049   0.73723   0.00000  Uiso   1.00
H1069  H     0.08009   0.35150   0.71447   0.00000  Uiso   1.00
H1070  H     0.09028   0.29356   0.74209   0.00000  Uiso   1.00
H1071  H     0.05373   0.25226   0.67469   0.00000  Uiso   1.00
H1072  H     0.08385   0.29841   0.98065   0.00000  Uiso   1.00
H1073  H     0.02503   0.30480   0.98347   0.00000  Uiso   1.00
H1074  H     0.47808   0.16050   0.70421   0.00000  Uiso   1.00
H1075  H     0.00436   0.21359   0.72563   0.00000  Uiso   1.00
H1076  H     0.40213   0.20032   0.70143   0.00000  Uiso   1.00
H1077  H     0.42935   0.25595   0.71719   0.00000  Uiso   1.00
H1078  H     0.19805   0.46565   0.77398   0.00000  Uiso   1.00
H1079  H     0.46924   0.24571   0.97455   0.00000  Uiso   1.00
H1080  H     0.41020   0.25513   0.96354   0.00000  Uiso   1.00
H1081  H     0.43204   0.19612   0.95868   0.00000  Uiso   1.00
H1082  H     0.00762   0.32794   0.90914   0.00000  Uiso   1.00
H1083  H     0.44916   0.31840   0.91255   0.00000  Uiso   1.00
H1084  H     0.49122   0.41462   0.89006   0.00000  Uiso   1.00
H1085  H     0.43365   0.40399   0.89475   0.00000  Uiso   1.00
H1086  H     0.45399   0.37700   0.98257   0.00000  Uiso   1.00
H1087  H     0.46952   0.43777   0.97188   0.00000  Uiso   1.00
H1088  H     0.01131   0.39165   0.97728   0.00000  Uiso   1.00
H1089  H     0.21811   0.03563   0.75989   0.00000  Uiso   1.00
H1090  H     0.48311   0.20213   0.90394   0.00000  Uiso   1.00
H1091  H     0.03746   0.18657   0.93379   0.00000  Uiso   1.00
H1092  H     0.01808   0.09891   0.92153   0.00000  Uiso   1.00
H1093  H     0.48629   0.13038   0.96169   0.00000  Uiso   1.00
H1094  H     0.42407   0.13956   0.89411   0.00000  Uiso   1.00
H1095  H     0.43861   0.07792   0.90607   0.00000  Uiso   1.00
H1096  H     0.45602   0.10734   0.85319   0.00000  Uiso   1.00
H1097  H     0.08846   0.41059   0.89576   0.00000  Uiso   1.00
H1098  H     0.31640   0.13819   0.73559   0.00000  Uiso   1.00
H1099  H     0.34629   0.31595   0.72680   0.00000  Uiso   1.00
H1100  H     0.30143   0.46458   0.89319   0.00000  Uiso   1.00
H1101  H     0.15462   0.18832   0.94358   0.00000  Uiso   1.00
H1102  H     0.34320   0.18814   0.95078   0.00000  Uiso   1.00
H1103  H     0.16393   0.30912   0.71298   0.00000  Uiso   1.00
H1104  H     0.15416   0.18846   0.71584   0.00000  Uiso   1.00
H1105  H     0.34335   0.30904   0.95195   0.00000  Uiso   1.00
H1106  H     0.00375   0.35200   0.72587   0.00000  Uiso   1.00
N1107  N     0.25000   0.12935   0.83333   0.00000  Uiso   1.00
N1108  N     0.25000   0.37066   0.83333   0.00000  Uiso   1.00
O1109  O     0.18573   0.29072   0.83334   0.00000  Uiso   1.00
O1110  O     0.33882   0.08969   0.94486   0.00000  Uiso   1.00
O1111  O     0.33288   0.17673   0.91725   0.00000  Uiso   1.00
O1112  O     0.16096   0.40853   0.71933   0.00000  Uiso   1.00
O1113  O     0.22919   0.36777   0.70660   0.00000  Uiso   1.00
O1114  O     0.16963   0.32152   0.74690   0.00000  Uiso   1.00
O1115  O     0.22463   0.13601   0.70257   0.00000  Uiso   1.00
O1116  O     0.16094   0.09147   0.72216   0.00000  Uiso   1.00
O1117  O     0.16698   0.17838   0.74925   0.00000  Uiso   1.00
O1118  O     0.34184   0.40666   0.94465   0.00000  Uiso   1.00
O1119  O     0.27520   0.36546   0.96073   0.00000  Uiso   1.00
O1120  O     0.31427   0.20929   0.83333   0.00000  Uiso   1.00
O1121  O     0.33369   0.31992   0.91792   0.00000  Uiso   1.00
O1122  O     0.03203   0.33199   0.79425   0.00000  Uiso   1.00
O1123  O     0.46967   0.17744   0.77460   0.00000  Uiso   1.00
O1124  O     0.46970   0.33591   0.84350   0.00000  Uiso   1.00
O1125  O     0.02417   0.16951   0.85915   0.00000  Uiso   1.00
O1126  O     0.15338   0.34350   0.90023   0.00000  Uiso   1.00
O1127  O     0.12857   0.37788   0.81878   0.00000  Uiso   1.00
O1128  O     0.07464   0.38011   0.88430   0.00000  Uiso   1.00
O1129  O     0.40428   0.12027   0.76101   0.00000  Uiso   1.00
O1130  O     0.35919   0.12967   0.82750   0.00000  Uiso   1.00
O1131  O     0.31427   0.29072   0.83333   0.00000  Uiso   1.00
O1132  O     0.33171   0.16877   0.74341   0.00000  Uiso   1.00
O1133  O     0.36461   0.37735   0.83382   0.00000  Uiso   1.00
O1134  O     0.41165   0.37561   0.76817   0.00000  Uiso   1.00
O1135  O     0.33468   0.33626   0.75182   0.00000  Uiso   1.00
O1136  O     0.09354   0.12298   0.90399   0.00000  Uiso   1.00
O1137  O     0.13718   0.12793   0.83599   0.00000  Uiso   1.00
O1138  O     0.16661   0.16920   0.91791   0.00000  Uiso   1.00
O1139  O     0.18573   0.20929   0.83334   0.00000  Uiso   1.00
O1140  O     0.25000   0.29071   0.76280   0.00000  Uiso   1.00
O1141  O     0.25000   0.20929   0.90387   0.00000  Uiso   1.00
O1142  O     0.25000   0.29071   0.90387   0.00000  Uiso   1.00
O1143  O     0.25000   0.20929   0.76280   0.00000  Uiso   1.00
O1144  O     0.27495   0.13499   0.96385   0.00000  Uiso   1.00
S1145  S     0.30500   0.12657   0.92536   0.00000  Uiso   1.00
S1146  S     0.19541   0.37354   0.74165   0.00000  Uiso   1.00
S1147  S     0.19481   0.12784   0.74132   0.00000  Uiso   1.00
S1148  S     0.30723   0.37175   0.92383   0.00000  Uiso   1.00
S1149  S     0.11480   0.34969   0.86081   0.00000  Uiso   1.00
S1150  S     0.37536   0.15457   0.78467   0.00000  Uiso   1.00
S1151  S     0.37882   0.34761   0.79323   0.00000  Uiso   1.00
S1152  S     0.12221   0.15522   0.87794   0.00000  Uiso   1.00
C1153  C     0.66567   0.25008   0.83852   0.00000  Uiso   1.00
C1154  C     0.77818   0.44629   0.86717   0.00000  Uiso   1.00
C1155  C     0.74992   0.25006   0.74022   0.00000  Uiso   1.00
C1156  C     0.75020   0.24994   0.92646   0.00000  Uiso   1.00
C1157  C     0.74978   0.02705   0.83357   0.00000  Uiso   1.00
C1158  C     0.74969   0.47287   0.83366   0.00000  Uiso   1.00
C1159  C     0.75006   0.25009   0.68848   0.00000  Uiso   1.00
C1160  C     0.75014   0.24993   0.97821   0.00000  Uiso   1.00
C1161  C     0.54928   0.29206   0.81995   0.00000  Uiso   1.00
C1162  C     0.94978   0.21195   0.80045   0.00000  Uiso   1.00
C1163  C     0.94964   0.29344   0.82915   0.00000  Uiso   1.00
C1164  C     0.83404   0.24986   0.82760   0.00000  Uiso   1.00
C1165  C     0.54708   0.20983   0.84824   0.00000  Uiso   1.00
C1166  C     0.59364   0.29363   0.83942   0.00000  Uiso   1.00
C1167  C     0.90392   0.20828   0.80460   0.00000  Uiso   1.00
C1168  C     0.90377   0.29374   0.81800   0.00000  Uiso   1.00
C1169  C     0.59406   0.20838   0.85450   0.00000  Uiso   1.00
C1170  C     0.61781   0.25058   0.84581   0.00000  Uiso   1.00
C1171  C     0.88088   0.25007   0.81703   0.00000  Uiso   1.00
C1172  C     0.52399   0.25104   0.82771   0.00000  Uiso   1.00
C1173  C     0.97409   0.25226   0.81928   0.00000  Uiso   1.00
C1174  C     0.52298   0.32160   0.74372   0.00000  Uiso   1.00
C1175  C     0.77212   0.10313   0.87236   0.00000  Uiso   1.00
C1176  C     0.56557   0.31578   0.71919   0.00000  Uiso   1.00
C1177  C     0.55649   0.29135   0.66963   0.00000  Uiso   1.00
C1178  C     0.97348   0.19298   0.72584   0.00000  Uiso   1.00
C1179  C     0.93285   0.22084   0.69950   0.00000  Uiso   1.00
C1180  C     0.93666   0.23001   0.97902   0.00000  Uiso   1.00
C1181  C     0.97376   0.33991   0.89494   0.00000  Uiso   1.00
C1182  C     0.96792   0.39224   0.90822   0.00000  Uiso   1.00
C1183  C     0.97623   0.39993   0.96351   0.00000  Uiso   1.00
C1184  C     0.50988   0.17500   0.90584   0.00000  Uiso   1.00
C1185  C     0.99274   0.12729   0.92300   0.00000  Uiso   1.00
C1186  C     0.72341   0.39685   0.79758   0.00000  Uiso   1.00
C1187  C     0.95019   0.11220   0.89198   0.00000  Uiso   1.00
C1188  C     0.72780   0.10368   0.79438   0.00000  Uiso   1.00
C1189  C     0.77677   0.39613   0.86909   0.00000  Uiso   1.00
C1190  C     0.76875   0.05312   0.87379   0.00000  Uiso   1.00
C1191  C     0.72137   0.44693   0.80001   0.00000  Uiso   1.00
C1192  C     0.73099   0.05361   0.79318   0.00000  Uiso   1.00
Cu1193 Cu    0.75000   0.29822   0.83333   0.00000  Uiso   1.00
Cu1194 Cu    0.75000   0.20179   0.83333   0.00000  Uiso   1.00
H1195  H     0.78159   0.03479   0.90716   0.00000  Uiso   1.00
H1196  H     0.50108   0.29049   0.73723   0.00000  Uiso   1.00
H1197  H     0.58009   0.35150   0.71447   0.00000  Uiso   1.00
H1198  H     0.59028   0.29356   0.74209   0.00000  Uiso   1.00
H1199  H     0.55373   0.25226   0.67469   0.00000  Uiso   1.00
H1200  H     0.58385   0.29841   0.98065   0.00000  Uiso   1.00
H1201  H     0.52503   0.30480   0.98347   0.00000  Uiso   1.00
H1202  H     0.97808   0.16050   0.70421   0.00000  Uiso   1.00
H1203  H     0.50436   0.21359   0.72563   0.00000  Uiso   1.00
H1204  H     0.90213   0.20032   0.70143   0.00000  Uiso   1.00
H1205  H     0.92935   0.25595   0.71719   0.00000  Uiso   1.00
H1206  H     0.69805   0.46565   0.77398   0.00000  Uiso   1.00
H1207  H     0.96924   0.24571   0.97455   0.00000  Uiso   1.00
H1208  H     0.91020   0.25513   0.96354   0.00000  Uiso   1.00
H1209  H     0.93204   0.19612   0.95868   0.00000  Uiso   1.00
H1210  H     0.50762   0.32794   0.90914   0.00000  Uiso   1.00
H1211  H     0.94916   0.31840   0.91255   0.00000  Uiso   1.00
H1212  H     0.99122   0.41462   0.89006   0.00000  Uiso   1.00
H1213  H     0.93365   0.40399   0.89475   0.00000  Uiso   1.00
H1214  H     0.95399   0.37700   0.98257   0.00000  Uiso   1.00
H1215  H     0.96952   0.43777   0.97188   0.00000  Uiso   1.00
H1216  H     0.51131   0.39165   0.97728   0.00000  Uiso   1.00
H1217  H     0.71811   0.03563   0.75989   0.00000  Uiso   1.00
H1218  H     0.98311   0.20213   0.90394   0.00000  Uiso   1.00
H1219  H     0.53746   0.18657   0.93379   0.00000  Uiso   1.00
H1220  H     0.51808   0.09891   0.92153   0.00000  Uiso   1.00
H1221  H     0.98629   0.13038   0.96169   0.00000  Uiso   1.00
H1222  H     0.92407   0.13956   0.89411   0.00000  Uiso   1.00
H1223  H     0.93861   0.07792   0.90607   0.00000  Uiso   1.00
H1224  H     0.95602   0.10734   0.85319   0.00000  Uiso   1.00
H1225  H     0.58846   0.41059   0.89576   0.00000  Uiso   1.00
H1226  H     0.81640   0.13819   0.73559   0.00000  Uiso   1.00
H1227  H     0.84629   0.31595   0.72680   0.00000  Uiso   1.00
H1228  H     0.80143   0.46458   0.89319   0.00000  Uiso   1.00
H1229  H     0.65462   0.18832   0.94358   0.00000  Uiso   1.00
H1230  H     0.84320   0.18814   0.95078   0.00000  Uiso   1.00
H1231  H     0.66393   0.30912   0.71298   0.00000  Uiso   1.00
H1232  H     0.65416   0.18846   0.71584   0.00000  Uiso   1.00
H1233  H     0.84335   0.30904   0.95195   0.00000  Uiso   1.00
H1234  H     0.50375   0.35200   0.72587   0.00000  Uiso   1.00
N1235  N     0.75000   0.12935   0.83333   0.00000  Uiso   1.00
N1236  N     0.75000   0.37066   0.83333   0.00000  Uiso   1.00
O1237  O     0.68573   0.29072   0.83334   0.00000  Uiso   1.00
O1238  O     0.83882   0.08969   0.94486   0.00000  Uiso   1.00
O1239  O     0.83288   0.17673   0.91725   0.00000  Uiso   1.00
O1240  O     0.66096   0.40853   0.71933   0.00000  Uiso   1.00
O1241  O     0.72919   0.36777   0.70660   0.00000  Uiso   1.00
O1242  O     0.66963   0.32152   0.74690   0.00000  Uiso   1.00
O1243  O     0.72463   0.13601   0.70257   0.00000  Uiso   1.00
O1244  O     0.66094   0.09147   0.72216   0.00000  Uiso   1.00
O1245  O     0.66698   0.17838   0.74925   0.00000  Uiso   1.00
O1246  O     0.84184   0.40666   0.94465   0.00000  Uiso   1.00
O1247  O     0.77520   0.36546   0.96073   0.00000  Uiso   1.00
O1248  O     0.81427   0.20929   0.83333   0.00000  Uiso   1.00
O1249  O     0.83369   0.31992   0.91792   0.00000  Uiso   1.00
O1250  O     0.53203   0.33199   0.79425   0.00000  Uiso   1.00
O1251  O     0.96967   0.17744   0.77460   0.00000  Uiso   1.00
O1252  O     0.96970   0.33591   0.84350   0.00000  Uiso   1.00
O1253  O     0.52417   0.16951   0.85915   0.00000  Uiso   1.00
O1254  O     0.65338   0.34350   0.90023   0.00000  Uiso   1.00
O1255  O     0.62857   0.37788   0.81878   0.00000  Uiso   1.00
O1256  O     0.57464   0.38011   0.88430   0.00000  Uiso   1.00
O1257  O     0.90428   0.12027   0.76101   0.00000  Uiso   1.00
O1258  O     0.85919   0.12967   0.82750   0.00000  Uiso   1.00
O1259  O     0.81427   0.29072   0.83333   0.00000  Uiso   1.00
O1260  O     0.83171   0.16877   0.74341   0.00000  Uiso   1.00
O1261  O     0.86461   0.37735   0.83382   0.00000  Uiso   1.00
O1262  O     0.91165   0.37561   0.76817   0.00000  Uiso   1.00
O1263  O     0.83468   0.33626   0.75182   0.00000  Uiso   1.00
O1264  O     0.59354   0.12298   0.90399   0.00000  Uiso   1.00
O1265  O     0.63718   0.12793   0.83599   0.00000  Uiso   1.00
O1266  O     0.66661   0.16920   0.91791   0.00000  Uiso   1.00
O1267  O     0.68573   0.20929   0.83334   0.00000  Uiso   1.00
O1268  O     0.75000   0.29071   0.76280   0.00000  Uiso   1.00
O1269  O     0.75000   0.20929   0.90387   0.00000  Uiso   1.00
O1270  O     0.75000   0.29071   0.90387   0.00000  Uiso   1.00
O1271  O     0.75000   0.20929   0.76280   0.00000  Uiso   1.00
O1272  O     0.77495   0.13499   0.96385   0.00000  Uiso   1.00
S1273  S     0.80500   0.12657   0.92536   0.00000  Uiso   1.00
S1274  S     0.69541   0.37354   0.74165   0.00000  Uiso   1.00
S1275  S     0.69481   0.12784   0.74132   0.00000  Uiso   1.00
S1276  S     0.80723   0.37175   0.92383   0.00000  Uiso   1.00
S1277  S     0.61480   0.34969   0.86081   0.00000  Uiso   1.00
S1278  S     0.87536   0.15457   0.78467   0.00000  Uiso   1.00
S1279  S     0.87882   0.34761   0.79323   0.00000  Uiso   1.00
S1280  S     0.62221   0.15522   0.87794   0.00000  Uiso   1.00
C1281  C     0.16567   0.75008   0.83852   0.00000  Uiso   1.00
C1282  C     0.27818   0.94629   0.86717   0.00000  Uiso   1.00
C1283  C     0.24992   0.75006   0.74022   0.00000  Uiso   1.00
C1284  C     0.25020   0.74994   0.92646   0.00000  Uiso   1.00
C1285  C     0.24978   0.52705   0.83357   0.00000  Uiso   1.00
C1286  C     0.24969   0.97287   0.83366   0.00000  Uiso   1.00
C1287  C     0.25006   0.75009   0.68848   0.00000  Uiso   1.00
C1288  C     0.25014   0.74993   0.97821   0.00000  Uiso   1.00
C1289  C     0.04928   0.79206   0.81995   0.00000  Uiso   1.00
C1290  C     0.44978   0.71195   0.80045   0.00000  Uiso   1.00
C1291  C     0.44964   0.79344   0.82915   0.00000  Uiso   1.00
C1292  C     0.33404   0.74986   0.82760   0.00000  Uiso   1.00
C1293  C     0.04708   0.70983   0.84824   0.00000  Uiso   1.00
C1294  C     0.09364   0.79363   0.83942   0.00000  Uiso   1.00
C1295  C     0.40392   0.70828   0.80460   0.00000  Uiso   1.00
C1296  C     0.40377   0.79374   0.81800   0.00000  Uiso   1.00
C1297  C     0.09406   0.70838   0.85450   0.00000  Uiso   1.00
C1298  C     0.11781   0.75058   0.84581   0.00000  Uiso   1.00
C1299  C     0.38088   0.75007   0.81703   0.00000  Uiso   1.00
C1300  C     0.02399   0.75104   0.82771   0.00000  Uiso   1.00
C1301  C     0.47409   0.75226   0.81928   0.00000  Uiso   1.00
C1302  C     0.02298   0.82160   0.74372   0.00000  Uiso   1.00
C1303  C     0.27212   0.60313   0.87236   0.00000  Uiso   1.00
C1304  C     0.06557   0.81578   0.71919   0.00000  Uiso   1.00
C1305  C     0.05649   0.79135   0.66963   0.00000  Uiso   1.00
C1306  C     0.47348   0.69298   0.72584   0.00000  Uiso   1.00
C1307  C     0.43285   0.72084   0.69950   0.00000  Uiso   1.00
C1308  C     0.43666   0.73001   0.97902   0.00000  Uiso   1.00
C1309  C     0.47376   0.83991   0.89494   0.00000  Uiso   1.00
C1310  C     0.46792   0.89224   0.90822   0.00000  Uiso   1.00
C1311  C     0.47623   0.89993   0.96351   0.00000  Uiso   1.00
C1312  C     0.00988   0.67500   0.90584   0.00000  Uiso   1.00
C1313  C     0.49274   0.62729   0.92300   0.00000  Uiso   1.00
C1314  C     0.22341   0.89685   0.79758   0.00000  Uiso   1.00
C1315  C     0.45019   0.61220   0.89198   0.00000  Uiso   1.00
C1316  C     0.22780   0.60368   0.79438   0.00000  Uiso   1.00
C1317  C     0.27677   0.89613   0.86909   0.00000  Uiso   1.00
C1318  C     0.26875   0.55312   0.87379   0.00000  Uiso   1.00
C1319  C     0.22137   0.94693   0.80001   0.00000  Uiso   1.00
C1320  C     0.23099   0.55361   0.79318   0.00000  Uiso   1.00
Cu1321 Cu    0.25000   0.79822   0.83333   0.00000  Uiso   1.00
Cu1322 Cu    0.25000   0.70179   0.83333   0.00000  Uiso   1.00
H1323  H     0.28159   0.53479   0.90716   0.00000  Uiso   1.00
H1324  H     0.00108   0.79049   0.73723   0.00000  Uiso   1.00
H1325  H     0.08009   0.85150   0.71447   0.00000  Uiso   1.00
H1326  H     0.09028   0.79356   0.74209   0.00000  Uiso   1.00
H1327  H     0.05373   0.75226   0.67469   0.00000  Uiso   1.00
H1328  H     0.08385   0.79841   0.98065   0.00000  Uiso   1.00
H1329  H     0.02503   0.80480   0.98347   0.00000  Uiso   1.00
H1330  H     0.47808   0.66050   0.70421   0.00000  Uiso   1.00
H1331  H     0.00436   0.71359   0.72563   0.00000  Uiso   1.00
H1332  H     0.40213   0.70032   0.70143   0.00000  Uiso   1.00
H1333  H     0.42935   0.75595   0.71719   0.00000  Uiso   1.00
H1334  H     0.19805   0.96565   0.77398   0.00000  Uiso   1.00
H1335  H     0.46924   0.74571   0.97455   0.00000  Uiso   1.00
H1336  H     0.41020   0.75513   0.96354   0.00000  Uiso   1.00
H1337  H     0.43204   0.69612   0.95868   0.00000  Uiso   1.00
H1338  H     0.00762   0.82794   0.90914   0.00000  Uiso   1.00
H1339  H     0.44916   0.81840   0.91255   0.00000  Uiso   1.00
H1340  H     0.49122   0.91462   0.89006   0.00000  Uiso   1.00
H1341  H     0.43365   0.90399   0.89475   0.00000  Uiso   1.00
H1342  H     0.45399   0.87700   0.98257   0.00000  Uiso   1.00
H1343  H     0.46952   0.93777   0.97188   0.00000  Uiso   1.00
H1344  H     0.01131   0.89165   0.97728   0.00000  Uiso   1.00
H1345  H     0.21811   0.53563   0.75989   0.00000  Uiso   1.00
H1346  H     0.48311   0.70213   0.90394   0.00000  Uiso   1.00
H1347  H     0.03746   0.68657   0.93379   0.00000  Uiso   1.00
H1348  H     0.01808   0.59891   0.92153   0.00000  Uiso   1.00
H1349  H     0.48629   0.63038   0.96169   0.00000  Uiso   1.00
H1350  H     0.42407   0.63956   0.89411   0.00000  Uiso   1.00
H1351  H     0.43861   0.57792   0.90607   0.00000  Uiso   1.00
H1352  H     0.45602   0.60734   0.85319   0.00000  Uiso   1.00
H1353  H     0.08846   0.91059   0.89576   0.00000  Uiso   1.00
H1354  H     0.31640   0.63819   0.73559   0.00000  Uiso   1.00
H1355  H     0.34629   0.81595   0.72680   0.00000  Uiso   1.00
H1356  H     0.30143   0.96458   0.89319   0.00000  Uiso   1.00
H1357  H     0.15462   0.68832   0.94358   0.00000  Uiso   1.00
H1358  H     0.34320   0.68814   0.95078   0.00000  Uiso   1.00
H1359  H     0.16393   0.80912   0.71298   0.00000  Uiso   1.00
H1360  H     0.15416   0.68846   0.71584   0.00000  Uiso   1.00
H1361  H     0.34335   0.80904   0.95195   0.00000  Uiso   1.00
H1362  H     0.00375   0.85200   0.72587   0.00000  Uiso   1.00
N1363  N     0.25000   0.62935   0.83333   0.00000  Uiso   1.00
N1364  N     0.25000   0.87066   0.83333   0.00000  Uiso   1.00
O1365  O     0.18573   0.79072   0.83334   0.00000  Uiso   1.00
O1366  O     0.33882   0.58969   0.94486   0.00000  Uiso   1.00
O1367  O     0.33288   0.67673   0.91725   0.00000  Uiso   1.00
O1368  O     0.16096   0.90853   0.71933   0.00000  Uiso   1.00
O1369  O     0.22919   0.86777   0.70660   0.00000  Uiso   1.00
O1370  O     0.16963   0.82152   0.74690   0.00000  Uiso   1.00
O1371  O     0.22463   0.63601   0.70257   0.00000  Uiso   1.00
O1372  O     0.16094   0.59147   0.72216   0.00000  Uiso   1.00
O1373  O     0.16698   0.67838   0.74925   0.00000  Uiso   1.00
O1374  O     0.34184   0.90666   0.94465   0.00000  Uiso   1.00
O1375  O     0.27520   0.86546   0.96073   0.00000  Uiso   1.00
O1376  O     0.31427   0.70929   0.83333   0.00000  Uiso   1.00
O1377  O     0.33369   0.81992   0.91792   0.00000  Uiso   1.00
O1378  O     0.03203   0.83199   0.79425   0.00000  Uiso   1.00
O1379  O     0.46967   0.67744   0.77460   0.00000  Uiso   1.00
O1380  O     0.46970   0.83591   0.84350   0.00000  Uiso   1.00
O1381  O     0.02417   0.66951   0.85915   0.00000  Uiso   1.00
O1382  O     0.15338   0.84350   0.90023   0.00000  Uiso   1.00
O1383  O     0.12857   0.87788   0.81878   0.00000  Uiso   1.00
O1384  O     0.07464   0.88011   0.88430   0.00000  Uiso   1.00
O1385  O     0.40428   0.62027   0.76101   0.00000  Uiso   1.00
O1386  O     0.35919   0.62967   0.82750   0.00000  Uiso   1.00
O1387  O     0.31427   0.79072   0.83333   0.00000  Uiso   1.00
O1388  O     0.33171   0.66877   0.74341   0.00000  Uiso   1.00
O1389  O     0.36461   0.87735   0.83382   0.00000  Uiso   1.00
O1390  O     0.41165   0.87561   0.76817   0.00000  Uiso   1.00
O1391  O     0.33468   0.83626   0.75182   0.00000  Uiso   1.00
O1392  O     0.09354   0.62298   0.90399   0.00000  Uiso   1.00
O1393  O     0.13718   0.62793   0.83599   0.00000  Uiso   1.00
O1394  O     0.16661   0.66920   0.91791   0.00000  Uiso   1.00
O1395  O     0.18573   0.70929   0.83334   0.00000  Uiso   1.00
O1396  O     0.25000   0.79071   0.76280   0.00000  Uiso   1.00
O1397  O     0.25000   0.70929   0.90387   0.00000  Uiso   1.00
O1398  O     0.25000   0.79071   0.90387   0.00000  Uiso   1.00
O1399  O     0.25000   0.70929   0.76280   0.00000  Uiso   1.00
O1400  O     0.27495   0.63499   0.96385   0.00000  Uiso   1.00
S1401  S     0.30500   0.62657   0.92536   0.00000  Uiso   1.00
S1402  S     0.19541   0.87354   0.74165   0.00000  Uiso   1.00
S1403  S     0.19481   0.62784   0.74132   0.00000  Uiso   1.00
S1404  S     0.30723   0.87175   0.92383   0.00000  Uiso   1.00
S1405  S     0.11480   0.84969   0.86081   0.00000  Uiso   1.00
S1406  S     0.37536   0.65457   0.78467   0.00000  Uiso   1.00
S1407  S     0.37882   0.84761   0.79323   0.00000  Uiso   1.00
S1408  S     0.12221   0.65522   0.87794   0.00000  Uiso   1.00
C1409  C     0.66567   0.75008   0.83852   0.00000  Uiso   1.00
C1410  C     0.77818   0.94629   0.86717   0.00000  Uiso   1.00
C1411  C     0.74992   0.75006   0.74022   0.00000  Uiso   1.00
C1412  C     0.75020   0.74994   0.92646   0.00000  Uiso   1.00
C1413  C     0.74978   0.52705   0.83357   0.00000  Uiso   1.00
C1414  C     0.74969   0.97287   0.83366   0.00000  Uiso   1.00
C1415  C     0.75006   0.75009   0.68848   0.00000  Uiso   1.00
C1416  C     0.75014   0.74993   0.97821   0.00000  Uiso   1.00
C1417  C     0.54928   0.79206   0.81995   0.00000  Uiso   1.00
C1418  C     0.94978   0.71195   0.80045   0.00000  Uiso   1.00
C1419  C     0.94964   0.79344   0.82915   0.00000  Uiso   1.00
C1420  C     0.83404   0.74986   0.82760   0.00000  Uiso   1.00
C1421  C     0.54708   0.70983   0.84824   0.00000  Uiso   1.00
C1422  C     0.59364   0.79363   0.83942   0.00000  Uiso   1.00
C1423  C     0.90392   0.70828   0.80460   0.00000  Uiso   1.00
C1424  C     0.90377   0.79374   0.81800   0.00000  Uiso   1.00
C1425  C     0.59406   0.70838   0.85450   0.00000  Uiso   1.00
C1426  C     0.61781   0.75058   0.84581   0.00000  Uiso   1.00
C1427  C     0.88088   0.75007   0.81703   0.00000  Uiso   1.00
C1428  C     0.52399   0.75104   0.82771   0.00000  Uiso   1.00
C1429  C     0.97409   0.75226   0.81928   0.00000  Uiso   1.00
C1430  C     0.52298   0.82160   0.74372   0.00000  Uiso   1.00
C1431  C     0.77212   0.60313   0.87236   0.00000  Uiso   1.00
C1432  C     0.56557   0.81578   0.71919   0.00000  Uiso   1.00
C1433  C     0.55649   0.79135   0.66963   0.00000  Uiso   1.00
C1434  C     0.97348   0.69298   0.72584   0.00000  Uiso   1.00
C1435  C     0.93285   0.72084   0.69950   0.00000  Uiso   1.00
C1436  C     0.93666   0.73001   0.97902   0.00000  Uiso   1.00
C1437  C     0.97376   0.83991   0.89494   0.00000  Uiso   1.00
C1438  C     0.96792   0.89224   0.90822   0.00000  Uiso   1.00
C1439  C     0.97623   0.89993   0.96351   0.00000  Uiso   1.00
C1440  C     0.50988   0.67500   0.90584   0.00000  Uiso   1.00
C1441  C     0.99274   0.62729   0.92300   0.00000  Uiso   1.00
C1442  C     0.72341   0.89685   0.79758   0.00000  Uiso   1.00
C1443  C     0.95019   0.61220   0.89198   0.00000  Uiso   1.00
C1444  C     0.72780   0.60368   0.79438   0.00000  Uiso   1.00
C1445  C     0.77677   0.89613   0.86909   0.00000  Uiso   1.00
C1446  C     0.76875   0.55312   0.87379   0.00000  Uiso   1.00
C1447  C     0.72137   0.94693   0.80001   0.00000  Uiso   1.00
C1448  C     0.73099   0.55361   0.79318   0.00000  Uiso   1.00
Cu1449 Cu    0.75000   0.79822   0.83333   0.00000  Uiso   1.00
Cu1450 Cu    0.75000   0.70179   0.83333   0.00000  Uiso   1.00
H1451  H     0.78159   0.53479   0.90716   0.00000  Uiso   1.00
H1452  H     0.50108   0.79049   0.73723   0.00000  Uiso   1.00
H1453  H     0.58009   0.85150   0.71447   0.00000  Uiso   1.00
H1454  H     0.59028   0.79356   0.74209   0.00000  Uiso   1.00
H1455  H     0.55373   0.75226   0.67469   0.00000  Uiso   1.00
H1456  H     0.58385   0.79841   0.98065   0.00000  Uiso   1.00
H1457  H     0.52503   0.80480   0.98347   0.00000  Uiso   1.00
H1458  H     0.97808   0.66050   0.70421   0.00000  Uiso   1.00
H1459  H     0.50436   0.71359   0.72563   0.00000  Uiso   1.00
H1460  H     0.90213   0.70032   0.70143   0.00000  Uiso   1.00
H1461  H     0.92935   0.75595   0.71719   0.00000  Uiso   1.00
H1462  H     0.69805   0.96565   0.77398   0.00000  Uiso   1.00
H1463  H     0.96924   0.74571   0.97455   0.00000  Uiso   1.00
H1464  H     0.91020   0.75513   0.96354   0.00000  Uiso   1.00
H1465  H     0.93204   0.69612   0.95868   0.00000  Uiso   1.00
H1466  H     0.50762   0.82794   0.90914   0.00000  Uiso   1.00
H1467  H     0.94916   0.81840   0.91255   0.00000  Uiso   1.00
H1468  H     0.99122   0.91462   0.89006   0.00000  Uiso   1.00
H1469  H     0.93365   0.90399   0.89475   0.00000  Uiso   1.00
H1470  H     0.95399   0.87700   0.98257   0.00000  Uiso   1.00
H1471  H     0.96952   0.93777   0.97188   0.00000  Uiso   1.00
H1472  H     0.51131   0.89165   0.97728   0.00000  Uiso   1.00
H1473  H     0.71811   0.53563   0.75989   0.00000  Uiso   1.00
H1474  H     0.98311   0.70213   0.90394   0.00000  Uiso   1.00
H1475  H     0.53746   0.68657   0.93379   0.00000  Uiso   1.00
H1476  H     0.51808   0.59891   0.92153   0.00000  Uiso   1.00
H1477  H     0.98629   0.63038   0.96169   0.00000  Uiso   1.00
H1478  H     0.92407   0.63956   0.89411   0.00000  Uiso   1.00
H1479  H     0.93861   0.57792   0.90607   0.00000  Uiso   1.00
H1480  H     0.95602   0.60734   0.85319   0.00000  Uiso   1.00
H1481  H     0.58846   0.91059   0.89576   0.00000  Uiso   1.00
H1482  H     0.81640   0.63819   0.73559   0.00000  Uiso   1.00
H1483  H     0.84629   0.81595   0.72680   0.00000  Uiso   1.00
H1484  H     0.80143   0.96458   0.89319   0.00000  Uiso   1.00
H1485  H     0.65462   0.68832   0.94358   0.00000  Uiso   1.00
H1486  H     0.84320   0.68814   0.95078   0.00000  Uiso   1.00
H1487  H     0.66393   0.80912   0.71298   0.00000  Uiso   1.00
H1488  H     0.65416   0.68846   0.71584   0.00000  Uiso   1.00
H1489  H     0.84335   0.80904   0.95195   0.00000  Uiso   1.00
H1490  H     0.50375   0.85200   0.72587   0.00000  Uiso   1.00
N1491  N     0.75000   0.62935   0.83333   0.00000  Uiso   1.00
N1492  N     0.75000   0.87066   0.83333   0.00000  Uiso   1.00
O1493  O     0.68573   0.79072   0.83334   0.00000  Uiso   1.00
O1494  O     0.83882   0.58969   0.94486   0.00000  Uiso   1.00
O1495  O     0.83288   0.67673   0.91725   0.00000  Uiso   1.00
O1496  O     0.66096   0.90853   0.71933   0.00000  Uiso   1.00
O1497  O     0.72919   0.86777   0.70660   0.00000  Uiso   1.00
O1498  O     0.66963   0.82152   0.74690   0.00000  Uiso   1.00
O1499  O     0.72463   0.63601   0.70257   0.00000  Uiso   1.00
O1500  O     0.66094   0.59147   0.72216   0.00000  Uiso   1.00
O1501  O     0.66698   0.67838   0.74925   0.00000  Uiso   1.00
O1502  O     0.84184   0.90666   0.94465   0.00000  Uiso   1.00
O1503  O     0.77520   0.86546   0.96073   0.00000  Uiso   1.00
O1504  O     0.81427   0.70929   0.83333   0.00000  Uiso   1.00
O1505  O     0.83369   0.81992   0.91792   0.00000  Uiso   1.00
O1506  O     0.53203   0.83199   0.79425   0.00000  Uiso   1.00
O1507  O     0.96967   0.67744   0.77460   0.00000  Uiso   1.00
O1508  O     0.96970   0.83591   0.84350   0.00000  Uiso   1.00
O1509  O     0.52417   0.66951   0.85915   0.00000  Uiso   1.00
O1510  O     0.65338   0.84350   0.90023   0.00000  Uiso   1.00
O1511  O     0.62857   0.87788   0.81878   0.00000  Uiso   1.00
O1512  O     0.57464   0.88011   0.88430   0.00000  Uiso   1.00
O1513  O     0.90428   0.62027   0.76101   0.00000  Uiso   1.00
O1514  O     0.85919   0.62967   0.82750   0.00000  Uiso   1.00
O1515  O     0.81427   0.79072   0.83333   0.00000  Uiso   1.00
O1516  O     0.83171   0.66877   0.74341   0.00000  Uiso   1.00
O1517  O     0.86461   0.87735   0.83382   0.00000  Uiso   1.00
O1518  O     0.91165   0.87561   0.76817   0.00000  Uiso   1.00
O1519  O     0.83468   0.83626   0.75182   0.00000  Uiso   1.00
O1520  O     0.59354   0.62298   0.90399   0.00000  Uiso   1.00
O1521  O     0.63718   0.62793   0.83599   0.00000  Uiso   1.00
O1522  O     0.66661   0.66920   0.91791   0.00000  Uiso   1.00
O1523  O     0.68573   0.70929   0.83334   0.00000  Uiso   1.00
O1524  O     0.75000   0.79071   0.76280   0.00000  Uiso   1.00
O1525  O     0.75000   0.70929   0.90387   0.00000  Uiso   1.00
O1526  O     0.75000   0.79071   0.90387   0.00000  Uiso   1.00
O1527  O     0.75000   0.70929   0.76280   0.00000  Uiso   1.00
O1528  O     0.77495   0.63499   0.96385   0.00000  Uiso   1.00
S1529  S     0.80500   0.62657   0.92536   0.00000  Uiso   1.00
S1530  S     0.69541   0.87354   0.74165   0.00000  Uiso   1.00
S1531  S     0.69481   0.62784   0.74132   0.00000  Uiso   1.00
S1532  S     0.80723   0.87175   0.92383   0.00000  Uiso   1.00
S1533  S     0.61480   0.84969   0.86081   0.00000  Uiso   1.00
S1534  S     0.87536   0.65457   0.78467   0.00000  Uiso   1.00
S1535  S     0.87882   0.84761   0.79323   0.00000  Uiso   1.00
S1536  S     0.62221   0.65522   0.87794   0.00000  Uiso   1.00
loop_
_geom_bond_atom_site_label_1
_geom_bond_atom_site_label_2
_geom_bond_distance
_geom_bond_site_symmetry_2
_ccdc_geom_bond_type
C1     C18     1.494   .     S
C1     O85     1.312   .     A
C1     O115    1.310   .     A
C2     C6      1.394   .     A
C2     H76     1.076   .     S
C2     C37     1.409   .     A
C3     C7      1.421   .     S
C3     O119    1.299   .     A
C3     O116    1.300   .     A
C4     C8      1.421   .     S
C4     O118    1.298   .     A
C4     O117    1.300   .     A
C5     C38     1.394   .     A
C5     C40     1.394   .     A
C5     C262    1.520   1_545 S
C6     C39     1.394   .     A
C6     C261    1.520   .     S
C7     C1032   1.197   1_554 S
C8     C519    1.197   .     S
C9     O98     1.387   .     S
C9     C14     1.390   .     A
C9     C20     1.418   .     A
C10    C15     1.418   .     A
C10    C21     1.419   .     A
C10    O99     1.383   .     S
C11    C21     1.416   .     A
C11    O100    1.379   .     S
C11    C16     1.391   .     A
C12    O107    1.310   .     A
C12    C19     1.489   .     S
C12    O96     1.308   .     A
C13    C20     1.427   .     A
C13    O101    1.383   .     S
C13    C17     1.419   .     A
C14    C18     1.409   .     A
C14    S125    1.777   .     S
C15    C19     1.427   .     A
C15    S126    1.797   .     S
C16    C19     1.412   .     A
C16    S127    1.782   .     S
C17    C18     1.425   .     A
C17    S128    1.792   .     S
C20    C149    1.507   1_455 S
C21    C148    1.507   .     S
C22    O98     1.413   .     S
C22    H82     1.109   .     S
C22    H44     1.103   .     S
C22    C24     1.540   .     S
C23    S121    1.791   .     S
C23    N83     1.397   .     A
C23    C38     1.408   .     A
C24    H45     1.111   .     S
C24    C25     1.521   .     S
C24    H46     1.106   .     S
C25    H47     1.110   .     S
C25    H1072   1.111   1_554 S
C25    H1073   1.101   1_554 S
C26    H50     1.107   .     S
C26    O99     1.425   .     S
C26    C27     1.557   .     S
C26    H179    1.106   .     S
C27    H52     1.107   .     S
C27    H53     1.111   .     S
C27    C1052   1.517   1_554 S
C28    H56     1.110   .     S
C28    H57     1.106   .     S
C28    H55     1.107   .     S
C28    C539    1.517   .     S
C29    H59     1.118   .     S
C29    C30     1.529   .     S
C29    O100    1.408   .     S
C29    H186    1.105   .     S
C30    C31     1.524   .     S
C30    H60     1.111   .     S
C30    H61     1.110   .     S
C31    H62     1.111   .     S
C31    H63     1.110   .     S
C31    H192    1.110   .     S
C32    H67     1.116   .     S
C32    O101    1.412   .     S
C32    C161    1.533   1_455 S
C32    H194    1.108   1_455 S
C33    H69     1.107   .     S
C33    C35     1.522   .     S
C33    C160    1.533   .     S
C33    H196    1.109   .     S
C34    S122    1.790   .     S
C34    N84     1.396   .     A
C34    C39     1.408   .     A
C35    H70     1.108   .     S
C35    H71     1.110   .     S
C35    H72     1.110   .     S
C36    N83     1.397   .     A
C36    C40     1.408   .     A
C36    S123    1.792   .     S
C37    N84     1.398   .     A
C37    S124    1.796   .     S
C38    H43     1.078   .     S
C39    H54     1.076   .     S
C40    H65     1.078   .     S
Cu41   Cu42    2.706   .     S
Cu41   O118    1.947   .     S
Cu41   N84     2.032   .     S
Cu41   O116    1.949   .     S
Cu41   O107    1.965   .     S
Cu41   O85     1.968   .     S
Cu42   O96     1.968   .     S
Cu42   O119    1.947   .     S
Cu42   N83     2.032   .     S
Cu42   O117    1.949   .     S
Cu42   O115    1.965   .     S
H48    C537    1.111   .     S
H49    C537    1.101   .     S
H51    C154    1.106   1_455 S
H58    C157    1.105   1_455 S
H64    C159    1.110   1_455 S
H66    C160    1.108   .     S
H68    C161    1.109   1_455 S
H73    O104    0.990   .     S
H74    O108    0.990   .     S
H75    O111    0.991   .     S
H77    O114    0.991   .     S
H78    O87     0.991   .     S
H79    O90     0.991   .     S
H80    O93     0.991   .     S
H81    O97     0.991   .     S
O86    S121    1.504   .     D
O87    S121    1.676   .     S
O88    S122    1.504   .     D
O89    S122    1.501   .     D
O90    S122    1.675   .     S
O91    S123    1.498   .     D
O92    S123    1.504   .     D
O93    S123    1.676   .     S
O94    S124    1.504   .     D
O95    S124    1.500   .     D
O97    S124    1.676   .     S
O102   S125    1.504   .     D
O103   S125    1.499   .     D
O104   S125    1.680   .     S
O105   S126    1.503   .     D
O106   S126    1.501   .     D
O108   S126    1.681   .     S
O109   S127    1.499   .     D
O110   S127    1.504   .     D
O111   S127    1.682   .     S
O112   S128    1.499   .     D
O113   S128    1.501   .     D
O114   S128    1.681   .     S
O120   S121    1.499   .     D
C129   C146    1.494   .     S
C129   O213    1.312   .     A
C129   O243    1.310   .     A
C130   C134    1.394   .     A
C130   H204    1.076   .     S
C130   C165    1.409   .     A
C131   C135    1.421   .     S
C131   O247    1.299   .     A
C131   O244    1.300   .     A
C132   C136    1.421   .     S
C132   O246    1.298   .     A
C132   O245    1.300   .     A
C133   C166    1.394   .     A
C133   C168    1.394   .     A
C133   C390    1.520   1_545 S
C134   C167    1.394   .     A
C134   C389    1.520   .     S
C135   C1160   1.197   1_554 S
C136   C647    1.197   .     S
C137   O226    1.387   .     S
C137   C142    1.390   .     A
C137   C148    1.418   .     A
C138   C143    1.418   .     A
C138   C149    1.419   .     A
C138   O227    1.383   .     S
C139   C149    1.416   .     A
C139   O228    1.379   .     S
C139   C144    1.391   .     A
C140   O235    1.310   .     A
C140   C147    1.489   .     S
C140   O224    1.308   .     A
C141   C148    1.427   .     A
C141   O229    1.383   .     S
C141   C145    1.419   .     A
C142   C146    1.409   .     A
C142   S253    1.777   .     S
C143   C147    1.427   .     A
C143   S254    1.797   .     S
C144   C147    1.412   .     A
C144   S255    1.782   .     S
C145   C146    1.425   .     A
C145   S256    1.792   .     S
C149   C20     1.507   1_655 S
C150   O226    1.413   .     S
C150   H210    1.109   .     S
C150   H172    1.103   .     S
C150   C152    1.540   .     S
C151   S249    1.791   .     S
C151   N211    1.397   .     A
C151   C166    1.408   .     A
C152   H173    1.111   .     S
C152   C153    1.521   .     S
C152   H174    1.106   .     S
C153   H175    1.110   .     S
C153   H1200   1.111   1_554 S
C153   H1201   1.101   1_554 S
C154   H178    1.107   .     S
C154   O227    1.425   .     S
C154   C155    1.557   .     S
C154   H51     1.106   1_655 S
C155   H180    1.107   .     S
C155   H181    1.111   .     S
C155   C1180   1.517   1_554 S
C156   H184    1.110   .     S
C156   H185    1.106   .     S
C156   H183    1.107   .     S
C156   C667    1.517   .     S
C157   H187    1.118   .     S
C157   C158    1.529   .     S
C157   O228    1.408   .     S
C157   H58     1.105   1_655 S
C158   C159    1.524   .     S
C158   H188    1.111   .     S
C158   H189    1.110   .     S
C159   H190    1.111   .     S
C159   H191    1.110   .     S
C159   H64     1.110   1_655 S
C160   H195    1.116   .     S
C160   O229    1.412   .     S
C161   H197    1.107   .     S
C161   C163    1.522   .     S
C161   C32     1.533   1_655 S
C161   H68     1.109   1_655 S
C162   S250    1.790   .     S
C162   N212    1.396   .     A
C162   C167    1.408   .     A
C163   H198    1.108   .     S
C163   H199    1.110   .     S
C163   H200    1.110   .     S
C164   N211    1.397   .     A
C164   C168    1.408   .     A
C164   S251    1.792   .     S
C165   N212    1.398   .     A
C165   S252    1.796   .     S
C166   H171    1.078   .     S
C167   H182    1.076   .     S
C168   H193    1.078   .     S
Cu169  Cu170   2.706   .     S
Cu169  O246    1.947   .     S
Cu169  N212    2.032   .     S
Cu169  O244    1.949   .     S
Cu169  O235    1.965   .     S
Cu169  O213    1.968   .     S
Cu170  O224    1.968   .     S
Cu170  O247    1.947   .     S
Cu170  N211    2.032   .     S
Cu170  O245    1.949   .     S
Cu170  O243    1.965   .     S
H176   C665    1.111   .     S
H177   C665    1.101   .     S
H194   C32     1.108   1_655 S
H201   O232    0.990   .     S
H202   O236    0.990   .     S
H203   O239    0.991   .     S
H205   O242    0.991   .     S
H206   O215    0.991   .     S
H207   O218    0.991   .     S
H208   O221    0.991   .     S
H209   O225    0.991   .     S
O214   S249    1.504   .     D
O215   S249    1.676   .     S
O216   S250    1.504   .     D
O217   S250    1.501   .     D
O218   S250    1.675   .     S
O219   S251    1.498   .     D
O220   S251    1.504   .     D
O221   S251    1.676   .     S
O222   S252    1.504   .     D
O223   S252    1.500   .     D
O225   S252    1.676   .     S
O230   S253    1.504   .     D
O231   S253    1.499   .     D
O232   S253    1.680   .     S
O233   S254    1.503   .     D
O234   S254    1.501   .     D
O236   S254    1.681   .     S
O237   S255    1.499   .     D
O238   S255    1.504   .     D
O239   S255    1.682   .     S
O240   S256    1.499   .     D
O241   S256    1.501   .     D
O242   S256    1.681   .     S
O248   S249    1.499   .     D
C257   C274    1.494   .     S
C257   O341    1.312   .     A
C257   O371    1.310   .     A
C258   C262    1.394   .     A
C258   H332    1.076   .     S
C258   C293    1.409   .     A
C259   C263    1.421   .     S
C259   O375    1.299   .     A
C259   O372    1.300   .     A
C260   C264    1.421   .     S
C260   O374    1.298   .     A
C260   O373    1.300   .     A
C261   C294    1.394   .     A
C261   C296    1.394   .     A
C262   C295    1.394   .     A
C262   C5      1.520   1_565 S
C263   C1288   1.197   1_554 S
C264   C775    1.197   .     S
C265   O354    1.387   .     S
C265   C270    1.390   .     A
C265   C276    1.418   .     A
C266   C271    1.418   .     A
C266   C277    1.419   .     A
C266   O355    1.383   .     S
C267   C277    1.416   .     A
C267   O356    1.379   .     S
C267   C272    1.391   .     A
C268   O363    1.310   .     A
C268   C275    1.489   .     S
C268   O352    1.308   .     A
C269   C276    1.427   .     A
C269   O357    1.383   .     S
C269   C273    1.419   .     A
C270   C274    1.409   .     A
C270   S381    1.777   .     S
C271   C275    1.427   .     A
C271   S382    1.797   .     S
C272   C275    1.412   .     A
C272   S383    1.782   .     S
C273   C274    1.425   .     A
C273   S384    1.792   .     S
C276   C405    1.507   1_455 S
C277   C404    1.507   .     S
C278   O354    1.413   .     S
C278   H338    1.109   .     S
C278   H300    1.103   .     S
C278   C280    1.540   .     S
C279   S377    1.791   .     S
C279   N339    1.397   .     A
C279   C294    1.408   .     A
C280   H301    1.111   .     S
C280   C281    1.521   .     S
C280   H302    1.106   .     S
C281   H303    1.110   .     S
C281   H1328   1.111   1_554 S
C281   H1329   1.101   1_554 S
C282   H306    1.107   .     S
C282   O355    1.425   .     S
C282   C283    1.557   .     S
C282   H435    1.106   .     S
C283   H308    1.107   .     S
C283   H309    1.111   .     S
C283   C1308   1.517   1_554 S
C284   H312    1.110   .     S
C284   H313    1.106   .     S
C284   H311    1.107   .     S
C284   C795    1.517   .     S
C285   H315    1.118   .     S
C285   C286    1.529   .     S
C285   O356    1.408   .     S
C285   H442    1.105   .     S
C286   C287    1.524   .     S
C286   H316    1.111   .     S
C286   H317    1.110   .     S
C287   H318    1.111   .     S
C287   H319    1.110   .     S
C287   H448    1.110   .     S
C288   H323    1.116   .     S
C288   O357    1.412   .     S
C288   C417    1.533   1_455 S
C288   H450    1.108   1_455 S
C289   H325    1.107   .     S
C289   C291    1.522   .     S
C289   C416    1.533   .     S
C289   H452    1.109   .     S
C290   S378    1.790   .     S
C290   N340    1.396   .     A
C290   C295    1.408   .     A
C291   H326    1.108   .     S
C291   H327    1.110   .     S
C291   H328    1.110   .     S
C292   N339    1.397   .     A
C292   C296    1.408   .     A
C292   S379    1.792   .     S
C293   N340    1.398   .     A
C293   S380    1.796   .     S
C294   H299    1.078   .     S
C295   H310    1.076   .     S
C296   H321    1.078   .     S
Cu297  Cu298   2.706   .     S
Cu297  O374    1.947   .     S
Cu297  N340    2.032   .     S
Cu297  O372    1.949   .     S
Cu297  O363    1.965   .     S
Cu297  O341    1.968   .     S
Cu298  O352    1.968   .     S
Cu298  O375    1.947   .     S
Cu298  N339    2.032   .     S
Cu298  O373    1.949   .     S
Cu298  O371    1.965   .     S
H304   C793    1.111   .     S
H305   C793    1.101   .     S
H307   C410    1.106   1_455 S
H314   C413    1.105   1_455 S
H320   C415    1.110   1_455 S
H322   C416    1.108   .     S
H324   C417    1.109   1_455 S
H329   O360    0.990   .     S
H330   O364    0.990   .     S
H331   O367    0.991   .     S
H333   O370    0.991   .     S
H334   O343    0.991   .     S
H335   O346    0.991   .     S
H336   O349    0.991   .     S
H337   O353    0.991   .     S
O342   S377    1.504   .     D
O343   S377    1.676   .     S
O344   S378    1.504   .     D
O345   S378    1.501   .     D
O346   S378    1.675   .     S
O347   S379    1.498   .     D
O348   S379    1.504   .     D
O349   S379    1.676   .     S
O350   S380    1.504   .     D
O351   S380    1.500   .     D
O353   S380    1.676   .     S
O358   S381    1.504   .     D
O359   S381    1.499   .     D
O360   S381    1.680   .     S
O361   S382    1.503   .     D
O362   S382    1.501   .     D
O364   S382    1.681   .     S
O365   S383    1.499   .     D
O366   S383    1.504   .     D
O367   S383    1.682   .     S
O368   S384    1.499   .     D
O369   S384    1.501   .     D
O370   S384    1.681   .     S
O376   S377    1.499   .     D
C385   C402    1.494   .     S
C385   O469    1.312   .     A
C385   O499    1.310   .     A
C386   C390    1.394   .     A
C386   H460    1.076   .     S
C386   C421    1.409   .     A
C387   C391    1.421   .     S
C387   O503    1.299   .     A
C387   O500    1.300   .     A
C388   C392    1.421   .     S
C388   O502    1.298   .     A
C388   O501    1.300   .     A
C389   C422    1.394   .     A
C389   C424    1.394   .     A
C390   C423    1.394   .     A
C390   C133    1.520   1_565 S
C391   C1416   1.197   1_554 S
C392   C903    1.197   .     S
C393   O482    1.387   .     S
C393   C398    1.390   .     A
C393   C404    1.418   .     A
C394   C399    1.418   .     A
C394   C405    1.419   .     A
C394   O483    1.383   .     S
C395   C405    1.416   .     A
C395   O484    1.379   .     S
C395   C400    1.391   .     A
C396   O491    1.310   .     A
C396   C403    1.489   .     S
C396   O480    1.308   .     A
C397   C404    1.427   .     A
C397   O485    1.383   .     S
C397   C401    1.419   .     A
C398   C402    1.409   .     A
C398   S509    1.777   .     S
C399   C403    1.427   .     A
C399   S510    1.797   .     S
C400   C403    1.412   .     A
C400   S511    1.782   .     S
C401   C402    1.425   .     A
C401   S512    1.792   .     S
C405   C276    1.507   1_655 S
C406   O482    1.413   .     S
C406   H466    1.109   .     S
C406   H428    1.103   .     S
C406   C408    1.540   .     S
C407   S505    1.791   .     S
C407   N467    1.397   .     A
C407   C422    1.408   .     A
C408   H429    1.111   .     S
C408   C409    1.521   .     S
C408   H430    1.106   .     S
C409   H431    1.110   .     S
C409   H1456   1.111   1_554 S
C409   H1457   1.101   1_554 S
C410   H434    1.107   .     S
C410   O483    1.425   .     S
C410   C411    1.557   .     S
C410   H307    1.106   1_655 S
C411   H436    1.107   .     S
C411   H437    1.111   .     S
C411   C1436   1.517   1_554 S
C412   H440    1.110   .     S
C412   H441    1.106   .     S
C412   H439    1.107   .     S
C412   C923    1.517   .     S
C413   H443    1.118   .     S
C413   C414    1.529   .     S
C413   O484    1.408   .     S
C413   H314    1.105   1_655 S
C414   C415    1.524   .     S
C414   H444    1.111   .     S
C414   H445    1.110   .     S
C415   H446    1.111   .     S
C415   H447    1.110   .     S
C415   H320    1.110   1_655 S
C416   H451    1.116   .     S
C416   O485    1.412   .     S
C417   H453    1.107   .     S
C417   C419    1.522   .     S
C417   C288    1.533   1_655 S
C417   H324    1.109   1_655 S
C418   S506    1.790   .     S
C418   N468    1.396   .     A
C418   C423    1.408   .     A
C419   H454    1.108   .     S
C419   H455    1.110   .     S
C419   H456    1.110   .     S
C420   N467    1.397   .     A
C420   C424    1.408   .     A
C420   S507    1.792   .     S
C421   N468    1.398   .     A
C421   S508    1.796   .     S
C422   H427    1.078   .     S
C423   H438    1.076   .     S
C424   H449    1.078   .     S
Cu425  Cu426   2.706   .     S
Cu425  O502    1.947   .     S
Cu425  N468    2.032   .     S
Cu425  O500    1.949   .     S
Cu425  O491    1.965   .     S
Cu425  O469    1.968   .     S
Cu426  O480    1.968   .     S
Cu426  O503    1.947   .     S
Cu426  N467    2.032   .     S
Cu426  O501    1.949   .     S
Cu426  O499    1.965   .     S
H432   C921    1.111   .     S
H433   C921    1.101   .     S
H450   C288    1.108   1_655 S
H457   O488    0.990   .     S
H458   O492    0.990   .     S
H459   O495    0.991   .     S
H461   O498    0.991   .     S
H462   O471    0.991   .     S
H463   O474    0.991   .     S
H464   O477    0.991   .     S
H465   O481    0.991   .     S
O470   S505    1.504   .     D
O471   S505    1.676   .     S
O472   S506    1.504   .     D
O473   S506    1.501   .     D
O474   S506    1.675   .     S
O475   S507    1.498   .     D
O476   S507    1.504   .     D
O477   S507    1.676   .     S
O478   S508    1.504   .     D
O479   S508    1.500   .     D
O481   S508    1.676   .     S
O486   S509    1.504   .     D
O487   S509    1.499   .     D
O488   S509    1.680   .     S
O489   S510    1.503   .     D
O490   S510    1.501   .     D
O492   S510    1.681   .     S
O493   S511    1.499   .     D
O494   S511    1.504   .     D
O495   S511    1.682   .     S
O496   S512    1.499   .     D
O497   S512    1.501   .     D
O498   S512    1.681   .     S
O504   S505    1.499   .     D
C513   C530    1.494   .     S
C513   O597    1.312   .     A
C513   O627    1.310   .     A
C514   C518    1.394   .     A
C514   H588    1.076   .     S
C514   C549    1.409   .     A
C515   C519    1.421   .     S
C515   O631    1.299   .     A
C515   O628    1.300   .     A
C516   C520    1.421   .     S
C516   O630    1.298   .     A
C516   O629    1.300   .     A
C517   C550    1.394   .     A
C517   C552    1.394   .     A
C517   C774    1.520   1_545 S
C518   C551    1.394   .     A
C518   C773    1.520   .     S
C520   C1031   1.197   .     S
C521   O610    1.387   .     S
C521   C526    1.390   .     A
C521   C532    1.418   .     A
C522   C527    1.418   .     A
C522   C533    1.419   .     A
C522   O611    1.383   .     S
C523   C533    1.416   .     A
C523   O612    1.379   .     S
C523   C528    1.391   .     A
C524   O619    1.310   .     A
C524   C531    1.489   .     S
C524   O608    1.308   .     A
C525   C532    1.427   .     A
C525   O613    1.383   .     S
C525   C529    1.419   .     A
C526   C530    1.409   .     A
C526   S637    1.777   .     S
C527   C531    1.427   .     A
C527   S638    1.797   .     S
C528   C531    1.412   .     A
C528   S639    1.782   .     S
C529   C530    1.425   .     A
C529   S640    1.792   .     S
C532   C661    1.507   1_455 S
C533   C660    1.507   .     S
C534   O610    1.413   .     S
C534   H594    1.109   .     S
C534   H556    1.103   .     S
C534   C536    1.540   .     S
C535   S633    1.791   .     S
C535   N595    1.397   .     A
C535   C550    1.408   .     A
C536   H557    1.111   .     S
C536   C537    1.521   .     S
C536   H558    1.106   .     S
C537   H559    1.110   .     S
C538   H562    1.107   .     S
C538   O611    1.425   .     S
C538   C539    1.557   .     S
C538   H691    1.106   .     S
C539   H564    1.107   .     S
C539   H565    1.111   .     S
C540   H568    1.110   .     S
C540   H569    1.106   .     S
C540   H567    1.107   .     S
C540   C1051   1.517   .     S
C541   H571    1.118   .     S
C541   C542    1.529   .     S
C541   O612    1.408   .     S
C541   H698    1.105   .     S
C542   C543    1.524   .     S
C542   H572    1.111   .     S
C542   H573    1.110   .     S
C543   H574    1.111   .     S
C543   H575    1.110   .     S
C543   H704    1.110   .     S
C544   H579    1.116   .     S
C544   O613    1.412   .     S
C544   C673    1.533   1_455 S
C544   H706    1.108   1_455 S
C545   H581    1.107   .     S
C545   C547    1.522   .     S
C545   C672    1.533   .     S
C545   H708    1.109   .     S
C546   S634    1.790   .     S
C546   N596    1.396   .     A
C546   C551    1.408   .     A
C547   H582    1.108   .     S
C547   H583    1.110   .     S
C547   H584    1.110   .     S
C548   N595    1.397   .     A
C548   C552    1.408   .     A
C548   S635    1.792   .     S
C549   N596    1.398   .     A
C549   S636    1.796   .     S
C550   H555    1.078   .     S
C551   H566    1.076   .     S
C552   H577    1.078   .     S
Cu553  Cu554   2.706   .     S
Cu553  O630    1.947   .     S
Cu553  N596    2.032   .     S
Cu553  O628    1.949   .     S
Cu553  O619    1.965   .     S
Cu553  O597    1.968   .     S
Cu554  O608    1.968   .     S
Cu554  O631    1.947   .     S
Cu554  N595    2.032   .     S
Cu554  O629    1.949   .     S
Cu554  O627    1.965   .     S
H560   C1049   1.111   .     S
H561   C1049   1.101   .     S
H563   C666    1.106   1_455 S
H570   C669    1.105   1_455 S
H576   C671    1.110   1_455 S
H578   C672    1.108   .     S
H580   C673    1.109   1_455 S
H585   O616    0.990   .     S
H586   O620    0.990   .     S
H587   O623    0.991   .     S
H589   O626    0.991   .     S
H590   O599    0.991   .     S
H591   O602    0.991   .     S
H592   O605    0.991   .     S
H593   O609    0.991   .     S
O598   S633    1.504   .     D
O599   S633    1.676   .     S
O600   S634    1.504   .     D
O601   S634    1.501   .     D
O602   S634    1.675   .     S
O603   S635    1.498   .     D
O604   S635    1.504   .     D
O605   S635    1.676   .     S
O606   S636    1.504   .     D
O607   S636    1.500   .     D
O609   S636    1.676   .     S
O614   S637    1.504   .     D
O615   S637    1.499   .     D
O616   S637    1.680   .     S
O617   S638    1.503   .     D
O618   S638    1.501   .     D
O620   S638    1.681   .     S
O621   S639    1.499   .     D
O622   S639    1.504   .     D
O623   S639    1.682   .     S
O624   S640    1.499   .     D
O625   S640    1.501   .     D
O626   S640    1.681   .     S
O632   S633    1.499   .     D
C641   C658    1.494   .     S
C641   O725    1.312   .     A
C641   O755    1.310   .     A
C642   C646    1.394   .     A
C642   H716    1.076   .     S
C642   C677    1.409   .     A
C643   C647    1.421   .     S
C643   O759    1.299   .     A
C643   O756    1.300   .     A
C644   C648    1.421   .     S
C644   O758    1.298   .     A
C644   O757    1.300   .     A
C645   C678    1.394   .     A
C645   C680    1.394   .     A
C645   C902    1.520   1_545 S
C646   C679    1.394   .     A
C646   C901    1.520   .     S
C648   C1159   1.197   .     S
C649   O738    1.387   .     S
C649   C654    1.390   .     A
C649   C660    1.418   .     A
C650   C655    1.418   .     A
C650   C661    1.419   .     A
C650   O739    1.383   .     S
C651   C661    1.416   .     A
C651   O740    1.379   .     S
C651   C656    1.391   .     A
C652   O747    1.310   .     A
C652   C659    1.489   .     S
C652   O736    1.308   .     A
C653   C660    1.427   .     A
C653   O741    1.383   .     S
C653   C657    1.419   .     A
C654   C658    1.409   .     A
C654   S765    1.777   .     S
C655   C659    1.427   .     A
C655   S766    1.797   .     S
C656   C659    1.412   .     A
C656   S767    1.782   .     S
C657   C658    1.425   .     A
C657   S768    1.792   .     S
C661   C532    1.507   1_655 S
C662   O738    1.413   .     S
C662   H722    1.109   .     S
C662   H684    1.103   .     S
C662   C664    1.540   .     S
C663   S761    1.791   .     S
C663   N723    1.397   .     A
C663   C678    1.408   .     A
C664   H685    1.111   .     S
C664   C665    1.521   .     S
C664   H686    1.106   .     S
C665   H687    1.110   .     S
C666   H690    1.107   .     S
C666   O739    1.425   .     S
C666   C667    1.557   .     S
C666   H563    1.106   1_655 S
C667   H692    1.107   .     S
C667   H693    1.111   .     S
C668   H696    1.110   .     S
C668   H697    1.106   .     S
C668   H695    1.107   .     S
C668   C1179   1.517   .     S
C669   H699    1.118   .     S
C669   C670    1.529   .     S
C669   O740    1.408   .     S
C669   H570    1.105   1_655 S
C670   C671    1.524   .     S
C670   H700    1.111   .     S
C670   H701    1.110   .     S
C671   H702    1.111   .     S
C671   H703    1.110   .     S
C671   H576    1.110   1_655 S
C672   H707    1.116   .     S
C672   O741    1.412   .     S
C673   H709    1.107   .     S
C673   C675    1.522   .     S
C673   C544    1.533   1_655 S
C673   H580    1.109   1_655 S
C674   S762    1.790   .     S
C674   N724    1.396   .     A
C674   C679    1.408   .     A
C675   H710    1.108   .     S
C675   H711    1.110   .     S
C675   H712    1.110   .     S
C676   N723    1.397   .     A
C676   C680    1.408   .     A
C676   S763    1.792   .     S
C677   N724    1.398   .     A
C677   S764    1.796   .     S
C678   H683    1.078   .     S
C679   H694    1.076   .     S
C680   H705    1.078   .     S
Cu681  Cu682   2.706   .     S
Cu681  O758    1.947   .     S
Cu681  N724    2.032   .     S
Cu681  O756    1.949   .     S
Cu681  O747    1.965   .     S
Cu681  O725    1.968   .     S
Cu682  O736    1.968   .     S
Cu682  O759    1.947   .     S
Cu682  N723    2.032   .     S
Cu682  O757    1.949   .     S
Cu682  O755    1.965   .     S
H688   C1177   1.111   .     S
H689   C1177   1.101   .     S
H706   C544    1.108   1_655 S
H713   O744    0.990   .     S
H714   O748    0.990   .     S
H715   O751    0.991   .     S
H717   O754    0.991   .     S
H718   O727    0.991   .     S
H719   O730    0.991   .     S
H720   O733    0.991   .     S
H721   O737    0.991   .     S
O726   S761    1.504   .     D
O727   S761    1.676   .     S
O728   S762    1.504   .     D
O729   S762    1.501   .     D
O730   S762    1.675   .     S
O731   S763    1.498   .     D
O732   S763    1.504   .     D
O733   S763    1.676   .     S
O734   S764    1.504   .     D
O735   S764    1.500   .     D
O737   S764    1.676   .     S
O742   S765    1.504   .     D
O743   S765    1.499   .     D
O744   S765    1.680   .     S
O745   S766    1.503   .     D
O746   S766    1.501   .     D
O748   S766    1.681   .     S
O749   S767    1.499   .     D
O750   S767    1.504   .     D
O751   S767    1.682   .     S
O752   S768    1.499   .     D
O753   S768    1.501   .     D
O754   S768    1.681   .     S
O760   S761    1.499   .     D
C769   C786    1.494   .     S
C769   O853    1.312   .     A
C769   O883    1.310   .     A
C770   C774    1.394   .     A
C770   H844    1.076   .     S
C770   C805    1.409   .     A
C771   C775    1.421   .     S
C771   O887    1.299   .     A
C771   O884    1.300   .     A
C772   C776    1.421   .     S
C772   O886    1.298   .     A
C772   O885    1.300   .     A
C773   C806    1.394   .     A
C773   C808    1.394   .     A
C774   C807    1.394   .     A
C774   C517    1.520   1_565 S
C776   C1287   1.197   .     S
C777   O866    1.387   .     S
C777   C782    1.390   .     A
C777   C788    1.418   .     A
C778   C783    1.418   .     A
C778   C789    1.419   .     A
C778   O867    1.383   .     S
C779   C789    1.416   .     A
C779   O868    1.379   .     S
C779   C784    1.391   .     A
C780   O875    1.310   .     A
C780   C787    1.489   .     S
C780   O864    1.308   .     A
C781   C788    1.427   .     A
C781   O869    1.383   .     S
C781   C785    1.419   .     A
C782   C786    1.409   .     A
C782   S893    1.777   .     S
C783   C787    1.427   .     A
C783   S894    1.797   .     S
C784   C787    1.412   .     A
C784   S895    1.782   .     S
C785   C786    1.425   .     A
C785   S896    1.792   .     S
C788   C917    1.507   1_455 S
C789   C916    1.507   .     S
C790   O866    1.413   .     S
C790   H850    1.109   .     S
C790   H812    1.103   .     S
C790   C792    1.540   .     S
C791   S889    1.791   .     S
C791   N851    1.397   .     A
C791   C806    1.408   .     A
C792   H813    1.111   .     S
C792   C793    1.521   .     S
C792   H814    1.106   .     S
C793   H815    1.110   .     S
C794   H818    1.107   .     S
C794   O867    1.425   .     S
C794   C795    1.557   .     S
C794   H947    1.106   .     S
C795   H820    1.107   .     S
C795   H821    1.111   .     S
C796   H824    1.110   .     S
C796   H825    1.106   .     S
C796   H823    1.107   .     S
C796   C1307   1.517   .     S
C797   H827    1.118   .     S
C797   C798    1.529   .     S
C797   O868    1.408   .     S
C797   H954    1.105   .     S
C798   C799    1.524   .     S
C798   H828    1.111   .     S
C798   H829    1.110   .     S
C799   H830    1.111   .     S
C799   H831    1.110   .     S
C799   H960    1.110   .     S
C800   H835    1.116   .     S
C800   O869    1.412   .     S
C800   C929    1.533   1_455 S
C800   H962    1.108   1_455 S
C801   H837    1.107   .     S
C801   C803    1.522   .     S
C801   C928    1.533   .     S
C801   H964    1.109   .     S
C802   S890    1.790   .     S
C802   N852    1.396   .     A
C802   C807    1.408   .     A
C803   H838    1.108   .     S
C803   H839    1.110   .     S
C803   H840    1.110   .     S
C804   N851    1.397   .     A
C804   C808    1.408   .     A
C804   S891    1.792   .     S
C805   N852    1.398   .     A
C805   S892    1.796   .     S
C806   H811    1.078   .     S
C807   H822    1.076   .     S
C808   H833    1.078   .     S
Cu809  Cu810   2.706   .     S
Cu809  O886    1.947   .     S
Cu809  N852    2.032   .     S
Cu809  O884    1.949   .     S
Cu809  O875    1.965   .     S
Cu809  O853    1.968   .     S
Cu810  O864    1.968   .     S
Cu810  O887    1.947   .     S
Cu810  N851    2.032   .     S
Cu810  O885    1.949   .     S
Cu810  O883    1.965   .     S
H816   C1305   1.111   .     S
H817   C1305   1.101   .     S
H819   C922    1.106   1_455 S
H826   C925    1.105   1_455 S
H832   C927    1.110   1_455 S
H834   C928    1.108   .     S
H836   C929    1.109   1_455 S
H841   O872    0.990   .     S
H842   O876    0.990   .     S
H843   O879    0.991   .     S
H845   O882    0.991   .     S
H846   O855    0.991   .     S
H847   O858    0.991   .     S
H848   O861    0.991   .     S
H849   O865    0.991   .     S
O854   S889    1.504   .     D
O855   S889    1.676   .     S
O856   S890    1.504   .     D
O857   S890    1.501   .     D
O858   S890    1.675   .     S
O859   S891    1.498   .     D
O860   S891    1.504   .     D
O861   S891    1.676   .     S
O862   S892    1.504   .     D
O863   S892    1.500   .     D
O865   S892    1.676   .     S
O870   S893    1.504   .     D
O871   S893    1.499   .     D
O872   S893    1.680   .     S
O873   S894    1.503   .     D
O874   S894    1.501   .     D
O876   S894    1.681   .     S
O877   S895    1.499   .     D
O878   S895    1.504   .     D
O879   S895    1.682   .     S
O880   S896    1.499   .     D
O881   S896    1.501   .     D
O882   S896    1.681   .     S
O888   S889    1.499   .     D
C897   C914    1.494   .     S
C897   O981    1.312   .     A
C897   O1011   1.310   .     A
C898   C902    1.394   .     A
C898   H972    1.076   .     S
C898   C933    1.409   .     A
C899   C903    1.421   .     S
C899   O1015   1.299   .     A
C899   O1012   1.300   .     A
C900   C904    1.421   .     S
C900   O1014   1.298   .     A
C900   O1013   1.300   .     A
C901   C934    1.394   .     A
C901   C936    1.394   .     A
C902   C935    1.394   .     A
C902   C645    1.520   1_565 S
C904   C1415   1.197   .     S
C905   O994    1.387   .     S
C905   C910    1.390   .     A
C905   C916    1.418   .     A
C906   C911    1.418   .     A
C906   C917    1.419   .     A
C906   O995    1.383   .     S
C907   C917    1.416   .     A
C907   O996    1.379   .     S
C907   C912    1.391   .     A
C908   O1003   1.310   .     A
C908   C915    1.489   .     S
C908   O992    1.308   .     A
C909   C916    1.427   .     A
C909   O997    1.383   .     S
C909   C913    1.419   .     A
C910   C914    1.409   .     A
C910   S1021   1.777   .     S
C911   C915    1.427   .     A
C911   S1022   1.797   .     S
C912   C915    1.412   .     A
C912   S1023   1.782   .     S
C913   C914    1.425   .     A
C913   S1024   1.792   .     S
C917   C788    1.507   1_655 S
C918   O994    1.413   .     S
C918   H978    1.109   .     S
C918   H940    1.103   .     S
C918   C920    1.540   .     S
C919   S1017   1.791   .     S
C919   N979    1.397   .     A
C919   C934    1.408   .     A
C920   H941    1.111   .     S
C920   C921    1.521   .     S
C920   H942    1.106   .     S
C921   H943    1.110   .     S
C922   H946    1.107   .     S
C922   O995    1.425   .     S
C922   C923    1.557   .     S
C922   H819    1.106   1_655 S
C923   H948    1.107   .     S
C923   H949    1.111   .     S
C924   H952    1.110   .     S
C924   H953    1.106   .     S
C924   H951    1.107   .     S
C924   C1435   1.517   .     S
C925   H955    1.118   .     S
C925   C926    1.529   .     S
C925   O996    1.408   .     S
C925   H826    1.105   1_655 S
C926   C927    1.524   .     S
C926   H956    1.111   .     S
C926   H957    1.110   .     S
C927   H958    1.111   .     S
C927   H959    1.110   .     S
C927   H832    1.110   1_655 S
C928   H963    1.116   .     S
C928   O997    1.412   .     S
C929   H965    1.107   .     S
C929   C931    1.522   .     S
C929   C800    1.533   1_655 S
C929   H836    1.109   1_655 S
C930   S1018   1.790   .     S
C930   N980    1.396   .     A
C930   C935    1.408   .     A
C931   H966    1.108   .     S
C931   H967    1.110   .     S
C931   H968    1.110   .     S
C932   N979    1.397   .     A
C932   C936    1.408   .     A
C932   S1019   1.792   .     S
C933   N980    1.398   .     A
C933   S1020   1.796   .     S
C934   H939    1.078   .     S
C935   H950    1.076   .     S
C936   H961    1.078   .     S
Cu937  Cu938   2.706   .     S
Cu937  O1014   1.947   .     S
Cu937  N980    2.032   .     S
Cu937  O1012   1.949   .     S
Cu937  O1003   1.965   .     S
Cu937  O981    1.968   .     S
Cu938  O992    1.968   .     S
Cu938  O1015   1.947   .     S
Cu938  N979    2.032   .     S
Cu938  O1013   1.949   .     S
Cu938  O1011   1.965   .     S
H944   C1433   1.111   .     S
H945   C1433   1.101   .     S
H962   C800    1.108   1_655 S
H969   O1000   0.990   .     S
H970   O1004   0.990   .     S
H971   O1007   0.991   .     S
H973   O1010   0.991   .     S
H974   O983    0.991   .     S
H975   O986    0.991   .     S
H976   O989    0.991   .     S
H977   O993    0.991   .     S
O982   S1017   1.504   .     D
O983   S1017   1.676   .     S
O984   S1018   1.504   .     D
O985   S1018   1.501   .     D
O986   S1018   1.675   .     S
O987   S1019   1.498   .     D
O988   S1019   1.504   .     D
O989   S1019   1.676   .     S
O990   S1020   1.504   .     D
O991   S1020   1.500   .     D
O993   S1020   1.676   .     S
O998   S1021   1.504   .     D
O999   S1021   1.499   .     D
O1000  S1021   1.680   .     S
O1001  S1022   1.503   .     D
O1002  S1022   1.501   .     D
O1004  S1022   1.681   .     S
O1005  S1023   1.499   .     D
O1006  S1023   1.504   .     D
O1007  S1023   1.682   .     S
O1008  S1024   1.499   .     D
O1009  S1024   1.501   .     D
O1010  S1024   1.681   .     S
O1016  S1017   1.499   .     D
C1025  C1042   1.494   .     S
C1025  O1109   1.312   .     A
C1025  O1139   1.310   .     A
C1026  C1030   1.394   .     A
C1026  H1100   1.076   .     S
C1026  C1061   1.409   .     A
C1027  C1031   1.421   .     S
C1027  O1143   1.299   .     A
C1027  O1140   1.300   .     A
C1028  C1032   1.421   .     S
C1028  O1142   1.298   .     A
C1028  O1141   1.300   .     A
C1029  C1062   1.394   .     A
C1029  C1064   1.394   .     A
C1029  C1286   1.520   1_545 S
C1030  C1063   1.394   .     A
C1030  C1285   1.520   .     S
C1032  C7      1.197   1_556 S
C1033  O1122   1.387   .     S
C1033  C1038   1.390   .     A
C1033  C1044   1.418   .     A
C1034  C1039   1.418   .     A
C1034  C1045   1.419   .     A
C1034  O1123   1.383   .     S
C1035  C1045   1.416   .     A
C1035  O1124   1.379   .     S
C1035  C1040   1.391   .     A
C1036  O1131   1.310   .     A
C1036  C1043   1.489   .     S
C1036  O1120   1.308   .     A
C1037  C1044   1.427   .     A
C1037  O1125   1.383   .     S
C1037  C1041   1.419   .     A
C1038  C1042   1.409   .     A
C1038  S1149   1.777   .     S
C1039  C1043   1.427   .     A
C1039  S1150   1.797   .     S
C1040  C1043   1.412   .     A
C1040  S1151   1.782   .     S
C1041  C1042   1.425   .     A
C1041  S1152   1.792   .     S
C1044  C1173   1.507   1_455 S
C1045  C1172   1.507   .     S
C1046  O1122   1.413   .     S
C1046  H1106   1.109   .     S
C1046  H1068   1.103   .     S
C1046  C1048   1.540   .     S
C1047  S1145   1.791   .     S
C1047  N1107   1.397   .     A
C1047  C1062   1.408   .     A
C1048  H1069   1.111   .     S
C1048  C1049   1.521   .     S
C1048  H1070   1.106   .     S
C1049  H1071   1.110   .     S
C1050  H1074   1.107   .     S
C1050  O1123   1.425   .     S
C1050  C1051   1.557   .     S
C1050  H1203   1.106   .     S
C1051  H1076   1.107   .     S
C1051  H1077   1.111   .     S
C1052  H1080   1.110   .     S
C1052  H1081   1.106   .     S
C1052  H1079   1.107   .     S
C1052  C27     1.517   1_556 S
C1053  H1083   1.118   .     S
C1053  C1054   1.529   .     S
C1053  O1124   1.408   .     S
C1053  H1210   1.105   .     S
C1054  C1055   1.524   .     S
C1054  H1084   1.111   .     S
C1054  H1085   1.110   .     S
C1055  H1086   1.111   .     S
C1055  H1087   1.110   .     S
C1055  H1216   1.110   .     S
C1056  H1091   1.116   .     S
C1056  O1125   1.412   .     S
C1056  C1185   1.533   1_455 S
C1056  H1218   1.108   1_455 S
C1057  H1093   1.107   .     S
C1057  C1059   1.522   .     S
C1057  C1184   1.533   .     S
C1057  H1220   1.109   .     S
C1058  S1146   1.790   .     S
C1058  N1108   1.396   .     A
C1058  C1063   1.408   .     A
C1059  H1094   1.108   .     S
C1059  H1095   1.110   .     S
C1059  H1096   1.110   .     S
C1060  N1107   1.397   .     A
C1060  C1064   1.408   .     A
C1060  S1147   1.792   .     S
C1061  N1108   1.398   .     A
C1061  S1148   1.796   .     S
C1062  H1067   1.078   .     S
C1063  H1078   1.076   .     S
C1064  H1089   1.078   .     S
Cu1065 Cu1066  2.706   .     S
Cu1065 O1142   1.947   .     S
Cu1065 N1108   2.032   .     S
Cu1065 O1140   1.949   .     S
Cu1065 O1131   1.965   .     S
Cu1065 O1109   1.968   .     S
Cu1066 O1120   1.968   .     S
Cu1066 O1143   1.947   .     S
Cu1066 N1107   2.032   .     S
Cu1066 O1141   1.949   .     S
Cu1066 O1139   1.965   .     S
H1072  C25     1.111   1_556 S
H1073  C25     1.101   1_556 S
H1075  C1178   1.106   1_455 S
H1082  C1181   1.105   1_455 S
H1088  C1183   1.110   1_455 S
H1090  C1184   1.108   .     S
H1092  C1185   1.109   1_455 S
H1097  O1128   0.990   .     S
H1098  O1132   0.990   .     S
H1099  O1135   0.991   .     S
H1101  O1138   0.991   .     S
H1102  O1111   0.991   .     S
H1103  O1114   0.991   .     S
H1104  O1117   0.991   .     S
H1105  O1121   0.991   .     S
O1110  S1145   1.504   .     D
O1111  S1145   1.676   .     S
O1112  S1146   1.504   .     D
O1113  S1146   1.501   .     D
O1114  S1146   1.675   .     S
O1115  S1147   1.498   .     D
O1116  S1147   1.504   .     D
O1117  S1147   1.676   .     S
O1118  S1148   1.504   .     D
O1119  S1148   1.500   .     D
O1121  S1148   1.676   .     S
O1126  S1149   1.504   .     D
O1127  S1149   1.499   .     D
O1128  S1149   1.680   .     S
O1129  S1150   1.503   .     D
O1130  S1150   1.501   .     D
O1132  S1150   1.681   .     S
O1133  S1151   1.499   .     D
O1134  S1151   1.504   .     D
O1135  S1151   1.682   .     S
O1136  S1152   1.499   .     D
O1137  S1152   1.501   .     D
O1138  S1152   1.681   .     S
O1144  S1145   1.499   .     D
C1153  C1170   1.494   .     S
C1153  O1237   1.312   .     A
C1153  O1267   1.310   .     A
C1154  C1158   1.394   .     A
C1154  H1228   1.076   .     S
C1154  C1189   1.409   .     A
C1155  C1159   1.421   .     S
C1155  O1271   1.299   .     A
C1155  O1268   1.300   .     A
C1156  C1160   1.421   .     S
C1156  O1270   1.298   .     A
C1156  O1269   1.300   .     A
C1157  C1190   1.394   .     A
C1157  C1192   1.394   .     A
C1157  C1414   1.520   1_545 S
C1158  C1191   1.394   .     A
C1158  C1413   1.520   .     S
C1160  C135    1.197   1_556 S
C1161  O1250   1.387   .     S
C1161  C1166   1.390   .     A
C1161  C1172   1.418   .     A
C1162  C1167   1.418   .     A
C1162  C1173   1.419   .     A
C1162  O1251   1.383   .     S
C1163  C1173   1.416   .     A
C1163  O1252   1.379   .     S
C1163  C1168   1.391   .     A
C1164  O1259   1.310   .     A
C1164  C1171   1.489   .     S
C1164  O1248   1.308   .     A
C1165  C1172   1.427   .     A
C1165  O1253   1.383   .     S
C1165  C1169   1.419   .     A
C1166  C1170   1.409   .     A
C1166  S1277   1.777   .     S
C1167  C1171   1.427   .     A
C1167  S1278   1.797   .     S
C1168  C1171   1.412   .     A
C1168  S1279   1.782   .     S
C1169  C1170   1.425   .     A
C1169  S1280   1.792   .     S
C1173  C1044   1.507   1_655 S
C1174  O1250   1.413   .     S
C1174  H1234   1.109   .     S
C1174  H1196   1.103   .     S
C1174  C1176   1.540   .     S
C1175  S1273   1.791   .     S
C1175  N1235   1.397   .     A
C1175  C1190   1.408   .     A
C1176  H1197   1.111   .     S
C1176  C1177   1.521   .     S
C1176  H1198   1.106   .     S
C1177  H1199   1.110   .     S
C1178  H1202   1.107   .     S
C1178  O1251   1.425   .     S
C1178  C1179   1.557   .     S
C1178  H1075   1.106   1_655 S
C1179  H1204   1.107   .     S
C1179  H1205   1.111   .     S
C1180  H1208   1.110   .     S
C1180  H1209   1.106   .     S
C1180  H1207   1.107   .     S
C1180  C155    1.517   1_556 S
C1181  H1211   1.118   .     S
C1181  C1182   1.529   .     S
C1181  O1252   1.408   .     S
C1181  H1082   1.105   1_655 S
C1182  C1183   1.524   .     S
C1182  H1212   1.111   .     S
C1182  H1213   1.110   .     S
C1183  H1214   1.111   .     S
C1183  H1215   1.110   .     S
C1183  H1088   1.110   1_655 S
C1184  H1219   1.116   .     S
C1184  O1253   1.412   .     S
C1185  H1221   1.107   .     S
C1185  C1187   1.522   .     S
C1185  C1056   1.533   1_655 S
C1185  H1092   1.109   1_655 S
C1186  S1274   1.790   .     S
C1186  N1236   1.396   .     A
C1186  C1191   1.408   .     A
C1187  H1222   1.108   .     S
C1187  H1223   1.110   .     S
C1187  H1224   1.110   .     S
C1188  N1235   1.397   .     A
C1188  C1192   1.408   .     A
C1188  S1275   1.792   .     S
C1189  N1236   1.398   .     A
C1189  S1276   1.796   .     S
C1190  H1195   1.078   .     S
C1191  H1206   1.076   .     S
C1192  H1217   1.078   .     S
Cu1193 Cu1194  2.706   .     S
Cu1193 O1270   1.947   .     S
Cu1193 N1236   2.032   .     S
Cu1193 O1268   1.949   .     S
Cu1193 O1259   1.965   .     S
Cu1193 O1237   1.968   .     S
Cu1194 O1248   1.968   .     S
Cu1194 O1271   1.947   .     S
Cu1194 N1235   2.032   .     S
Cu1194 O1269   1.949   .     S
Cu1194 O1267   1.965   .     S
H1200  C153    1.111   1_556 S
H1201  C153    1.101   1_556 S
H1218  C1056   1.108   1_655 S
H1225  O1256   0.990   .     S
H1226  O1260   0.990   .     S
H1227  O1263   0.991   .     S
H1229  O1266   0.991   .     S
H1230  O1239   0.991   .     S
H1231  O1242   0.991   .     S
H1232  O1245   0.991   .     S
H1233  O1249   0.991   .     S
O1238  S1273   1.504   .     D
O1239  S1273   1.676   .     S
O1240  S1274   1.504   .     D
O1241  S1274   1.501   .     D
O1242  S1274   1.675   .     S
O1243  S1275   1.498   .     D
O1244  S1275   1.504   .     D
O1245  S1275   1.676   .     S
O1246  S1276   1.504   .     D
O1247  S1276   1.500   .     D
O1249  S1276   1.676   .     S
O1254  S1277   1.504   .     D
O1255  S1277   1.499   .     D
O1256  S1277   1.680   .     S
O1257  S1278   1.503   .     D
O1258  S1278   1.501   .     D
O1260  S1278   1.681   .     S
O1261  S1279   1.499   .     D
O1262  S1279   1.504   .     D
O1263  S1279   1.682   .     S
O1264  S1280   1.499   .     D
O1265  S1280   1.501   .     D
O1266  S1280   1.681   .     S
O1272  S1273   1.499   .     D
C1281  C1298   1.494   .     S
C1281  O1365   1.312   .     A
C1281  O1395   1.310   .     A
C1282  C1286   1.394   .     A
C1282  H1356   1.076   .     S
C1282  C1317   1.409   .     A
C1283  C1287   1.421   .     S
C1283  O1399   1.299   .     A
C1283  O1396   1.300   .     A
C1284  C1288   1.421   .     S
C1284  O1398   1.298   .     A
C1284  O1397   1.300   .     A
C1285  C1318   1.394   .     A
C1285  C1320   1.394   .     A
C1286  C1319   1.394   .     A
C1286  C1029   1.520   1_565 S
C1288  C263    1.197   1_556 S
C1289  O1378   1.387   .     S
C1289  C1294   1.390   .     A
C1289  C1300   1.418   .     A
C1290  C1295   1.418   .     A
C1290  C1301   1.419   .     A
C1290  O1379   1.383   .     S
C1291  C1301   1.416   .     A
C1291  O1380   1.379   .     S
C1291  C1296   1.391   .     A
C1292  O1387   1.310   .     A
C1292  C1299   1.489   .     S
C1292  O1376   1.308   .     A
C1293  C1300   1.427   .     A
C1293  O1381   1.383   .     S
C1293  C1297   1.419   .     A
C1294  C1298   1.409   .     A
C1294  S1405   1.777   .     S
C1295  C1299   1.427   .     A
C1295  S1406   1.797   .     S
C1296  C1299   1.412   .     A
C1296  S1407   1.782   .     S
C1297  C1298   1.425   .     A
C1297  S1408   1.792   .     S
C1300  C1429   1.507   1_455 S
C1301  C1428   1.507   .     S
C1302  O1378   1.413   .     S
C1302  H1362   1.109   .     S
C1302  H1324   1.103   .     S
C1302  C1304   1.540   .     S
C1303  S1401   1.791   .     S
C1303  N1363   1.397   .     A
C1303  C1318   1.408   .     A
C1304  H1325   1.111   .     S
C1304  C1305   1.521   .     S
C1304  H1326   1.106   .     S
C1305  H1327   1.110   .     S
C1306  H1330   1.107   .     S
C1306  O1379   1.425   .     S
C1306  C1307   1.557   .     S
C1306  H1459   1.106   .     S
C1307  H1332   1.107   .     S
C1307  H1333   1.111   .     S
C1308  H1336   1.110   .     S
C1308  H1337   1.106   .     S
C1308  H1335   1.107   .     S
C1308  C283    1.517   1_556 S
C1309  H1339   1.118   .     S
C1309  C1310   1.529   .     S
C1309  O1380   1.408   .     S
C1309  H1466   1.105   .     S
C1310  C1311   1.524   .     S
C1310  H1340   1.111   .     S
C1310  H1341   1.110   .     S
C1311  H1342   1.111   .     S
C1311  H1343   1.110   .     S
C1311  H1472   1.110   .     S
C1312  H1347   1.116   .     S
C1312  O1381   1.412   .     S
C1312  C1441   1.533   1_455 S
C1312  H1474   1.108   1_455 S
C1313  H1349   1.107   .     S
C1313  C1315   1.522   .     S
C1313  C1440   1.533   .     S
C1313  H1476   1.109   .     S
C1314  S1402   1.790   .     S
C1314  N1364   1.396   .     A
C1314  C1319   1.408   .     A
C1315  H1350   1.108   .     S
C1315  H1351   1.110   .     S
C1315  H1352   1.110   .     S
C1316  N1363   1.397   .     A
C1316  C1320   1.408   .     A
C1316  S1403   1.792   .     S
C1317  N1364   1.398   .     A
C1317  S1404   1.796   .     S
C1318  H1323   1.078   .     S
C1319  H1334   1.076   .     S
C1320  H1345   1.078   .     S
Cu1321 Cu1322  2.706   .     S
Cu1321 O1398   1.947   .     S
Cu1321 N1364   2.032   .     S
Cu1321 O1396   1.949   .     S
Cu1321 O1387   1.965   .     S
Cu1321 O1365   1.968   .     S
Cu1322 O1376   1.968   .     S
Cu1322 O1399   1.947   .     S
Cu1322 N1363   2.032   .     S
Cu1322 O1397   1.949   .     S
Cu1322 O1395   1.965   .     S
H1328  C281    1.111   1_556 S
H1329  C281    1.101   1_556 S
H1331  C1434   1.106   1_455 S
H1338  C1437   1.105   1_455 S
H1344  C1439   1.110   1_455 S
H1346  C1440   1.108   .     S
H1348  C1441   1.109   1_455 S
H1353  O1384   0.990   .     S
H1354  O1388   0.990   .     S
H1355  O1391   0.991   .     S
H1357  O1394   0.991   .     S
H1358  O1367   0.991   .     S
H1359  O1370   0.991   .     S
H1360  O1373   0.991   .     S
H1361  O1377   0.991   .     S
O1366  S1401   1.504   .     D
O1367  S1401   1.676   .     S
O1368  S1402   1.504   .     D
O1369  S1402   1.501   .     D
O1370  S1402   1.675   .     S
O1371  S1403   1.498   .     D
O1372  S1403   1.504   .     D
O1373  S1403   1.676   .     S
O1374  S1404   1.504   .     D
O1375  S1404   1.500   .     D
O1377  S1404   1.676   .     S
O1382  S1405   1.504   .     D
O1383  S1405   1.499   .     D
O1384  S1405   1.680   .     S
O1385  S1406   1.503   .     D
O1386  S1406   1.501   .     D
O1388  S1406   1.681   .     S
O1389  S1407   1.499   .     D
O1390  S1407   1.504   .     D
O1391  S1407   1.682   .     S
O1392  S1408   1.499   .     D
O1393  S1408   1.501   .     D
O1394  S1408   1.681   .     S
O1400  S1401   1.499   .     D
C1409  C1426   1.494   .     S
C1409  O1493   1.312   .     A
C1409  O1523   1.310   .     A
C1410  C1414   1.394   .     A
C1410  H1484   1.076   .     S
C1410  C1445   1.409   .     A
C1411  C1415   1.421   .     S
C1411  O1527   1.299   .     A
C1411  O1524   1.300   .     A
C1412  C1416   1.421   .     S
C1412  O1526   1.298   .     A
C1412  O1525   1.300   .     A
C1413  C1446   1.394   .     A
C1413  C1448   1.394   .     A
C1414  C1447   1.394   .     A
C1414  C1157   1.520   1_565 S
C1416  C391    1.197   1_556 S
C1417  O1506   1.387   .     S
C1417  C1422   1.390   .     A
C1417  C1428   1.418   .     A
C1418  C1423   1.418   .     A
C1418  C1429   1.419   .     A
C1418  O1507   1.383   .     S
C1419  C1429   1.416   .     A
C1419  O1508   1.379   .     S
C1419  C1424   1.391   .     A
C1420  O1515   1.310   .     A
C1420  C1427   1.489   .     S
C1420  O1504   1.308   .     A
C1421  C1428   1.427   .     A
C1421  O1509   1.383   .     S
C1421  C1425   1.419   .     A
C1422  C1426   1.409   .     A
C1422  S1533   1.777   .     S
C1423  C1427   1.427   .     A
C1423  S1534   1.797   .     S
C1424  C1427   1.412   .     A
C1424  S1535   1.782   .     S
C1425  C1426   1.425   .     A
C1425  S1536   1.792   .     S
C1429  C1300   1.507   1_655 S
C1430  O1506   1.413   .     S
C1430  H1490   1.109   .     S
C1430  H1452   1.103   .     S
C1430  C1432   1.540   .     S
C1431  S1529   1.791   .     S
C1431  N1491   1.397   .     A
C1431  C1446   1.408   .     A
C1432  H1453   1.111   .     S
C1432  C1433   1.521   .     S
C1432  H1454   1.106   .     S
C1433  H1455   1.110   .     S
C1434  H1458   1.107   .     S
C1434  O1507   1.425   .     S
C1434  C1435   1.557   .     S
C1434  H1331   1.106   1_655 S
C1435  H1460   1.107   .     S
C1435  H1461   1.111   .     S
C1436  H1464   1.110   .     S
C1436  H1465   1.106   .     S
C1436  H1463   1.107   .     S
C1436  C411    1.517   1_556 S
C1437  H1467   1.118   .     S
C1437  C1438   1.529   .     S
C1437  O1508   1.408   .     S
C1437  H1338   1.105   1_655 S
C1438  C1439   1.524   .     S
C1438  H1468   1.111   .     S
C1438  H1469   1.110   .     S
C1439  H1470   1.111   .     S
C1439  H1471   1.110   .     S
C1439  H1344   1.110   1_655 S
C1440  H1475   1.116   .     S
C1440  O1509   1.412   .     S
C1441  H1477   1.107   .     S
C1441  C1443   1.522   .     S
C1441  C1312   1.533   1_655 S
C1441  H1348   1.109   1_655 S
C1442  S1530   1.790   .     S
C1442  N1492   1.396   .     A
C1442  C1447   1.408   .     A
C1443  H1478   1.108   .     S
C1443  H1479   1.110   .     S
C1443  H1480   1.110   .     S
C1444  N1491   1.397   .     A
C1444  C1448   1.408   .     A
C1444  S1531   1.792   .     S
C1445  N1492   1.398   .     A
C1445  S1532   1.796   .     S
C1446  H1451   1.078   .     S
C1447  H1462   1.076   .     S
C1448  H1473   1.078   .     S
Cu1449 Cu1450  2.706   .     S
Cu1449 O1526   1.947   .     S
Cu1449 N1492   2.032   .     S
Cu1449 O1524   1.949   .     S
Cu1449 O1515   1.965   .     S
Cu1449 O1493   1.968   .     S
Cu1450 O1504   1.968   .     S
Cu1450 O1527   1.947   .     S
Cu1450 N1491   2.032   .     S
Cu1450 O1525   1.949   .     S
Cu1450 O1523   1.965   .     S
H1456  C409    1.111   1_556 S
H1457  C409    1.101   1_556 S
H1474  C1312   1.108   1_655 S
H1481  O1512   0.990   .     S
H1482  O1516   0.990   .     S
H1483  O1519   0.991   .     S
H1485  O1522   0.991   .     S
H1486  O1495   0.991   .     S
H1487  O1498   0.991   .     S
H1488  O1501   0.991   .     S
H1489  O1505   0.991   .     S
O1494  S1529   1.504   .     D
O1495  S1529   1.676   .     S
O1496  S1530   1.504   .     D
O1497  S1530   1.501   .     D
O1498  S1530   1.675   .     S
O1499  S1531   1.498   .     D
O1500  S1531   1.504   .     D
O1501  S1531   1.676   .     S
O1502  S1532   1.504   .     D
O1503  S1532   1.500   .     D
O1505  S1532   1.676   .     S
O1510  S1533   1.504   .     D
O1511  S1533   1.499   .     D
O1512  S1533   1.680   .     S
O1513  S1534   1.503   .     D
O1514  S1534   1.501   .     D
O1516  S1534   1.681   .     S
O1517  S1535   1.499   .     D
O1518  S1535   1.504   .     D
O1519  S1535   1.682   .     S
O1520  S1536   1.499   .     D
O1521  S1536   1.501   .     D
O1522  S1536   1.681   .     S
O1528  S1529   1.499   .     D
