data_str_m2_o10_o16_pcu_sym.155
_audit_creation_date              2020-01-03
_audit_creation_method            'Materials Studio'
_symmetry_space_group_name_H-M    'P1'
_symmetry_Int_Tables_number       1
_symmetry_cell_setting            triclinic
loop_
_symmetry_equiv_pos_as_xyz
  x,y,z
_cell_length_a                    22.2742
_cell_length_b                    26.0585
_cell_length_c                    26.7941
_cell_angle_alpha                 93.9801
_cell_angle_beta                  77.2020
_cell_angle_gamma                 103.1613
loop_
_atom_site_label
_atom_site_type_symbol
_atom_site_fract_x
_atom_site_fract_y
_atom_site_fract_z
_atom_site_U_iso_or_equiv
_atom_site_adp_type
_atom_site_occupancy
C1     C     0.18179   0.26674   0.25149   0.00000  Uiso   1.00
C2     C     0.13909   0.16812   0.48810   0.00000  Uiso   1.00
C3     C     0.15463   0.18356   0.43626   0.00000  Uiso   1.00
C4     C     0.18649   0.18082   0.01772   0.00000  Uiso   1.00
C5     C     0.24618   0.21319   0.49705   0.00000  Uiso   1.00
C6     C     0.25784   0.23317   0.44814   0.00000  Uiso   1.00
C7     C     0.21254   0.21932   0.41853   0.00000  Uiso   1.00
C8     C     0.17637   0.16231   0.06747   0.00000  Uiso   1.00
C9     C     0.28034   0.20984   0.07653   0.00000  Uiso   1.00
C10    C     0.11145   0.16355   0.40381   0.00000  Uiso   1.00
C11    C     0.19041   0.32270   0.25188   0.00000  Uiso   1.00
C12    C     0.13286   0.16542   0.34739   0.00000  Uiso   1.00
C13    C     0.14271   0.01062   0.24847   0.00000  Uiso   1.00
C14    C     0.15145   0.06659   0.24872   0.00000  Uiso   1.00
C15    C     0.20068   0.17037   0.15289   0.00000  Uiso   1.00
C16    C     0.29294   0.22657   0.02621   0.00000  Uiso   1.00
C17    C     0.22121   0.17888   0.09769   0.00000  Uiso   1.00
C18    C     0.04968   0.13594   0.42545   0.00000  Uiso   1.00
C19    C     0.03225   0.12749   0.47801   0.00000  Uiso   1.00
C20    C     0.07635   0.14180   0.00865   0.00000  Uiso   1.00
Cu21   Cu    0.10710   0.16105   0.24435   0.00000  Uiso   1.00
Cu22   Cu    0.22623   0.17228   0.25564   0.00000  Uiso   1.00
H23    H     0.31557   0.22302   0.09947   0.00000  Uiso   1.00
H24    H     0.09667   0.32015   0.24547   0.00000  Uiso   1.00
H25    H     0.00358   0.20581   0.28973   0.00000  Uiso   1.00
H26    H     0.32968   0.12741   0.21039   0.00000  Uiso   1.00
H27    H     0.30217   0.25984   0.43269   0.00000  Uiso   1.00
H28    H     0.00526   0.25128   0.01058   0.00000  Uiso   1.00
H29    H     0.13315   0.13564   0.08433   0.00000  Uiso   1.00
H30    H     0.05905   0.13332   0.04871   0.00000  Uiso   1.00
H31    H     0.31753   0.10850   0.49511   0.00000  Uiso   1.00
H32    H     0.22311   0.23833   0.38208   0.00000  Uiso   1.00
H33    H     0.23648   0.01317   0.25470   0.00000  Uiso   1.00
N34    N     0.31574   0.18074   0.26416   0.00000  Uiso   1.00
N35    N     0.01759   0.15259   0.23584   0.00000  Uiso   1.00
O36    O     0.12797   0.23807   0.24633   0.00000  Uiso   1.00
O37    O     0.22858   0.24755   0.25587   0.00000  Uiso   1.00
O38    O     0.09181   0.15960   0.31839   0.00000  Uiso   1.00
O39    O     0.19242   0.16908   0.32793   0.00000  Uiso   1.00
O40    O     0.10476   0.08578   0.24413   0.00000  Uiso   1.00
O41    O     0.20536   0.09526   0.25367   0.00000  Uiso   1.00
O42    O     0.14092   0.16425   0.17207   0.00000  Uiso   1.00
O43    O     0.24152   0.17373   0.18160   0.00000  Uiso   1.00
O44    O     0.00509   0.11967   0.39567   0.00000  Uiso   1.00
C45    C     0.32860   0.06444   0.38814   0.00000  Uiso   1.00
H46    H     0.30549   0.04376   0.42472   0.00000  Uiso   1.00
H47    H     0.04063   0.05220   0.37193   0.00000  Uiso   1.00
C48    C     0.28553   0.04741   0.35041   0.00000  Uiso   1.00
H49    H     0.30780   0.06679   0.31317   0.00000  Uiso   1.00
H50    H     0.27719   0.00399   0.34427   0.00000  Uiso   1.00
H51    H     0.23953   0.05857   0.36551   0.00000  Uiso   1.00
C52    C     0.51512   0.26674   0.25149   0.00000  Uiso   1.00
C53    C     0.47242   0.16812   0.48810   0.00000  Uiso   1.00
C54    C     0.48797   0.18356   0.43626   0.00000  Uiso   1.00
C55    C     0.51983   0.18082   0.01772   0.00000  Uiso   1.00
C56    C     0.57951   0.21319   0.49705   0.00000  Uiso   1.00
C57    C     0.59117   0.23317   0.44814   0.00000  Uiso   1.00
C58    C     0.54587   0.21932   0.41853   0.00000  Uiso   1.00
C59    C     0.50970   0.16231   0.06747   0.00000  Uiso   1.00
C60    C     0.61368   0.20984   0.07653   0.00000  Uiso   1.00
C61    C     0.44479   0.16355   0.40381   0.00000  Uiso   1.00
C62    C     0.52374   0.32270   0.25188   0.00000  Uiso   1.00
C63    C     0.46620   0.16542   0.34739   0.00000  Uiso   1.00
C64    C     0.47605   0.01062   0.24847   0.00000  Uiso   1.00
C65    C     0.48479   0.06659   0.24872   0.00000  Uiso   1.00
C66    C     0.53401   0.17037   0.15289   0.00000  Uiso   1.00
C67    C     0.62628   0.22657   0.02621   0.00000  Uiso   1.00
C68    C     0.55454   0.17888   0.09769   0.00000  Uiso   1.00
C69    C     0.38302   0.13594   0.42545   0.00000  Uiso   1.00
C70    C     0.36558   0.12749   0.47801   0.00000  Uiso   1.00
C71    C     0.40969   0.14180   0.00865   0.00000  Uiso   1.00
Cu72   Cu    0.44043   0.16105   0.24435   0.00000  Uiso   1.00
Cu73   Cu    0.55957   0.17228   0.25564   0.00000  Uiso   1.00
H74    H     0.64890   0.22302   0.09947   0.00000  Uiso   1.00
H75    H     0.43000   0.32015   0.24547   0.00000  Uiso   1.00
H76    H     0.33691   0.20581   0.28973   0.00000  Uiso   1.00
H77    H     0.66301   0.12741   0.21039   0.00000  Uiso   1.00
H78    H     0.63550   0.25984   0.43269   0.00000  Uiso   1.00
H79    H     0.33860   0.25128   0.01058   0.00000  Uiso   1.00
H80    H     0.46648   0.13564   0.08433   0.00000  Uiso   1.00
H81    H     0.39239   0.13332   0.04871   0.00000  Uiso   1.00
H82    H     0.65086   0.10850   0.49511   0.00000  Uiso   1.00
H83    H     0.55644   0.23833   0.38208   0.00000  Uiso   1.00
H84    H     0.56981   0.01317   0.25470   0.00000  Uiso   1.00
N85    N     0.64908   0.18074   0.26416   0.00000  Uiso   1.00
N86    N     0.35092   0.15259   0.23584   0.00000  Uiso   1.00
O87    O     0.46131   0.23807   0.24633   0.00000  Uiso   1.00
O88    O     0.56191   0.24755   0.25587   0.00000  Uiso   1.00
O89    O     0.42515   0.15960   0.31839   0.00000  Uiso   1.00
O90    O     0.52575   0.16908   0.32793   0.00000  Uiso   1.00
O91    O     0.43809   0.08578   0.24413   0.00000  Uiso   1.00
O92    O     0.53869   0.09526   0.25367   0.00000  Uiso   1.00
O93    O     0.47425   0.16425   0.17207   0.00000  Uiso   1.00
O94    O     0.57485   0.17373   0.18160   0.00000  Uiso   1.00
O95    O     0.33842   0.11967   0.39567   0.00000  Uiso   1.00
C96    C     0.66193   0.06444   0.38814   0.00000  Uiso   1.00
H97    H     0.63882   0.04376   0.42472   0.00000  Uiso   1.00
H98    H     0.37397   0.05220   0.37193   0.00000  Uiso   1.00
C99    C     0.61886   0.04741   0.35041   0.00000  Uiso   1.00
H100   H     0.64113   0.06679   0.31317   0.00000  Uiso   1.00
H101   H     0.61053   0.00399   0.34427   0.00000  Uiso   1.00
H102   H     0.57286   0.05857   0.36551   0.00000  Uiso   1.00
C103   C     0.84845   0.26674   0.25149   0.00000  Uiso   1.00
C104   C     0.80576   0.16812   0.48810   0.00000  Uiso   1.00
C105   C     0.82130   0.18356   0.43626   0.00000  Uiso   1.00
C106   C     0.85316   0.18082   0.01772   0.00000  Uiso   1.00
C107   C     0.91284   0.21319   0.49705   0.00000  Uiso   1.00
C108   C     0.92451   0.23317   0.44814   0.00000  Uiso   1.00
C109   C     0.87921   0.21932   0.41853   0.00000  Uiso   1.00
C110   C     0.84303   0.16231   0.06747   0.00000  Uiso   1.00
C111   C     0.94701   0.20984   0.07653   0.00000  Uiso   1.00
C112   C     0.77812   0.16355   0.40381   0.00000  Uiso   1.00
C113   C     0.85708   0.32270   0.25188   0.00000  Uiso   1.00
C114   C     0.79953   0.16542   0.34739   0.00000  Uiso   1.00
C115   C     0.80938   0.01062   0.24847   0.00000  Uiso   1.00
C116   C     0.81812   0.06659   0.24872   0.00000  Uiso   1.00
C117   C     0.86735   0.17037   0.15289   0.00000  Uiso   1.00
C118   C     0.95961   0.22657   0.02621   0.00000  Uiso   1.00
C119   C     0.88788   0.17888   0.09769   0.00000  Uiso   1.00
C120   C     0.71635   0.13594   0.42545   0.00000  Uiso   1.00
C121   C     0.69891   0.12749   0.47801   0.00000  Uiso   1.00
C122   C     0.74302   0.14180   0.00865   0.00000  Uiso   1.00
Cu123  Cu    0.77377   0.16105   0.24435   0.00000  Uiso   1.00
Cu124  Cu    0.89290   0.17228   0.25564   0.00000  Uiso   1.00
H125   H     0.98224   0.22302   0.09947   0.00000  Uiso   1.00
H126   H     0.76333   0.32015   0.24547   0.00000  Uiso   1.00
H127   H     0.67025   0.20581   0.28973   0.00000  Uiso   1.00
H128   H     0.99635   0.12741   0.21039   0.00000  Uiso   1.00
H129   H     0.96883   0.25984   0.43269   0.00000  Uiso   1.00
H130   H     0.67193   0.25128   0.01058   0.00000  Uiso   1.00
H131   H     0.79982   0.13564   0.08433   0.00000  Uiso   1.00
H132   H     0.72572   0.13332   0.04871   0.00000  Uiso   1.00
H133   H     0.98420   0.10850   0.49511   0.00000  Uiso   1.00
H134   H     0.88977   0.23833   0.38208   0.00000  Uiso   1.00
H135   H     0.90314   0.01317   0.25470   0.00000  Uiso   1.00
N136   N     0.98241   0.18074   0.26416   0.00000  Uiso   1.00
N137   N     0.68426   0.15259   0.23584   0.00000  Uiso   1.00
O138   O     0.79464   0.23807   0.24633   0.00000  Uiso   1.00
O139   O     0.89524   0.24755   0.25587   0.00000  Uiso   1.00
O140   O     0.75848   0.15960   0.31839   0.00000  Uiso   1.00
O141   O     0.85908   0.16908   0.32793   0.00000  Uiso   1.00
O142   O     0.77142   0.08578   0.24413   0.00000  Uiso   1.00
O143   O     0.87203   0.09526   0.25367   0.00000  Uiso   1.00
O144   O     0.80758   0.16425   0.17207   0.00000  Uiso   1.00
O145   O     0.90819   0.17373   0.18160   0.00000  Uiso   1.00
O146   O     0.67175   0.11967   0.39567   0.00000  Uiso   1.00
C147   C     0.99526   0.06444   0.38814   0.00000  Uiso   1.00
H148   H     0.97215   0.04376   0.42472   0.00000  Uiso   1.00
H149   H     0.70730   0.05220   0.37193   0.00000  Uiso   1.00
C150   C     0.95220   0.04741   0.35041   0.00000  Uiso   1.00
H151   H     0.97447   0.06679   0.31317   0.00000  Uiso   1.00
H152   H     0.94386   0.00399   0.34427   0.00000  Uiso   1.00
H153   H     0.90619   0.05857   0.36551   0.00000  Uiso   1.00
C154   C     0.18179   0.60007   0.25149   0.00000  Uiso   1.00
C155   C     0.13909   0.50145   0.48810   0.00000  Uiso   1.00
C156   C     0.15463   0.51689   0.43626   0.00000  Uiso   1.00
C157   C     0.18649   0.51415   0.01772   0.00000  Uiso   1.00
C158   C     0.24618   0.54653   0.49705   0.00000  Uiso   1.00
C159   C     0.25784   0.56651   0.44814   0.00000  Uiso   1.00
C160   C     0.21254   0.55265   0.41853   0.00000  Uiso   1.00
C161   C     0.17637   0.49565   0.06747   0.00000  Uiso   1.00
C162   C     0.28034   0.54317   0.07653   0.00000  Uiso   1.00
C163   C     0.11145   0.49688   0.40381   0.00000  Uiso   1.00
C164   C     0.19041   0.65603   0.25188   0.00000  Uiso   1.00
C165   C     0.13286   0.49876   0.34739   0.00000  Uiso   1.00
C166   C     0.14271   0.34396   0.24847   0.00000  Uiso   1.00
C167   C     0.15145   0.39992   0.24872   0.00000  Uiso   1.00
C168   C     0.20068   0.50370   0.15289   0.00000  Uiso   1.00
C169   C     0.29294   0.55990   0.02621   0.00000  Uiso   1.00
C170   C     0.22121   0.51221   0.09769   0.00000  Uiso   1.00
C171   C     0.04968   0.46928   0.42545   0.00000  Uiso   1.00
C172   C     0.03225   0.46082   0.47801   0.00000  Uiso   1.00
C173   C     0.07635   0.47513   0.00865   0.00000  Uiso   1.00
Cu174  Cu    0.10710   0.49439   0.24435   0.00000  Uiso   1.00
Cu175  Cu    0.22623   0.50561   0.25564   0.00000  Uiso   1.00
H176   H     0.31557   0.55635   0.09947   0.00000  Uiso   1.00
H177   H     0.09667   0.65348   0.24547   0.00000  Uiso   1.00
H178   H     0.00358   0.53915   0.28973   0.00000  Uiso   1.00
H179   H     0.32968   0.46074   0.21039   0.00000  Uiso   1.00
H180   H     0.30217   0.59318   0.43269   0.00000  Uiso   1.00
H181   H     0.00526   0.58462   0.01058   0.00000  Uiso   1.00
H182   H     0.13315   0.46897   0.08433   0.00000  Uiso   1.00
H183   H     0.05905   0.46665   0.04871   0.00000  Uiso   1.00
H184   H     0.31753   0.44183   0.49511   0.00000  Uiso   1.00
H185   H     0.22311   0.57166   0.38208   0.00000  Uiso   1.00
H186   H     0.23648   0.34651   0.25470   0.00000  Uiso   1.00
N187   N     0.31574   0.51407   0.26416   0.00000  Uiso   1.00
N188   N     0.01759   0.48593   0.23584   0.00000  Uiso   1.00
O189   O     0.12797   0.57141   0.24633   0.00000  Uiso   1.00
O190   O     0.22858   0.58089   0.25587   0.00000  Uiso   1.00
O191   O     0.09181   0.49293   0.31839   0.00000  Uiso   1.00
O192   O     0.19242   0.50241   0.32793   0.00000  Uiso   1.00
O193   O     0.10476   0.41911   0.24413   0.00000  Uiso   1.00
O194   O     0.20536   0.42859   0.25367   0.00000  Uiso   1.00
O195   O     0.14092   0.49759   0.17207   0.00000  Uiso   1.00
O196   O     0.24152   0.50707   0.18160   0.00000  Uiso   1.00
O197   O     0.00509   0.45300   0.39567   0.00000  Uiso   1.00
C198   C     0.32860   0.39777   0.38814   0.00000  Uiso   1.00
H199   H     0.30549   0.37710   0.42472   0.00000  Uiso   1.00
H200   H     0.04063   0.38554   0.37193   0.00000  Uiso   1.00
C201   C     0.28553   0.38074   0.35041   0.00000  Uiso   1.00
H202   H     0.30780   0.40012   0.31317   0.00000  Uiso   1.00
H203   H     0.27719   0.33732   0.34427   0.00000  Uiso   1.00
H204   H     0.23953   0.39190   0.36551   0.00000  Uiso   1.00
C205   C     0.51512   0.60007   0.25149   0.00000  Uiso   1.00
C206   C     0.47242   0.50145   0.48810   0.00000  Uiso   1.00
C207   C     0.48797   0.51689   0.43626   0.00000  Uiso   1.00
C208   C     0.51983   0.51415   0.01772   0.00000  Uiso   1.00
C209   C     0.57951   0.54653   0.49705   0.00000  Uiso   1.00
C210   C     0.59117   0.56651   0.44814   0.00000  Uiso   1.00
C211   C     0.54587   0.55265   0.41853   0.00000  Uiso   1.00
C212   C     0.50970   0.49565   0.06747   0.00000  Uiso   1.00
C213   C     0.61368   0.54317   0.07653   0.00000  Uiso   1.00
C214   C     0.44479   0.49688   0.40381   0.00000  Uiso   1.00
C215   C     0.52374   0.65603   0.25188   0.00000  Uiso   1.00
C216   C     0.46620   0.49876   0.34739   0.00000  Uiso   1.00
C217   C     0.47605   0.34396   0.24847   0.00000  Uiso   1.00
C218   C     0.48479   0.39992   0.24872   0.00000  Uiso   1.00
C219   C     0.53401   0.50370   0.15289   0.00000  Uiso   1.00
C220   C     0.62628   0.55990   0.02621   0.00000  Uiso   1.00
C221   C     0.55454   0.51221   0.09769   0.00000  Uiso   1.00
C222   C     0.38302   0.46928   0.42545   0.00000  Uiso   1.00
C223   C     0.36558   0.46082   0.47801   0.00000  Uiso   1.00
C224   C     0.40969   0.47513   0.00865   0.00000  Uiso   1.00
Cu225  Cu    0.44043   0.49439   0.24435   0.00000  Uiso   1.00
Cu226  Cu    0.55957   0.50561   0.25564   0.00000  Uiso   1.00
H227   H     0.64890   0.55635   0.09947   0.00000  Uiso   1.00
H228   H     0.43000   0.65348   0.24547   0.00000  Uiso   1.00
H229   H     0.33691   0.53915   0.28973   0.00000  Uiso   1.00
H230   H     0.66301   0.46074   0.21039   0.00000  Uiso   1.00
H231   H     0.63550   0.59318   0.43269   0.00000  Uiso   1.00
H232   H     0.33860   0.58462   0.01058   0.00000  Uiso   1.00
H233   H     0.46648   0.46897   0.08433   0.00000  Uiso   1.00
H234   H     0.39239   0.46665   0.04871   0.00000  Uiso   1.00
H235   H     0.65086   0.44183   0.49511   0.00000  Uiso   1.00
H236   H     0.55644   0.57166   0.38208   0.00000  Uiso   1.00
H237   H     0.56981   0.34651   0.25470   0.00000  Uiso   1.00
N238   N     0.64908   0.51407   0.26416   0.00000  Uiso   1.00
N239   N     0.35092   0.48593   0.23584   0.00000  Uiso   1.00
O240   O     0.46131   0.57141   0.24633   0.00000  Uiso   1.00
O241   O     0.56191   0.58089   0.25587   0.00000  Uiso   1.00
O242   O     0.42515   0.49293   0.31839   0.00000  Uiso   1.00
O243   O     0.52575   0.50241   0.32793   0.00000  Uiso   1.00
O244   O     0.43809   0.41911   0.24413   0.00000  Uiso   1.00
O245   O     0.53869   0.42859   0.25367   0.00000  Uiso   1.00
O246   O     0.47425   0.49759   0.17207   0.00000  Uiso   1.00
O247   O     0.57485   0.50707   0.18160   0.00000  Uiso   1.00
O248   O     0.33842   0.45300   0.39567   0.00000  Uiso   1.00
C249   C     0.66193   0.39777   0.38814   0.00000  Uiso   1.00
H250   H     0.63882   0.37710   0.42472   0.00000  Uiso   1.00
H251   H     0.37397   0.38554   0.37193   0.00000  Uiso   1.00
C252   C     0.61886   0.38074   0.35041   0.00000  Uiso   1.00
H253   H     0.64113   0.40012   0.31317   0.00000  Uiso   1.00
H254   H     0.61053   0.33732   0.34427   0.00000  Uiso   1.00
H255   H     0.57286   0.39190   0.36551   0.00000  Uiso   1.00
C256   C     0.84845   0.60007   0.25149   0.00000  Uiso   1.00
C257   C     0.80576   0.50145   0.48810   0.00000  Uiso   1.00
C258   C     0.82130   0.51689   0.43626   0.00000  Uiso   1.00
C259   C     0.85316   0.51415   0.01772   0.00000  Uiso   1.00
C260   C     0.91284   0.54653   0.49705   0.00000  Uiso   1.00
C261   C     0.92451   0.56651   0.44814   0.00000  Uiso   1.00
C262   C     0.87921   0.55265   0.41853   0.00000  Uiso   1.00
C263   C     0.84303   0.49565   0.06747   0.00000  Uiso   1.00
C264   C     0.94701   0.54317   0.07653   0.00000  Uiso   1.00
C265   C     0.77812   0.49688   0.40381   0.00000  Uiso   1.00
C266   C     0.85708   0.65603   0.25188   0.00000  Uiso   1.00
C267   C     0.79953   0.49876   0.34739   0.00000  Uiso   1.00
C268   C     0.80938   0.34396   0.24847   0.00000  Uiso   1.00
C269   C     0.81812   0.39992   0.24872   0.00000  Uiso   1.00
C270   C     0.86735   0.50370   0.15289   0.00000  Uiso   1.00
C271   C     0.95961   0.55990   0.02621   0.00000  Uiso   1.00
C272   C     0.88788   0.51221   0.09769   0.00000  Uiso   1.00
C273   C     0.71635   0.46928   0.42545   0.00000  Uiso   1.00
C274   C     0.69891   0.46082   0.47801   0.00000  Uiso   1.00
C275   C     0.74302   0.47513   0.00865   0.00000  Uiso   1.00
Cu276  Cu    0.77377   0.49439   0.24435   0.00000  Uiso   1.00
Cu277  Cu    0.89290   0.50561   0.25564   0.00000  Uiso   1.00
H278   H     0.98224   0.55635   0.09947   0.00000  Uiso   1.00
H279   H     0.76333   0.65348   0.24547   0.00000  Uiso   1.00
H280   H     0.67025   0.53915   0.28973   0.00000  Uiso   1.00
H281   H     0.99635   0.46074   0.21039   0.00000  Uiso   1.00
H282   H     0.96883   0.59318   0.43269   0.00000  Uiso   1.00
H283   H     0.67193   0.58462   0.01058   0.00000  Uiso   1.00
H284   H     0.79982   0.46897   0.08433   0.00000  Uiso   1.00
H285   H     0.72572   0.46665   0.04871   0.00000  Uiso   1.00
H286   H     0.98420   0.44183   0.49511   0.00000  Uiso   1.00
H287   H     0.88977   0.57166   0.38208   0.00000  Uiso   1.00
H288   H     0.90314   0.34651   0.25470   0.00000  Uiso   1.00
N289   N     0.98241   0.51407   0.26416   0.00000  Uiso   1.00
N290   N     0.68426   0.48593   0.23584   0.00000  Uiso   1.00
O291   O     0.79464   0.57141   0.24633   0.00000  Uiso   1.00
O292   O     0.89524   0.58089   0.25587   0.00000  Uiso   1.00
O293   O     0.75848   0.49293   0.31839   0.00000  Uiso   1.00
O294   O     0.85908   0.50241   0.32793   0.00000  Uiso   1.00
O295   O     0.77142   0.41911   0.24413   0.00000  Uiso   1.00
O296   O     0.87203   0.42859   0.25367   0.00000  Uiso   1.00
O297   O     0.80758   0.49759   0.17207   0.00000  Uiso   1.00
O298   O     0.90819   0.50707   0.18160   0.00000  Uiso   1.00
O299   O     0.67175   0.45300   0.39567   0.00000  Uiso   1.00
C300   C     0.99526   0.39777   0.38814   0.00000  Uiso   1.00
H301   H     0.97215   0.37710   0.42472   0.00000  Uiso   1.00
H302   H     0.70730   0.38554   0.37193   0.00000  Uiso   1.00
C303   C     0.95220   0.38074   0.35041   0.00000  Uiso   1.00
H304   H     0.97447   0.40012   0.31317   0.00000  Uiso   1.00
H305   H     0.94386   0.33732   0.34427   0.00000  Uiso   1.00
H306   H     0.90619   0.39190   0.36551   0.00000  Uiso   1.00
C307   C     0.18179   0.93341   0.25149   0.00000  Uiso   1.00
C308   C     0.13909   0.83478   0.48810   0.00000  Uiso   1.00
C309   C     0.15463   0.85023   0.43626   0.00000  Uiso   1.00
C310   C     0.18649   0.84748   0.01772   0.00000  Uiso   1.00
C311   C     0.24618   0.87986   0.49705   0.00000  Uiso   1.00
C312   C     0.25784   0.89984   0.44814   0.00000  Uiso   1.00
C313   C     0.21254   0.88599   0.41853   0.00000  Uiso   1.00
C314   C     0.17637   0.82898   0.06747   0.00000  Uiso   1.00
C315   C     0.28034   0.87650   0.07653   0.00000  Uiso   1.00
C316   C     0.11145   0.83021   0.40381   0.00000  Uiso   1.00
C317   C     0.19041   0.98936   0.25188   0.00000  Uiso   1.00
C318   C     0.13286   0.83209   0.34739   0.00000  Uiso   1.00
C319   C     0.14271   0.67729   0.24847   0.00000  Uiso   1.00
C320   C     0.15145   0.73326   0.24872   0.00000  Uiso   1.00
C321   C     0.20068   0.83703   0.15289   0.00000  Uiso   1.00
C322   C     0.29294   0.89323   0.02621   0.00000  Uiso   1.00
C323   C     0.22121   0.84554   0.09769   0.00000  Uiso   1.00
C324   C     0.04968   0.80261   0.42545   0.00000  Uiso   1.00
C325   C     0.03225   0.79416   0.47801   0.00000  Uiso   1.00
C326   C     0.07635   0.80847   0.00865   0.00000  Uiso   1.00
Cu327  Cu    0.10710   0.82772   0.24435   0.00000  Uiso   1.00
Cu328  Cu    0.22623   0.83895   0.25564   0.00000  Uiso   1.00
H329   H     0.31557   0.88968   0.09947   0.00000  Uiso   1.00
H330   H     0.09667   0.98681   0.24547   0.00000  Uiso   1.00
H331   H     0.00358   0.87248   0.28973   0.00000  Uiso   1.00
H332   H     0.32968   0.79408   0.21039   0.00000  Uiso   1.00
H333   H     0.30217   0.92651   0.43269   0.00000  Uiso   1.00
H334   H     0.00526   0.91795   0.01058   0.00000  Uiso   1.00
H335   H     0.13315   0.80231   0.08433   0.00000  Uiso   1.00
H336   H     0.05905   0.79998   0.04871   0.00000  Uiso   1.00
H337   H     0.31753   0.77516   0.49511   0.00000  Uiso   1.00
H338   H     0.22311   0.90499   0.38208   0.00000  Uiso   1.00
H339   H     0.23648   0.67984   0.25470   0.00000  Uiso   1.00
N340   N     0.31574   0.84741   0.26416   0.00000  Uiso   1.00
N341   N     0.01759   0.81926   0.23584   0.00000  Uiso   1.00
O342   O     0.12797   0.90474   0.24633   0.00000  Uiso   1.00
O343   O     0.22858   0.91422   0.25587   0.00000  Uiso   1.00
O344   O     0.09181   0.82627   0.31839   0.00000  Uiso   1.00
O345   O     0.19242   0.83575   0.32793   0.00000  Uiso   1.00
O346   O     0.10476   0.75245   0.24413   0.00000  Uiso   1.00
O347   O     0.20536   0.76193   0.25367   0.00000  Uiso   1.00
O348   O     0.14092   0.83092   0.17207   0.00000  Uiso   1.00
O349   O     0.24152   0.84040   0.18160   0.00000  Uiso   1.00
O350   O     0.00509   0.78633   0.39567   0.00000  Uiso   1.00
C351   C     0.32860   0.73111   0.38814   0.00000  Uiso   1.00
H352   H     0.30549   0.71043   0.42472   0.00000  Uiso   1.00
H353   H     0.04063   0.71887   0.37193   0.00000  Uiso   1.00
C354   C     0.28553   0.71407   0.35041   0.00000  Uiso   1.00
H355   H     0.30780   0.73345   0.31317   0.00000  Uiso   1.00
H356   H     0.27719   0.67066   0.34427   0.00000  Uiso   1.00
H357   H     0.23953   0.72524   0.36551   0.00000  Uiso   1.00
C358   C     0.51512   0.93341   0.25149   0.00000  Uiso   1.00
C359   C     0.47242   0.83478   0.48810   0.00000  Uiso   1.00
C360   C     0.48797   0.85023   0.43626   0.00000  Uiso   1.00
C361   C     0.51983   0.84748   0.01772   0.00000  Uiso   1.00
C362   C     0.57951   0.87986   0.49705   0.00000  Uiso   1.00
C363   C     0.59117   0.89984   0.44814   0.00000  Uiso   1.00
C364   C     0.54587   0.88599   0.41853   0.00000  Uiso   1.00
C365   C     0.50970   0.82898   0.06747   0.00000  Uiso   1.00
C366   C     0.61368   0.87650   0.07653   0.00000  Uiso   1.00
C367   C     0.44479   0.83021   0.40381   0.00000  Uiso   1.00
C368   C     0.52374   0.98936   0.25188   0.00000  Uiso   1.00
C369   C     0.46620   0.83209   0.34739   0.00000  Uiso   1.00
C370   C     0.47605   0.67729   0.24847   0.00000  Uiso   1.00
C371   C     0.48479   0.73326   0.24872   0.00000  Uiso   1.00
C372   C     0.53401   0.83703   0.15289   0.00000  Uiso   1.00
C373   C     0.62628   0.89323   0.02621   0.00000  Uiso   1.00
C374   C     0.55454   0.84554   0.09769   0.00000  Uiso   1.00
C375   C     0.38302   0.80261   0.42545   0.00000  Uiso   1.00
C376   C     0.36558   0.79416   0.47801   0.00000  Uiso   1.00
C377   C     0.40969   0.80847   0.00865   0.00000  Uiso   1.00
Cu378  Cu    0.44043   0.82772   0.24435   0.00000  Uiso   1.00
Cu379  Cu    0.55957   0.83895   0.25564   0.00000  Uiso   1.00
H380   H     0.64890   0.88968   0.09947   0.00000  Uiso   1.00
H381   H     0.43000   0.98681   0.24547   0.00000  Uiso   1.00
H382   H     0.33691   0.87248   0.28973   0.00000  Uiso   1.00
H383   H     0.66301   0.79408   0.21039   0.00000  Uiso   1.00
H384   H     0.63550   0.92651   0.43269   0.00000  Uiso   1.00
H385   H     0.33860   0.91795   0.01058   0.00000  Uiso   1.00
H386   H     0.46648   0.80231   0.08433   0.00000  Uiso   1.00
H387   H     0.39239   0.79998   0.04871   0.00000  Uiso   1.00
H388   H     0.65086   0.77516   0.49511   0.00000  Uiso   1.00
H389   H     0.55644   0.90499   0.38208   0.00000  Uiso   1.00
H390   H     0.56981   0.67984   0.25470   0.00000  Uiso   1.00
N391   N     0.64908   0.84741   0.26416   0.00000  Uiso   1.00
N392   N     0.35092   0.81926   0.23584   0.00000  Uiso   1.00
O393   O     0.46131   0.90474   0.24633   0.00000  Uiso   1.00
O394   O     0.56191   0.91422   0.25587   0.00000  Uiso   1.00
O395   O     0.42515   0.82627   0.31839   0.00000  Uiso   1.00
O396   O     0.52575   0.83575   0.32793   0.00000  Uiso   1.00
O397   O     0.43809   0.75245   0.24413   0.00000  Uiso   1.00
O398   O     0.53869   0.76193   0.25367   0.00000  Uiso   1.00
O399   O     0.47425   0.83092   0.17207   0.00000  Uiso   1.00
O400   O     0.57485   0.84040   0.18160   0.00000  Uiso   1.00
O401   O     0.33842   0.78633   0.39567   0.00000  Uiso   1.00
C402   C     0.66193   0.73111   0.38814   0.00000  Uiso   1.00
H403   H     0.63882   0.71043   0.42472   0.00000  Uiso   1.00
H404   H     0.37397   0.71887   0.37193   0.00000  Uiso   1.00
C405   C     0.61886   0.71407   0.35041   0.00000  Uiso   1.00
H406   H     0.64113   0.73345   0.31317   0.00000  Uiso   1.00
H407   H     0.61053   0.67066   0.34427   0.00000  Uiso   1.00
H408   H     0.57286   0.72524   0.36551   0.00000  Uiso   1.00
C409   C     0.84845   0.93341   0.25149   0.00000  Uiso   1.00
C410   C     0.80576   0.83478   0.48810   0.00000  Uiso   1.00
C411   C     0.82130   0.85023   0.43626   0.00000  Uiso   1.00
C412   C     0.85316   0.84748   0.01772   0.00000  Uiso   1.00
C413   C     0.91284   0.87986   0.49705   0.00000  Uiso   1.00
C414   C     0.92451   0.89984   0.44814   0.00000  Uiso   1.00
C415   C     0.87921   0.88599   0.41853   0.00000  Uiso   1.00
C416   C     0.84303   0.82898   0.06747   0.00000  Uiso   1.00
C417   C     0.94701   0.87650   0.07653   0.00000  Uiso   1.00
C418   C     0.77812   0.83021   0.40381   0.00000  Uiso   1.00
C419   C     0.85708   0.98936   0.25188   0.00000  Uiso   1.00
C420   C     0.79953   0.83209   0.34739   0.00000  Uiso   1.00
C421   C     0.80938   0.67729   0.24847   0.00000  Uiso   1.00
C422   C     0.81812   0.73326   0.24872   0.00000  Uiso   1.00
C423   C     0.86735   0.83703   0.15289   0.00000  Uiso   1.00
C424   C     0.95961   0.89323   0.02621   0.00000  Uiso   1.00
C425   C     0.88788   0.84554   0.09769   0.00000  Uiso   1.00
C426   C     0.71635   0.80261   0.42545   0.00000  Uiso   1.00
C427   C     0.69891   0.79416   0.47801   0.00000  Uiso   1.00
C428   C     0.74302   0.80847   0.00865   0.00000  Uiso   1.00
Cu429  Cu    0.77377   0.82772   0.24435   0.00000  Uiso   1.00
Cu430  Cu    0.89290   0.83895   0.25564   0.00000  Uiso   1.00
H431   H     0.98224   0.88968   0.09947   0.00000  Uiso   1.00
H432   H     0.76333   0.98681   0.24547   0.00000  Uiso   1.00
H433   H     0.67025   0.87248   0.28973   0.00000  Uiso   1.00
H434   H     0.99635   0.79408   0.21039   0.00000  Uiso   1.00
H435   H     0.96883   0.92651   0.43269   0.00000  Uiso   1.00
H436   H     0.67193   0.91795   0.01058   0.00000  Uiso   1.00
H437   H     0.79982   0.80231   0.08433   0.00000  Uiso   1.00
H438   H     0.72572   0.79998   0.04871   0.00000  Uiso   1.00
H439   H     0.98420   0.77516   0.49511   0.00000  Uiso   1.00
H440   H     0.88977   0.90499   0.38208   0.00000  Uiso   1.00
H441   H     0.90314   0.67984   0.25470   0.00000  Uiso   1.00
N442   N     0.98241   0.84741   0.26416   0.00000  Uiso   1.00
N443   N     0.68426   0.81926   0.23584   0.00000  Uiso   1.00
O444   O     0.79464   0.90474   0.24633   0.00000  Uiso   1.00
O445   O     0.89524   0.91422   0.25587   0.00000  Uiso   1.00
O446   O     0.75848   0.82627   0.31839   0.00000  Uiso   1.00
O447   O     0.85908   0.83575   0.32793   0.00000  Uiso   1.00
O448   O     0.77142   0.75245   0.24413   0.00000  Uiso   1.00
O449   O     0.87203   0.76193   0.25367   0.00000  Uiso   1.00
O450   O     0.80758   0.83092   0.17207   0.00000  Uiso   1.00
O451   O     0.90819   0.84040   0.18160   0.00000  Uiso   1.00
O452   O     0.67175   0.78633   0.39567   0.00000  Uiso   1.00
C453   C     0.99526   0.73111   0.38814   0.00000  Uiso   1.00
H454   H     0.97215   0.71043   0.42472   0.00000  Uiso   1.00
H455   H     0.70730   0.71887   0.37193   0.00000  Uiso   1.00
C456   C     0.95220   0.71407   0.35041   0.00000  Uiso   1.00
H457   H     0.97447   0.73345   0.31317   0.00000  Uiso   1.00
H458   H     0.94386   0.67066   0.34427   0.00000  Uiso   1.00
H459   H     0.90619   0.72524   0.36551   0.00000  Uiso   1.00
C460   C     0.18179   0.26674   0.75149   0.00000  Uiso   1.00
C461   C     0.13909   0.16812   0.98810   0.00000  Uiso   1.00
C462   C     0.15463   0.18356   0.93626   0.00000  Uiso   1.00
C463   C     0.18649   0.18082   0.51772   0.00000  Uiso   1.00
C464   C     0.24618   0.21319   0.99705   0.00000  Uiso   1.00
C465   C     0.25784   0.23317   0.94814   0.00000  Uiso   1.00
C466   C     0.21254   0.21932   0.91853   0.00000  Uiso   1.00
C467   C     0.17637   0.16231   0.56747   0.00000  Uiso   1.00
C468   C     0.28034   0.20984   0.57653   0.00000  Uiso   1.00
C469   C     0.11145   0.16355   0.90381   0.00000  Uiso   1.00
C470   C     0.19041   0.32270   0.75188   0.00000  Uiso   1.00
C471   C     0.13286   0.16542   0.84739   0.00000  Uiso   1.00
C472   C     0.14271   0.01062   0.74847   0.00000  Uiso   1.00
C473   C     0.15145   0.06659   0.74872   0.00000  Uiso   1.00
C474   C     0.20068   0.17037   0.65289   0.00000  Uiso   1.00
C475   C     0.29294   0.22657   0.52621   0.00000  Uiso   1.00
C476   C     0.22121   0.17888   0.59769   0.00000  Uiso   1.00
C477   C     0.04968   0.13594   0.92545   0.00000  Uiso   1.00
C478   C     0.03225   0.12749   0.97801   0.00000  Uiso   1.00
C479   C     0.07635   0.14180   0.50865   0.00000  Uiso   1.00
Cu480  Cu    0.10710   0.16105   0.74435   0.00000  Uiso   1.00
Cu481  Cu    0.22623   0.17228   0.75564   0.00000  Uiso   1.00
H482   H     0.31557   0.22302   0.59947   0.00000  Uiso   1.00
H483   H     0.09667   0.32015   0.74547   0.00000  Uiso   1.00
H484   H     0.00358   0.20581   0.78973   0.00000  Uiso   1.00
H485   H     0.32968   0.12741   0.71039   0.00000  Uiso   1.00
H486   H     0.30217   0.25984   0.93269   0.00000  Uiso   1.00
H487   H     0.00526   0.25128   0.51058   0.00000  Uiso   1.00
H488   H     0.13315   0.13564   0.58433   0.00000  Uiso   1.00
H489   H     0.05905   0.13332   0.54871   0.00000  Uiso   1.00
H490   H     0.31753   0.10850   0.99511   0.00000  Uiso   1.00
H491   H     0.22311   0.23833   0.88208   0.00000  Uiso   1.00
H492   H     0.23648   0.01317   0.75470   0.00000  Uiso   1.00
N493   N     0.31574   0.18074   0.76416   0.00000  Uiso   1.00
N494   N     0.01759   0.15259   0.73584   0.00000  Uiso   1.00
O495   O     0.12797   0.23807   0.74633   0.00000  Uiso   1.00
O496   O     0.22858   0.24755   0.75587   0.00000  Uiso   1.00
O497   O     0.09181   0.15960   0.81839   0.00000  Uiso   1.00
O498   O     0.19242   0.16908   0.82793   0.00000  Uiso   1.00
O499   O     0.10476   0.08578   0.74413   0.00000  Uiso   1.00
O500   O     0.20536   0.09526   0.75367   0.00000  Uiso   1.00
O501   O     0.14092   0.16425   0.67207   0.00000  Uiso   1.00
O502   O     0.24152   0.17373   0.68160   0.00000  Uiso   1.00
O503   O     0.00509   0.11967   0.89567   0.00000  Uiso   1.00
C504   C     0.32860   0.06444   0.88814   0.00000  Uiso   1.00
H505   H     0.30549   0.04376   0.92472   0.00000  Uiso   1.00
H506   H     0.04063   0.05220   0.87193   0.00000  Uiso   1.00
C507   C     0.28553   0.04741   0.85041   0.00000  Uiso   1.00
H508   H     0.30780   0.06679   0.81317   0.00000  Uiso   1.00
H509   H     0.27719   0.00399   0.84427   0.00000  Uiso   1.00
H510   H     0.23953   0.05857   0.86551   0.00000  Uiso   1.00
C511   C     0.51512   0.26674   0.75149   0.00000  Uiso   1.00
C512   C     0.47242   0.16812   0.98810   0.00000  Uiso   1.00
C513   C     0.48797   0.18356   0.93626   0.00000  Uiso   1.00
C514   C     0.51983   0.18082   0.51772   0.00000  Uiso   1.00
C515   C     0.57951   0.21319   0.99705   0.00000  Uiso   1.00
C516   C     0.59117   0.23317   0.94814   0.00000  Uiso   1.00
C517   C     0.54587   0.21932   0.91853   0.00000  Uiso   1.00
C518   C     0.50970   0.16231   0.56747   0.00000  Uiso   1.00
C519   C     0.61368   0.20984   0.57653   0.00000  Uiso   1.00
C520   C     0.44479   0.16355   0.90381   0.00000  Uiso   1.00
C521   C     0.52374   0.32270   0.75188   0.00000  Uiso   1.00
C522   C     0.46620   0.16542   0.84739   0.00000  Uiso   1.00
C523   C     0.47605   0.01062   0.74847   0.00000  Uiso   1.00
C524   C     0.48479   0.06659   0.74872   0.00000  Uiso   1.00
C525   C     0.53401   0.17037   0.65289   0.00000  Uiso   1.00
C526   C     0.62628   0.22657   0.52621   0.00000  Uiso   1.00
C527   C     0.55454   0.17888   0.59769   0.00000  Uiso   1.00
C528   C     0.38302   0.13594   0.92545   0.00000  Uiso   1.00
C529   C     0.36558   0.12749   0.97801   0.00000  Uiso   1.00
C530   C     0.40969   0.14180   0.50865   0.00000  Uiso   1.00
Cu531  Cu    0.44043   0.16105   0.74435   0.00000  Uiso   1.00
Cu532  Cu    0.55957   0.17228   0.75564   0.00000  Uiso   1.00
H533   H     0.64890   0.22302   0.59947   0.00000  Uiso   1.00
H534   H     0.43000   0.32015   0.74547   0.00000  Uiso   1.00
H535   H     0.33691   0.20581   0.78973   0.00000  Uiso   1.00
H536   H     0.66301   0.12741   0.71039   0.00000  Uiso   1.00
H537   H     0.63550   0.25984   0.93269   0.00000  Uiso   1.00
H538   H     0.33860   0.25128   0.51058   0.00000  Uiso   1.00
H539   H     0.46648   0.13564   0.58433   0.00000  Uiso   1.00
H540   H     0.39239   0.13332   0.54871   0.00000  Uiso   1.00
H541   H     0.65086   0.10850   0.99511   0.00000  Uiso   1.00
H542   H     0.55644   0.23833   0.88208   0.00000  Uiso   1.00
H543   H     0.56981   0.01317   0.75470   0.00000  Uiso   1.00
N544   N     0.64908   0.18074   0.76416   0.00000  Uiso   1.00
N545   N     0.35092   0.15259   0.73584   0.00000  Uiso   1.00
O546   O     0.46131   0.23807   0.74633   0.00000  Uiso   1.00
O547   O     0.56191   0.24755   0.75587   0.00000  Uiso   1.00
O548   O     0.42515   0.15960   0.81839   0.00000  Uiso   1.00
O549   O     0.52575   0.16908   0.82793   0.00000  Uiso   1.00
O550   O     0.43809   0.08578   0.74413   0.00000  Uiso   1.00
O551   O     0.53869   0.09526   0.75367   0.00000  Uiso   1.00
O552   O     0.47425   0.16425   0.67207   0.00000  Uiso   1.00
O553   O     0.57485   0.17373   0.68160   0.00000  Uiso   1.00
O554   O     0.33842   0.11967   0.89567   0.00000  Uiso   1.00
C555   C     0.66193   0.06444   0.88814   0.00000  Uiso   1.00
H556   H     0.63882   0.04376   0.92472   0.00000  Uiso   1.00
H557   H     0.37397   0.05220   0.87193   0.00000  Uiso   1.00
C558   C     0.61886   0.04741   0.85041   0.00000  Uiso   1.00
H559   H     0.64113   0.06679   0.81317   0.00000  Uiso   1.00
H560   H     0.61053   0.00399   0.84427   0.00000  Uiso   1.00
H561   H     0.57286   0.05857   0.86551   0.00000  Uiso   1.00
C562   C     0.84845   0.26674   0.75149   0.00000  Uiso   1.00
C563   C     0.80576   0.16812   0.98810   0.00000  Uiso   1.00
C564   C     0.82130   0.18356   0.93626   0.00000  Uiso   1.00
C565   C     0.85316   0.18082   0.51772   0.00000  Uiso   1.00
C566   C     0.91284   0.21319   0.99705   0.00000  Uiso   1.00
C567   C     0.92451   0.23317   0.94814   0.00000  Uiso   1.00
C568   C     0.87921   0.21932   0.91853   0.00000  Uiso   1.00
C569   C     0.84303   0.16231   0.56747   0.00000  Uiso   1.00
C570   C     0.94701   0.20984   0.57653   0.00000  Uiso   1.00
C571   C     0.77812   0.16355   0.90381   0.00000  Uiso   1.00
C572   C     0.85708   0.32270   0.75188   0.00000  Uiso   1.00
C573   C     0.79953   0.16542   0.84739   0.00000  Uiso   1.00
C574   C     0.80938   0.01062   0.74847   0.00000  Uiso   1.00
C575   C     0.81812   0.06659   0.74872   0.00000  Uiso   1.00
C576   C     0.86735   0.17037   0.65289   0.00000  Uiso   1.00
C577   C     0.95961   0.22657   0.52621   0.00000  Uiso   1.00
C578   C     0.88788   0.17888   0.59769   0.00000  Uiso   1.00
C579   C     0.71635   0.13594   0.92545   0.00000  Uiso   1.00
C580   C     0.69891   0.12749   0.97801   0.00000  Uiso   1.00
C581   C     0.74302   0.14180   0.50865   0.00000  Uiso   1.00
Cu582  Cu    0.77377   0.16105   0.74435   0.00000  Uiso   1.00
Cu583  Cu    0.89290   0.17228   0.75564   0.00000  Uiso   1.00
H584   H     0.98224   0.22302   0.59947   0.00000  Uiso   1.00
H585   H     0.76333   0.32015   0.74547   0.00000  Uiso   1.00
H586   H     0.67025   0.20581   0.78973   0.00000  Uiso   1.00
H587   H     0.99635   0.12741   0.71039   0.00000  Uiso   1.00
H588   H     0.96883   0.25984   0.93269   0.00000  Uiso   1.00
H589   H     0.67193   0.25128   0.51058   0.00000  Uiso   1.00
H590   H     0.79982   0.13564   0.58433   0.00000  Uiso   1.00
H591   H     0.72572   0.13332   0.54871   0.00000  Uiso   1.00
H592   H     0.98420   0.10850   0.99511   0.00000  Uiso   1.00
H593   H     0.88977   0.23833   0.88208   0.00000  Uiso   1.00
H594   H     0.90314   0.01317   0.75470   0.00000  Uiso   1.00
N595   N     0.98241   0.18074   0.76416   0.00000  Uiso   1.00
N596   N     0.68426   0.15259   0.73584   0.00000  Uiso   1.00
O597   O     0.79464   0.23807   0.74633   0.00000  Uiso   1.00
O598   O     0.89524   0.24755   0.75587   0.00000  Uiso   1.00
O599   O     0.75848   0.15960   0.81839   0.00000  Uiso   1.00
O600   O     0.85908   0.16908   0.82793   0.00000  Uiso   1.00
O601   O     0.77142   0.08578   0.74413   0.00000  Uiso   1.00
O602   O     0.87203   0.09526   0.75367   0.00000  Uiso   1.00
O603   O     0.80758   0.16425   0.67207   0.00000  Uiso   1.00
O604   O     0.90819   0.17373   0.68160   0.00000  Uiso   1.00
O605   O     0.67175   0.11967   0.89567   0.00000  Uiso   1.00
C606   C     0.99526   0.06444   0.88814   0.00000  Uiso   1.00
H607   H     0.97215   0.04376   0.92472   0.00000  Uiso   1.00
H608   H     0.70730   0.05220   0.87193   0.00000  Uiso   1.00
C609   C     0.95220   0.04741   0.85041   0.00000  Uiso   1.00
H610   H     0.97447   0.06679   0.81317   0.00000  Uiso   1.00
H611   H     0.94386   0.00399   0.84427   0.00000  Uiso   1.00
H612   H     0.90619   0.05857   0.86551   0.00000  Uiso   1.00
C613   C     0.18179   0.60007   0.75149   0.00000  Uiso   1.00
C614   C     0.13909   0.50145   0.98810   0.00000  Uiso   1.00
C615   C     0.15463   0.51689   0.93626   0.00000  Uiso   1.00
C616   C     0.18649   0.51415   0.51772   0.00000  Uiso   1.00
C617   C     0.24618   0.54653   0.99705   0.00000  Uiso   1.00
C618   C     0.25784   0.56651   0.94814   0.00000  Uiso   1.00
C619   C     0.21254   0.55265   0.91853   0.00000  Uiso   1.00
C620   C     0.17637   0.49565   0.56747   0.00000  Uiso   1.00
C621   C     0.28034   0.54317   0.57653   0.00000  Uiso   1.00
C622   C     0.11145   0.49688   0.90381   0.00000  Uiso   1.00
C623   C     0.19041   0.65603   0.75188   0.00000  Uiso   1.00
C624   C     0.13286   0.49876   0.84739   0.00000  Uiso   1.00
C625   C     0.14271   0.34396   0.74847   0.00000  Uiso   1.00
C626   C     0.15145   0.39992   0.74872   0.00000  Uiso   1.00
C627   C     0.20068   0.50370   0.65289   0.00000  Uiso   1.00
C628   C     0.29294   0.55990   0.52621   0.00000  Uiso   1.00
C629   C     0.22121   0.51221   0.59769   0.00000  Uiso   1.00
C630   C     0.04968   0.46928   0.92545   0.00000  Uiso   1.00
C631   C     0.03225   0.46082   0.97801   0.00000  Uiso   1.00
C632   C     0.07635   0.47513   0.50865   0.00000  Uiso   1.00
Cu633  Cu    0.10710   0.49439   0.74435   0.00000  Uiso   1.00
Cu634  Cu    0.22623   0.50561   0.75564   0.00000  Uiso   1.00
H635   H     0.31557   0.55635   0.59947   0.00000  Uiso   1.00
H636   H     0.09667   0.65348   0.74547   0.00000  Uiso   1.00
H637   H     0.00358   0.53915   0.78973   0.00000  Uiso   1.00
H638   H     0.32968   0.46074   0.71039   0.00000  Uiso   1.00
H639   H     0.30217   0.59318   0.93269   0.00000  Uiso   1.00
H640   H     0.00526   0.58462   0.51058   0.00000  Uiso   1.00
H641   H     0.13315   0.46897   0.58433   0.00000  Uiso   1.00
H642   H     0.05905   0.46665   0.54871   0.00000  Uiso   1.00
H643   H     0.31753   0.44183   0.99511   0.00000  Uiso   1.00
H644   H     0.22311   0.57166   0.88208   0.00000  Uiso   1.00
H645   H     0.23648   0.34651   0.75470   0.00000  Uiso   1.00
N646   N     0.31574   0.51407   0.76416   0.00000  Uiso   1.00
N647   N     0.01759   0.48593   0.73584   0.00000  Uiso   1.00
O648   O     0.12797   0.57141   0.74633   0.00000  Uiso   1.00
O649   O     0.22858   0.58089   0.75587   0.00000  Uiso   1.00
O650   O     0.09181   0.49293   0.81839   0.00000  Uiso   1.00
O651   O     0.19242   0.50241   0.82793   0.00000  Uiso   1.00
O652   O     0.10476   0.41911   0.74413   0.00000  Uiso   1.00
O653   O     0.20536   0.42859   0.75367   0.00000  Uiso   1.00
O654   O     0.14092   0.49759   0.67207   0.00000  Uiso   1.00
O655   O     0.24152   0.50707   0.68160   0.00000  Uiso   1.00
O656   O     0.00509   0.45300   0.89567   0.00000  Uiso   1.00
C657   C     0.32860   0.39777   0.88814   0.00000  Uiso   1.00
H658   H     0.30549   0.37710   0.92472   0.00000  Uiso   1.00
H659   H     0.04063   0.38554   0.87193   0.00000  Uiso   1.00
C660   C     0.28553   0.38074   0.85041   0.00000  Uiso   1.00
H661   H     0.30780   0.40012   0.81317   0.00000  Uiso   1.00
H662   H     0.27719   0.33732   0.84427   0.00000  Uiso   1.00
H663   H     0.23953   0.39190   0.86551   0.00000  Uiso   1.00
C664   C     0.51512   0.60007   0.75149   0.00000  Uiso   1.00
C665   C     0.47242   0.50145   0.98810   0.00000  Uiso   1.00
C666   C     0.48797   0.51689   0.93626   0.00000  Uiso   1.00
C667   C     0.51983   0.51415   0.51772   0.00000  Uiso   1.00
C668   C     0.57951   0.54653   0.99705   0.00000  Uiso   1.00
C669   C     0.59117   0.56651   0.94814   0.00000  Uiso   1.00
C670   C     0.54587   0.55265   0.91853   0.00000  Uiso   1.00
C671   C     0.50970   0.49565   0.56747   0.00000  Uiso   1.00
C672   C     0.61368   0.54317   0.57653   0.00000  Uiso   1.00
C673   C     0.44479   0.49688   0.90381   0.00000  Uiso   1.00
C674   C     0.52374   0.65603   0.75188   0.00000  Uiso   1.00
C675   C     0.46620   0.49876   0.84739   0.00000  Uiso   1.00
C676   C     0.47605   0.34396   0.74847   0.00000  Uiso   1.00
C677   C     0.48479   0.39992   0.74872   0.00000  Uiso   1.00
C678   C     0.53401   0.50370   0.65289   0.00000  Uiso   1.00
C679   C     0.62628   0.55990   0.52621   0.00000  Uiso   1.00
C680   C     0.55454   0.51221   0.59769   0.00000  Uiso   1.00
C681   C     0.38302   0.46928   0.92545   0.00000  Uiso   1.00
C682   C     0.36558   0.46082   0.97801   0.00000  Uiso   1.00
C683   C     0.40969   0.47513   0.50865   0.00000  Uiso   1.00
Cu684  Cu    0.44043   0.49439   0.74435   0.00000  Uiso   1.00
Cu685  Cu    0.55957   0.50561   0.75564   0.00000  Uiso   1.00
H686   H     0.64890   0.55635   0.59947   0.00000  Uiso   1.00
H687   H     0.43000   0.65348   0.74547   0.00000  Uiso   1.00
H688   H     0.33691   0.53915   0.78973   0.00000  Uiso   1.00
H689   H     0.66301   0.46074   0.71039   0.00000  Uiso   1.00
H690   H     0.63550   0.59318   0.93269   0.00000  Uiso   1.00
H691   H     0.33860   0.58462   0.51058   0.00000  Uiso   1.00
H692   H     0.46648   0.46897   0.58433   0.00000  Uiso   1.00
H693   H     0.39239   0.46665   0.54871   0.00000  Uiso   1.00
H694   H     0.65086   0.44183   0.99511   0.00000  Uiso   1.00
H695   H     0.55644   0.57166   0.88208   0.00000  Uiso   1.00
H696   H     0.56981   0.34651   0.75470   0.00000  Uiso   1.00
N697   N     0.64908   0.51407   0.76416   0.00000  Uiso   1.00
N698   N     0.35092   0.48593   0.73584   0.00000  Uiso   1.00
O699   O     0.46131   0.57141   0.74633   0.00000  Uiso   1.00
O700   O     0.56191   0.58089   0.75587   0.00000  Uiso   1.00
O701   O     0.42515   0.49293   0.81839   0.00000  Uiso   1.00
O702   O     0.52575   0.50241   0.82793   0.00000  Uiso   1.00
O703   O     0.43809   0.41911   0.74413   0.00000  Uiso   1.00
O704   O     0.53869   0.42859   0.75367   0.00000  Uiso   1.00
O705   O     0.47425   0.49759   0.67207   0.00000  Uiso   1.00
O706   O     0.57485   0.50707   0.68160   0.00000  Uiso   1.00
O707   O     0.33842   0.45300   0.89567   0.00000  Uiso   1.00
C708   C     0.66193   0.39777   0.88814   0.00000  Uiso   1.00
H709   H     0.63882   0.37710   0.92472   0.00000  Uiso   1.00
H710   H     0.37397   0.38554   0.87193   0.00000  Uiso   1.00
C711   C     0.61886   0.38074   0.85041   0.00000  Uiso   1.00
H712   H     0.64113   0.40012   0.81317   0.00000  Uiso   1.00
H713   H     0.61053   0.33732   0.84427   0.00000  Uiso   1.00
H714   H     0.57286   0.39190   0.86551   0.00000  Uiso   1.00
C715   C     0.84845   0.60007   0.75149   0.00000  Uiso   1.00
C716   C     0.80576   0.50145   0.98810   0.00000  Uiso   1.00
C717   C     0.82130   0.51689   0.93626   0.00000  Uiso   1.00
C718   C     0.85316   0.51415   0.51772   0.00000  Uiso   1.00
C719   C     0.91284   0.54653   0.99705   0.00000  Uiso   1.00
C720   C     0.92451   0.56651   0.94814   0.00000  Uiso   1.00
C721   C     0.87921   0.55265   0.91853   0.00000  Uiso   1.00
C722   C     0.84303   0.49565   0.56747   0.00000  Uiso   1.00
C723   C     0.94701   0.54317   0.57653   0.00000  Uiso   1.00
C724   C     0.77812   0.49688   0.90381   0.00000  Uiso   1.00
C725   C     0.85708   0.65603   0.75188   0.00000  Uiso   1.00
C726   C     0.79953   0.49876   0.84739   0.00000  Uiso   1.00
C727   C     0.80938   0.34396   0.74847   0.00000  Uiso   1.00
C728   C     0.81812   0.39992   0.74872   0.00000  Uiso   1.00
C729   C     0.86735   0.50370   0.65289   0.00000  Uiso   1.00
C730   C     0.95961   0.55990   0.52621   0.00000  Uiso   1.00
C731   C     0.88788   0.51221   0.59769   0.00000  Uiso   1.00
C732   C     0.71635   0.46928   0.92545   0.00000  Uiso   1.00
C733   C     0.69891   0.46082   0.97801   0.00000  Uiso   1.00
C734   C     0.74302   0.47513   0.50865   0.00000  Uiso   1.00
Cu735  Cu    0.77377   0.49439   0.74435   0.00000  Uiso   1.00
Cu736  Cu    0.89290   0.50561   0.75564   0.00000  Uiso   1.00
H737   H     0.98224   0.55635   0.59947   0.00000  Uiso   1.00
H738   H     0.76333   0.65348   0.74547   0.00000  Uiso   1.00
H739   H     0.67025   0.53915   0.78973   0.00000  Uiso   1.00
H740   H     0.99635   0.46074   0.71039   0.00000  Uiso   1.00
H741   H     0.96883   0.59318   0.93269   0.00000  Uiso   1.00
H742   H     0.67193   0.58462   0.51058   0.00000  Uiso   1.00
H743   H     0.79982   0.46897   0.58433   0.00000  Uiso   1.00
H744   H     0.72572   0.46665   0.54871   0.00000  Uiso   1.00
H745   H     0.98420   0.44183   0.99511   0.00000  Uiso   1.00
H746   H     0.88977   0.57166   0.88208   0.00000  Uiso   1.00
H747   H     0.90314   0.34651   0.75470   0.00000  Uiso   1.00
N748   N     0.98241   0.51407   0.76416   0.00000  Uiso   1.00
N749   N     0.68426   0.48593   0.73584   0.00000  Uiso   1.00
O750   O     0.79464   0.57141   0.74633   0.00000  Uiso   1.00
O751   O     0.89524   0.58089   0.75587   0.00000  Uiso   1.00
O752   O     0.75848   0.49293   0.81839   0.00000  Uiso   1.00
O753   O     0.85908   0.50241   0.82793   0.00000  Uiso   1.00
O754   O     0.77142   0.41911   0.74413   0.00000  Uiso   1.00
O755   O     0.87203   0.42859   0.75367   0.00000  Uiso   1.00
O756   O     0.80758   0.49759   0.67207   0.00000  Uiso   1.00
O757   O     0.90819   0.50707   0.68160   0.00000  Uiso   1.00
O758   O     0.67175   0.45300   0.89567   0.00000  Uiso   1.00
C759   C     0.99526   0.39777   0.88814   0.00000  Uiso   1.00
H760   H     0.97215   0.37710   0.92472   0.00000  Uiso   1.00
H761   H     0.70730   0.38554   0.87193   0.00000  Uiso   1.00
C762   C     0.95220   0.38074   0.85041   0.00000  Uiso   1.00
H763   H     0.97447   0.40012   0.81317   0.00000  Uiso   1.00
H764   H     0.94386   0.33732   0.84427   0.00000  Uiso   1.00
H765   H     0.90619   0.39190   0.86551   0.00000  Uiso   1.00
C766   C     0.18179   0.93341   0.75149   0.00000  Uiso   1.00
C767   C     0.13909   0.83478   0.98810   0.00000  Uiso   1.00
C768   C     0.15463   0.85023   0.93626   0.00000  Uiso   1.00
C769   C     0.18649   0.84748   0.51772   0.00000  Uiso   1.00
C770   C     0.24618   0.87986   0.99705   0.00000  Uiso   1.00
C771   C     0.25784   0.89984   0.94814   0.00000  Uiso   1.00
C772   C     0.21254   0.88599   0.91853   0.00000  Uiso   1.00
C773   C     0.17637   0.82898   0.56747   0.00000  Uiso   1.00
C774   C     0.28034   0.87650   0.57653   0.00000  Uiso   1.00
C775   C     0.11145   0.83021   0.90381   0.00000  Uiso   1.00
C776   C     0.19041   0.98936   0.75188   0.00000  Uiso   1.00
C777   C     0.13286   0.83209   0.84739   0.00000  Uiso   1.00
C778   C     0.14271   0.67729   0.74847   0.00000  Uiso   1.00
C779   C     0.15145   0.73326   0.74872   0.00000  Uiso   1.00
C780   C     0.20068   0.83703   0.65289   0.00000  Uiso   1.00
C781   C     0.29294   0.89323   0.52621   0.00000  Uiso   1.00
C782   C     0.22121   0.84554   0.59769   0.00000  Uiso   1.00
C783   C     0.04968   0.80261   0.92545   0.00000  Uiso   1.00
C784   C     0.03225   0.79416   0.97801   0.00000  Uiso   1.00
C785   C     0.07635   0.80847   0.50865   0.00000  Uiso   1.00
Cu786  Cu    0.10710   0.82772   0.74435   0.00000  Uiso   1.00
Cu787  Cu    0.22623   0.83895   0.75564   0.00000  Uiso   1.00
H788   H     0.31557   0.88968   0.59947   0.00000  Uiso   1.00
H789   H     0.09667   0.98681   0.74547   0.00000  Uiso   1.00
H790   H     0.00358   0.87248   0.78973   0.00000  Uiso   1.00
H791   H     0.32968   0.79408   0.71039   0.00000  Uiso   1.00
H792   H     0.30217   0.92651   0.93269   0.00000  Uiso   1.00
H793   H     0.00526   0.91795   0.51058   0.00000  Uiso   1.00
H794   H     0.13315   0.80231   0.58433   0.00000  Uiso   1.00
H795   H     0.05905   0.79998   0.54871   0.00000  Uiso   1.00
H796   H     0.31753   0.77516   0.99511   0.00000  Uiso   1.00
H797   H     0.22311   0.90499   0.88208   0.00000  Uiso   1.00
H798   H     0.23648   0.67984   0.75470   0.00000  Uiso   1.00
N799   N     0.31574   0.84741   0.76416   0.00000  Uiso   1.00
N800   N     0.01759   0.81926   0.73584   0.00000  Uiso   1.00
O801   O     0.12797   0.90474   0.74633   0.00000  Uiso   1.00
O802   O     0.22858   0.91422   0.75587   0.00000  Uiso   1.00
O803   O     0.09181   0.82627   0.81839   0.00000  Uiso   1.00
O804   O     0.19242   0.83575   0.82793   0.00000  Uiso   1.00
O805   O     0.10476   0.75245   0.74413   0.00000  Uiso   1.00
O806   O     0.20536   0.76193   0.75367   0.00000  Uiso   1.00
O807   O     0.14092   0.83092   0.67207   0.00000  Uiso   1.00
O808   O     0.24152   0.84040   0.68160   0.00000  Uiso   1.00
O809   O     0.00509   0.78633   0.89567   0.00000  Uiso   1.00
C810   C     0.32860   0.73111   0.88814   0.00000  Uiso   1.00
H811   H     0.30549   0.71043   0.92472   0.00000  Uiso   1.00
H812   H     0.04063   0.71887   0.87193   0.00000  Uiso   1.00
C813   C     0.28553   0.71407   0.85041   0.00000  Uiso   1.00
H814   H     0.30780   0.73345   0.81317   0.00000  Uiso   1.00
H815   H     0.27719   0.67066   0.84427   0.00000  Uiso   1.00
H816   H     0.23953   0.72524   0.86551   0.00000  Uiso   1.00
C817   C     0.51512   0.93341   0.75149   0.00000  Uiso   1.00
C818   C     0.47242   0.83478   0.98810   0.00000  Uiso   1.00
C819   C     0.48797   0.85023   0.93626   0.00000  Uiso   1.00
C820   C     0.51983   0.84748   0.51772   0.00000  Uiso   1.00
C821   C     0.57951   0.87986   0.99705   0.00000  Uiso   1.00
C822   C     0.59117   0.89984   0.94814   0.00000  Uiso   1.00
C823   C     0.54587   0.88599   0.91853   0.00000  Uiso   1.00
C824   C     0.50970   0.82898   0.56747   0.00000  Uiso   1.00
C825   C     0.61368   0.87650   0.57653   0.00000  Uiso   1.00
C826   C     0.44479   0.83021   0.90381   0.00000  Uiso   1.00
C827   C     0.52374   0.98936   0.75188   0.00000  Uiso   1.00
C828   C     0.46620   0.83209   0.84739   0.00000  Uiso   1.00
C829   C     0.47605   0.67729   0.74847   0.00000  Uiso   1.00
C830   C     0.48479   0.73326   0.74872   0.00000  Uiso   1.00
C831   C     0.53401   0.83703   0.65289   0.00000  Uiso   1.00
C832   C     0.62628   0.89323   0.52621   0.00000  Uiso   1.00
C833   C     0.55454   0.84554   0.59769   0.00000  Uiso   1.00
C834   C     0.38302   0.80261   0.92545   0.00000  Uiso   1.00
C835   C     0.36558   0.79416   0.97801   0.00000  Uiso   1.00
C836   C     0.40969   0.80847   0.50865   0.00000  Uiso   1.00
Cu837  Cu    0.44043   0.82772   0.74435   0.00000  Uiso   1.00
Cu838  Cu    0.55957   0.83895   0.75564   0.00000  Uiso   1.00
H839   H     0.64890   0.88968   0.59947   0.00000  Uiso   1.00
H840   H     0.43000   0.98681   0.74547   0.00000  Uiso   1.00
H841   H     0.33691   0.87248   0.78973   0.00000  Uiso   1.00
H842   H     0.66301   0.79408   0.71039   0.00000  Uiso   1.00
H843   H     0.63550   0.92651   0.93269   0.00000  Uiso   1.00
H844   H     0.33860   0.91795   0.51058   0.00000  Uiso   1.00
H845   H     0.46648   0.80231   0.58433   0.00000  Uiso   1.00
H846   H     0.39239   0.79998   0.54871   0.00000  Uiso   1.00
H847   H     0.65086   0.77516   0.99511   0.00000  Uiso   1.00
H848   H     0.55644   0.90499   0.88208   0.00000  Uiso   1.00
H849   H     0.56981   0.67984   0.75470   0.00000  Uiso   1.00
N850   N     0.64908   0.84741   0.76416   0.00000  Uiso   1.00
N851   N     0.35092   0.81926   0.73584   0.00000  Uiso   1.00
O852   O     0.46131   0.90474   0.74633   0.00000  Uiso   1.00
O853   O     0.56191   0.91422   0.75587   0.00000  Uiso   1.00
O854   O     0.42515   0.82627   0.81839   0.00000  Uiso   1.00
O855   O     0.52575   0.83575   0.82793   0.00000  Uiso   1.00
O856   O     0.43809   0.75245   0.74413   0.00000  Uiso   1.00
O857   O     0.53869   0.76193   0.75367   0.00000  Uiso   1.00
O858   O     0.47425   0.83092   0.67207   0.00000  Uiso   1.00
O859   O     0.57485   0.84040   0.68160   0.00000  Uiso   1.00
O860   O     0.33842   0.78633   0.89567   0.00000  Uiso   1.00
C861   C     0.66193   0.73111   0.88814   0.00000  Uiso   1.00
H862   H     0.63882   0.71043   0.92472   0.00000  Uiso   1.00
H863   H     0.37397   0.71887   0.87193   0.00000  Uiso   1.00
C864   C     0.61886   0.71407   0.85041   0.00000  Uiso   1.00
H865   H     0.64113   0.73345   0.81317   0.00000  Uiso   1.00
H866   H     0.61053   0.67066   0.84427   0.00000  Uiso   1.00
H867   H     0.57286   0.72524   0.86551   0.00000  Uiso   1.00
C868   C     0.84845   0.93341   0.75149   0.00000  Uiso   1.00
C869   C     0.80576   0.83478   0.98810   0.00000  Uiso   1.00
C870   C     0.82130   0.85023   0.93626   0.00000  Uiso   1.00
C871   C     0.85316   0.84748   0.51772   0.00000  Uiso   1.00
C872   C     0.91284   0.87986   0.99705   0.00000  Uiso   1.00
C873   C     0.92451   0.89984   0.94814   0.00000  Uiso   1.00
C874   C     0.87921   0.88599   0.91853   0.00000  Uiso   1.00
C875   C     0.84303   0.82898   0.56747   0.00000  Uiso   1.00
C876   C     0.94701   0.87650   0.57653   0.00000  Uiso   1.00
C877   C     0.77812   0.83021   0.90381   0.00000  Uiso   1.00
C878   C     0.85708   0.98936   0.75188   0.00000  Uiso   1.00
C879   C     0.79953   0.83209   0.84739   0.00000  Uiso   1.00
C880   C     0.80938   0.67729   0.74847   0.00000  Uiso   1.00
C881   C     0.81812   0.73326   0.74872   0.00000  Uiso   1.00
C882   C     0.86735   0.83703   0.65289   0.00000  Uiso   1.00
C883   C     0.95961   0.89323   0.52621   0.00000  Uiso   1.00
C884   C     0.88788   0.84554   0.59769   0.00000  Uiso   1.00
C885   C     0.71635   0.80261   0.92545   0.00000  Uiso   1.00
C886   C     0.69891   0.79416   0.97801   0.00000  Uiso   1.00
C887   C     0.74302   0.80847   0.50865   0.00000  Uiso   1.00
Cu888  Cu    0.77377   0.82772   0.74435   0.00000  Uiso   1.00
Cu889  Cu    0.89290   0.83895   0.75564   0.00000  Uiso   1.00
H890   H     0.98224   0.88968   0.59947   0.00000  Uiso   1.00
H891   H     0.76333   0.98681   0.74547   0.00000  Uiso   1.00
H892   H     0.67025   0.87248   0.78973   0.00000  Uiso   1.00
H893   H     0.99635   0.79408   0.71039   0.00000  Uiso   1.00
H894   H     0.96883   0.92651   0.93269   0.00000  Uiso   1.00
H895   H     0.67193   0.91795   0.51058   0.00000  Uiso   1.00
H896   H     0.79982   0.80231   0.58433   0.00000  Uiso   1.00
H897   H     0.72572   0.79998   0.54871   0.00000  Uiso   1.00
H898   H     0.98420   0.77516   0.99511   0.00000  Uiso   1.00
H899   H     0.88977   0.90499   0.88208   0.00000  Uiso   1.00
H900   H     0.90314   0.67984   0.75470   0.00000  Uiso   1.00
N901   N     0.98241   0.84741   0.76416   0.00000  Uiso   1.00
N902   N     0.68426   0.81926   0.73584   0.00000  Uiso   1.00
O903   O     0.79464   0.90474   0.74633   0.00000  Uiso   1.00
O904   O     0.89524   0.91422   0.75587   0.00000  Uiso   1.00
O905   O     0.75848   0.82627   0.81839   0.00000  Uiso   1.00
O906   O     0.85908   0.83575   0.82793   0.00000  Uiso   1.00
O907   O     0.77142   0.75245   0.74413   0.00000  Uiso   1.00
O908   O     0.87203   0.76193   0.75367   0.00000  Uiso   1.00
O909   O     0.80758   0.83092   0.67207   0.00000  Uiso   1.00
O910   O     0.90819   0.84040   0.68160   0.00000  Uiso   1.00
O911   O     0.67175   0.78633   0.89567   0.00000  Uiso   1.00
C912   C     0.99526   0.73111   0.88814   0.00000  Uiso   1.00
H913   H     0.97215   0.71043   0.92472   0.00000  Uiso   1.00
H914   H     0.70730   0.71887   0.87193   0.00000  Uiso   1.00
C915   C     0.95220   0.71407   0.85041   0.00000  Uiso   1.00
H916   H     0.97447   0.73345   0.81317   0.00000  Uiso   1.00
H917   H     0.94386   0.67066   0.84427   0.00000  Uiso   1.00
H918   H     0.90619   0.72524   0.86551   0.00000  Uiso   1.00
loop_
_geom_bond_atom_site_label_1
_geom_bond_atom_site_label_2
_geom_bond_distance
_geom_bond_site_symmetry_2
_ccdc_geom_bond_type
C1     C11     1.426   .     S
C1     O37     1.284   .     A
C1     O36     1.290   .     A
C2     C3      1.418   .     A
C2     C463    1.425   .     S
C2     C479    1.415   .     S
C3     C10     1.426   .     A
C3     C7      1.414   .     A
C4     C8      1.402   .     A
C4     C461    1.425   1_554 S
C4     C464    1.419   1_554 S
C5     C6      1.392   .     A
C5     C463    1.419   .     S
C5     C475    1.405   .     S
C6     C7      1.388   .     A
C6     H27     1.084   .     S
C7     H32     1.080   .     S
C8     C17     1.398   .     A
C8     H29     1.077   .     S
C9     C17     1.398   .     A
C9     C16     1.395   .     A
C9     H23     1.083   .     S
C10    C12     1.482   .     S
C10    C18     1.414   .     A
C11    C166    1.327   .     S
C11    H186    1.087   .     S
C12    O39     1.297   .     A
C12    O38     1.303   .     A
C13    C14     1.426   .     S
C13    C317    1.327   1_545 S
C13    H330    1.088   1_545 S
C14    O41     1.291   .     A
C14    O40     1.284   .     A
C15    O42     1.294   .     A
C15    O43     1.301   .     A
C15    C17     1.465   .     S
C16    C464    1.405   1_554 S
C16    H79     1.084   .     S
C18    O44     1.384   .     S
C18    C19     1.394   .     A
C19    C479    1.388   .     S
C19    H133    1.083   1_455 S
C20    H30     1.077   .     S
C20    C461    1.415   1_554 S
C20    C478    1.388   1_554 S
Cu21   N35     2.017   .     S
Cu21   O36     1.954   .     S
Cu21   O40     1.950   .     S
Cu21   O42     1.917   .     S
Cu21   Cu22    2.685   .     S
Cu21   O38     1.939   .     S
Cu22   N34     2.017   .     S
Cu22   O41     1.954   .     S
Cu22   O39     1.917   .     S
Cu22   O37     1.950   .     S
Cu22   O43     1.939   .     S
H24    C166    1.088   .     S
H25    N136    1.029   1_455 S
H26    N86     1.029   .     S
H28    C118    1.084   1_455 S
H31    C70     1.083   .     S
H33    C317    1.087   1_545 S
N34    H76     1.029   .     S
N34    N86     1.284   .     S
N35    N136    1.284   1_455 S
N35    H128    1.029   1_455 S
O44    C147    1.413   1_455 S
C45    H46     1.113   .     S
C45    C48     1.521   .     S
C45    O95     1.413   .     S
C45    H98     1.116   .     S
H47    C147    1.116   1_455 S
C48    H50     1.111   .     S
C48    H49     1.110   .     S
C48    H51     1.111   .     S
C52    C62     1.426   .     S
C52    O88     1.284   .     A
C52    O87     1.290   .     A
C53    C54     1.418   .     A
C53    C514    1.425   .     S
C53    C530    1.415   .     S
C54    C61     1.426   .     A
C54    C58     1.414   .     A
C55    C59     1.402   .     A
C55    C512    1.425   1_554 S
C55    C515    1.419   1_554 S
C56    C57     1.392   .     A
C56    C514    1.419   .     S
C56    C526    1.405   .     S
C57    C58     1.388   .     A
C57    H78     1.084   .     S
C58    H83     1.080   .     S
C59    C68     1.398   .     A
C59    H80     1.077   .     S
C60    C68     1.398   .     A
C60    C67     1.395   .     A
C60    H74     1.083   .     S
C61    C63     1.482   .     S
C61    C69     1.414   .     A
C62    C217    1.327   .     S
C62    H237    1.087   .     S
C63    O90     1.297   .     A
C63    O89     1.303   .     A
C64    C65     1.426   .     S
C64    C368    1.327   1_545 S
C64    H381    1.088   1_545 S
C65    O92     1.291   .     A
C65    O91     1.284   .     A
C66    O93     1.294   .     A
C66    O94     1.301   .     A
C66    C68     1.465   .     S
C67    C515    1.405   1_554 S
C67    H130    1.084   .     S
C69    O95     1.384   .     S
C69    C70     1.394   .     A
C70    C530    1.388   .     S
C71    H81     1.077   .     S
C71    C512    1.415   1_554 S
C71    C529    1.388   1_554 S
Cu72   N86     2.017   .     S
Cu72   O87     1.954   .     S
Cu72   O91     1.950   .     S
Cu72   O93     1.917   .     S
Cu72   Cu73    2.685   .     S
Cu72   O89     1.939   .     S
Cu73   N85     2.017   .     S
Cu73   O92     1.954   .     S
Cu73   O90     1.917   .     S
Cu73   O88     1.950   .     S
Cu73   O94     1.939   .     S
H75    C217    1.088   .     S
H77    N137    1.029   .     S
H82    C121    1.083   .     S
H84    C368    1.087   1_545 S
N85    H127    1.029   .     S
N85    N137    1.284   .     S
C96    H97     1.113   .     S
C96    C99     1.521   .     S
C96    O146    1.413   .     S
C96    H149    1.116   .     S
C99    H101    1.111   .     S
C99    H100    1.110   .     S
C99    H102    1.111   .     S
C103   C113    1.426   .     S
C103   O139    1.284   .     A
C103   O138    1.290   .     A
C104   C105    1.418   .     A
C104   C565    1.425   .     S
C104   C581    1.415   .     S
C105   C112    1.426   .     A
C105   C109    1.414   .     A
C106   C110    1.402   .     A
C106   C563    1.425   1_554 S
C106   C566    1.419   1_554 S
C107   C108    1.392   .     A
C107   C565    1.419   .     S
C107   C577    1.405   .     S
C108   C109    1.388   .     A
C108   H129    1.084   .     S
C109   H134    1.080   .     S
C110   C119    1.398   .     A
C110   H131    1.077   .     S
C111   C119    1.398   .     A
C111   C118    1.395   .     A
C111   H125    1.083   .     S
C112   C114    1.482   .     S
C112   C120    1.414   .     A
C113   C268    1.327   .     S
C113   H288    1.087   .     S
C114   O141    1.297   .     A
C114   O140    1.303   .     A
C115   C116    1.426   .     S
C115   C419    1.327   1_545 S
C115   H432    1.088   1_545 S
C116   O143    1.291   .     A
C116   O142    1.284   .     A
C117   O144    1.294   .     A
C117   O145    1.301   .     A
C117   C119    1.465   .     S
C118   C566    1.405   1_554 S
C118   H28     1.084   1_655 S
C120   O146    1.384   .     S
C120   C121    1.394   .     A
C121   C581    1.388   .     S
C122   H132    1.077   .     S
C122   C563    1.415   1_554 S
C122   C580    1.388   1_554 S
Cu123  N137    2.017   .     S
Cu123  O138    1.954   .     S
Cu123  O142    1.950   .     S
Cu123  O144    1.917   .     S
Cu123  Cu124   2.685   .     S
Cu123  O140    1.939   .     S
Cu124  N136    2.017   .     S
Cu124  O143    1.954   .     S
Cu124  O141    1.917   .     S
Cu124  O139    1.950   .     S
Cu124  O145    1.939   .     S
H126   C268    1.088   .     S
H128   N35     1.029   1_655 S
H133   C19     1.083   1_655 S
H135   C419    1.087   1_545 S
N136   H25     1.029   1_655 S
N136   N35     1.284   1_655 S
C147   H148    1.113   .     S
C147   C150    1.521   .     S
C147   O44     1.413   1_655 S
C147   H47     1.116   1_655 S
C150   H152    1.111   .     S
C150   H151    1.110   .     S
C150   H153    1.111   .     S
C154   C164    1.426   .     S
C154   O190    1.284   .     A
C154   O189    1.290   .     A
C155   C156    1.418   .     A
C155   C616    1.425   .     S
C155   C632    1.415   .     S
C156   C163    1.426   .     A
C156   C160    1.414   .     A
C157   C161    1.402   .     A
C157   C614    1.425   1_554 S
C157   C617    1.419   1_554 S
C158   C159    1.392   .     A
C158   C616    1.419   .     S
C158   C628    1.405   .     S
C159   C160    1.388   .     A
C159   H180    1.084   .     S
C160   H185    1.080   .     S
C161   C170    1.398   .     A
C161   H182    1.077   .     S
C162   C170    1.398   .     A
C162   C169    1.395   .     A
C162   H176    1.083   .     S
C163   C165    1.482   .     S
C163   C171    1.414   .     A
C164   C319    1.327   .     S
C164   H339    1.087   .     S
C165   O192    1.297   .     A
C165   O191    1.303   .     A
C166   C167    1.426   .     S
C167   O194    1.291   .     A
C167   O193    1.284   .     A
C168   O195    1.294   .     A
C168   O196    1.301   .     A
C168   C170    1.465   .     S
C169   C617    1.405   1_554 S
C169   H232    1.084   .     S
C171   O197    1.384   .     S
C171   C172    1.394   .     A
C172   C632    1.388   .     S
C172   H286    1.083   1_455 S
C173   H183    1.077   .     S
C173   C614    1.415   1_554 S
C173   C631    1.388   1_554 S
Cu174  N188    2.017   .     S
Cu174  O189    1.954   .     S
Cu174  O193    1.950   .     S
Cu174  O195    1.917   .     S
Cu174  Cu175   2.685   .     S
Cu174  O191    1.939   .     S
Cu175  N187    2.017   .     S
Cu175  O194    1.954   .     S
Cu175  O192    1.917   .     S
Cu175  O190    1.950   .     S
Cu175  O196    1.939   .     S
H177   C319    1.088   .     S
H178   N289    1.029   1_455 S
H179   N239    1.029   .     S
H181   C271    1.084   1_455 S
H184   C223    1.083   .     S
N187   H229    1.029   .     S
N187   N239    1.284   .     S
N188   N289    1.284   1_455 S
N188   H281    1.029   1_455 S
O197   C300    1.413   1_455 S
C198   H199    1.113   .     S
C198   C201    1.521   .     S
C198   O248    1.413   .     S
C198   H251    1.116   .     S
H200   C300    1.116   1_455 S
C201   H203    1.111   .     S
C201   H202    1.110   .     S
C201   H204    1.111   .     S
C205   C215    1.426   .     S
C205   O241    1.284   .     A
C205   O240    1.290   .     A
C206   C207    1.418   .     A
C206   C667    1.425   .     S
C206   C683    1.415   .     S
C207   C214    1.426   .     A
C207   C211    1.414   .     A
C208   C212    1.402   .     A
C208   C665    1.425   1_554 S
C208   C668    1.419   1_554 S
C209   C210    1.392   .     A
C209   C667    1.419   .     S
C209   C679    1.405   .     S
C210   C211    1.388   .     A
C210   H231    1.084   .     S
C211   H236    1.080   .     S
C212   C221    1.398   .     A
C212   H233    1.077   .     S
C213   C221    1.398   .     A
C213   C220    1.395   .     A
C213   H227    1.083   .     S
C214   C216    1.482   .     S
C214   C222    1.414   .     A
C215   C370    1.327   .     S
C215   H390    1.087   .     S
C216   O243    1.297   .     A
C216   O242    1.303   .     A
C217   C218    1.426   .     S
C218   O245    1.291   .     A
C218   O244    1.284   .     A
C219   O246    1.294   .     A
C219   O247    1.301   .     A
C219   C221    1.465   .     S
C220   C668    1.405   1_554 S
C220   H283    1.084   .     S
C222   O248    1.384   .     S
C222   C223    1.394   .     A
C223   C683    1.388   .     S
C224   H234    1.077   .     S
C224   C665    1.415   1_554 S
C224   C682    1.388   1_554 S
Cu225  N239    2.017   .     S
Cu225  O240    1.954   .     S
Cu225  O244    1.950   .     S
Cu225  O246    1.917   .     S
Cu225  Cu226   2.685   .     S
Cu225  O242    1.939   .     S
Cu226  N238    2.017   .     S
Cu226  O245    1.954   .     S
Cu226  O243    1.917   .     S
Cu226  O241    1.950   .     S
Cu226  O247    1.939   .     S
H228   C370    1.088   .     S
H230   N290    1.029   .     S
H235   C274    1.083   .     S
N238   H280    1.029   .     S
N238   N290    1.284   .     S
C249   H250    1.113   .     S
C249   C252    1.521   .     S
C249   O299    1.413   .     S
C249   H302    1.116   .     S
C252   H254    1.111   .     S
C252   H253    1.110   .     S
C252   H255    1.111   .     S
C256   C266    1.426   .     S
C256   O292    1.284   .     A
C256   O291    1.290   .     A
C257   C258    1.418   .     A
C257   C718    1.425   .     S
C257   C734    1.415   .     S
C258   C265    1.426   .     A
C258   C262    1.414   .     A
C259   C263    1.402   .     A
C259   C716    1.425   1_554 S
C259   C719    1.419   1_554 S
C260   C261    1.392   .     A
C260   C718    1.419   .     S
C260   C730    1.405   .     S
C261   C262    1.388   .     A
C261   H282    1.084   .     S
C262   H287    1.080   .     S
C263   C272    1.398   .     A
C263   H284    1.077   .     S
C264   C272    1.398   .     A
C264   C271    1.395   .     A
C264   H278    1.083   .     S
C265   C267    1.482   .     S
C265   C273    1.414   .     A
C266   C421    1.327   .     S
C266   H441    1.087   .     S
C267   O294    1.297   .     A
C267   O293    1.303   .     A
C268   C269    1.426   .     S
C269   O296    1.291   .     A
C269   O295    1.284   .     A
C270   O297    1.294   .     A
C270   O298    1.301   .     A
C270   C272    1.465   .     S
C271   C719    1.405   1_554 S
C271   H181    1.084   1_655 S
C273   O299    1.384   .     S
C273   C274    1.394   .     A
C274   C734    1.388   .     S
C275   H285    1.077   .     S
C275   C716    1.415   1_554 S
C275   C733    1.388   1_554 S
Cu276  N290    2.017   .     S
Cu276  O291    1.954   .     S
Cu276  O295    1.950   .     S
Cu276  O297    1.917   .     S
Cu276  Cu277   2.685   .     S
Cu276  O293    1.939   .     S
Cu277  N289    2.017   .     S
Cu277  O296    1.954   .     S
Cu277  O294    1.917   .     S
Cu277  O292    1.950   .     S
Cu277  O298    1.939   .     S
H279   C421    1.088   .     S
H281   N188    1.029   1_655 S
H286   C172    1.083   1_655 S
N289   H178    1.029   1_655 S
N289   N188    1.284   1_655 S
C300   H301    1.113   .     S
C300   C303    1.521   .     S
C300   O197    1.413   1_655 S
C300   H200    1.116   1_655 S
C303   H305    1.111   .     S
C303   H304    1.110   .     S
C303   H306    1.111   .     S
C307   C317    1.426   .     S
C307   O343    1.284   .     A
C307   O342    1.290   .     A
C308   C309    1.418   .     A
C308   C769    1.425   .     S
C308   C785    1.415   .     S
C309   C316    1.426   .     A
C309   C313    1.414   .     A
C310   C314    1.402   .     A
C310   C767    1.425   1_554 S
C310   C770    1.419   1_554 S
C311   C312    1.392   .     A
C311   C769    1.419   .     S
C311   C781    1.405   .     S
C312   C313    1.388   .     A
C312   H333    1.084   .     S
C313   H338    1.080   .     S
C314   C323    1.398   .     A
C314   H335    1.077   .     S
C315   C323    1.398   .     A
C315   C322    1.395   .     A
C315   H329    1.083   .     S
C316   C318    1.482   .     S
C316   C324    1.414   .     A
C317   C13     1.327   1_565 S
C317   H33     1.087   1_565 S
C318   O345    1.297   .     A
C318   O344    1.303   .     A
C319   C320    1.426   .     S
C320   O347    1.291   .     A
C320   O346    1.284   .     A
C321   O348    1.294   .     A
C321   O349    1.301   .     A
C321   C323    1.465   .     S
C322   C770    1.405   1_554 S
C322   H385    1.084   .     S
C324   O350    1.384   .     S
C324   C325    1.394   .     A
C325   C785    1.388   .     S
C325   H439    1.083   1_455 S
C326   H336    1.077   .     S
C326   C767    1.415   1_554 S
C326   C784    1.388   1_554 S
Cu327  N341    2.017   .     S
Cu327  O342    1.954   .     S
Cu327  O346    1.950   .     S
Cu327  O348    1.917   .     S
Cu327  Cu328   2.685   .     S
Cu327  O344    1.939   .     S
Cu328  N340    2.017   .     S
Cu328  O347    1.954   .     S
Cu328  O345    1.917   .     S
Cu328  O343    1.950   .     S
Cu328  O349    1.939   .     S
H330   C13     1.088   1_565 S
H331   N442    1.029   1_455 S
H332   N392    1.029   .     S
H334   C424    1.084   1_455 S
H337   C376    1.083   .     S
N340   H382    1.029   .     S
N340   N392    1.284   .     S
N341   N442    1.284   1_455 S
N341   H434    1.029   1_455 S
O350   C453    1.413   1_455 S
C351   H352    1.113   .     S
C351   C354    1.521   .     S
C351   O401    1.413   .     S
C351   H404    1.116   .     S
H353   C453    1.116   1_455 S
C354   H356    1.111   .     S
C354   H355    1.110   .     S
C354   H357    1.111   .     S
C358   C368    1.426   .     S
C358   O394    1.284   .     A
C358   O393    1.290   .     A
C359   C360    1.418   .     A
C359   C820    1.425   .     S
C359   C836    1.415   .     S
C360   C367    1.426   .     A
C360   C364    1.414   .     A
C361   C365    1.402   .     A
C361   C818    1.425   1_554 S
C361   C821    1.419   1_554 S
C362   C363    1.392   .     A
C362   C820    1.419   .     S
C362   C832    1.405   .     S
C363   C364    1.388   .     A
C363   H384    1.084   .     S
C364   H389    1.080   .     S
C365   C374    1.398   .     A
C365   H386    1.077   .     S
C366   C374    1.398   .     A
C366   C373    1.395   .     A
C366   H380    1.083   .     S
C367   C369    1.482   .     S
C367   C375    1.414   .     A
C368   C64     1.327   1_565 S
C368   H84     1.087   1_565 S
C369   O396    1.297   .     A
C369   O395    1.303   .     A
C370   C371    1.426   .     S
C371   O398    1.291   .     A
C371   O397    1.284   .     A
C372   O399    1.294   .     A
C372   O400    1.301   .     A
C372   C374    1.465   .     S
C373   C821    1.405   1_554 S
C373   H436    1.084   .     S
C375   O401    1.384   .     S
C375   C376    1.394   .     A
C376   C836    1.388   .     S
C377   H387    1.077   .     S
C377   C818    1.415   1_554 S
C377   C835    1.388   1_554 S
Cu378  N392    2.017   .     S
Cu378  O393    1.954   .     S
Cu378  O397    1.950   .     S
Cu378  O399    1.917   .     S
Cu378  Cu379   2.685   .     S
Cu378  O395    1.939   .     S
Cu379  N391    2.017   .     S
Cu379  O398    1.954   .     S
Cu379  O396    1.917   .     S
Cu379  O394    1.950   .     S
Cu379  O400    1.939   .     S
H381   C64     1.088   1_565 S
H383   N443    1.029   .     S
H388   C427    1.083   .     S
N391   H433    1.029   .     S
N391   N443    1.284   .     S
C402   H403    1.113   .     S
C402   C405    1.521   .     S
C402   O452    1.413   .     S
C402   H455    1.116   .     S
C405   H407    1.111   .     S
C405   H406    1.110   .     S
C405   H408    1.111   .     S
C409   C419    1.426   .     S
C409   O445    1.284   .     A
C409   O444    1.290   .     A
C410   C411    1.418   .     A
C410   C871    1.425   .     S
C410   C887    1.415   .     S
C411   C418    1.426   .     A
C411   C415    1.414   .     A
C412   C416    1.402   .     A
C412   C869    1.425   1_554 S
C412   C872    1.419   1_554 S
C413   C414    1.392   .     A
C413   C871    1.419   .     S
C413   C883    1.405   .     S
C414   C415    1.388   .     A
C414   H435    1.084   .     S
C415   H440    1.080   .     S
C416   C425    1.398   .     A
C416   H437    1.077   .     S
C417   C425    1.398   .     A
C417   C424    1.395   .     A
C417   H431    1.083   .     S
C418   C420    1.482   .     S
C418   C426    1.414   .     A
C419   C115    1.327   1_565 S
C419   H135    1.087   1_565 S
C420   O447    1.297   .     A
C420   O446    1.303   .     A
C421   C422    1.426   .     S
C422   O449    1.291   .     A
C422   O448    1.284   .     A
C423   O450    1.294   .     A
C423   O451    1.301   .     A
C423   C425    1.465   .     S
C424   C872    1.405   1_554 S
C424   H334    1.084   1_655 S
C426   O452    1.384   .     S
C426   C427    1.394   .     A
C427   C887    1.388   .     S
C428   H438    1.077   .     S
C428   C869    1.415   1_554 S
C428   C886    1.388   1_554 S
Cu429  N443    2.017   .     S
Cu429  O444    1.954   .     S
Cu429  O448    1.950   .     S
Cu429  O450    1.917   .     S
Cu429  Cu430   2.685   .     S
Cu429  O446    1.939   .     S
Cu430  N442    2.017   .     S
Cu430  O449    1.954   .     S
Cu430  O447    1.917   .     S
Cu430  O445    1.950   .     S
Cu430  O451    1.939   .     S
H432   C115    1.088   1_565 S
H434   N341    1.029   1_655 S
H439   C325    1.083   1_655 S
N442   H331    1.029   1_655 S
N442   N341    1.284   1_655 S
C453   H454    1.113   .     S
C453   C456    1.521   .     S
C453   O350    1.413   1_655 S
C453   H353    1.116   1_655 S
C456   H458    1.111   .     S
C456   H457    1.110   .     S
C456   H459    1.111   .     S
C460   C470    1.426   .     S
C460   O496    1.284   .     A
C460   O495    1.290   .     A
C461   C462    1.418   .     A
C461   C4      1.425   1_556 S
C461   C20     1.415   1_556 S
C462   C469    1.426   .     A
C462   C466    1.414   .     A
C463   C467    1.402   .     A
C464   C465    1.392   .     A
C464   C4      1.419   1_556 S
C464   C16     1.405   1_556 S
C465   C466    1.388   .     A
C465   H486    1.084   .     S
C466   H491    1.080   .     S
C467   C476    1.398   .     A
C467   H488    1.077   .     S
C468   C476    1.398   .     A
C468   C475    1.395   .     A
C468   H482    1.083   .     S
C469   C471    1.482   .     S
C469   C477    1.414   .     A
C470   C625    1.327   .     S
C470   H645    1.087   .     S
C471   O498    1.297   .     A
C471   O497    1.303   .     A
C472   C473    1.426   .     S
C472   C776    1.327   1_545 S
C472   H789    1.088   1_545 S
C473   O500    1.291   .     A
C473   O499    1.284   .     A
C474   O501    1.294   .     A
C474   O502    1.301   .     A
C474   C476    1.465   .     S
C475   H538    1.084   .     S
C477   O503    1.384   .     S
C477   C478    1.394   .     A
C478   C20     1.388   1_556 S
C478   H592    1.083   1_455 S
C479   H489    1.077   .     S
Cu480  N494    2.017   .     S
Cu480  O495    1.954   .     S
Cu480  O499    1.950   .     S
Cu480  O501    1.917   .     S
Cu480  Cu481   2.685   .     S
Cu480  O497    1.939   .     S
Cu481  N493    2.017   .     S
Cu481  O500    1.954   .     S
Cu481  O498    1.917   .     S
Cu481  O496    1.950   .     S
Cu481  O502    1.939   .     S
H483   C625    1.088   .     S
H484   N595    1.029   1_455 S
H485   N545    1.029   .     S
H487   C577    1.084   1_455 S
H490   C529    1.083   .     S
H492   C776    1.087   1_545 S
N493   H535    1.029   .     S
N493   N545    1.284   .     S
N494   N595    1.284   1_455 S
N494   H587    1.029   1_455 S
O503   C606    1.413   1_455 S
C504   H505    1.113   .     S
C504   C507    1.521   .     S
C504   O554    1.413   .     S
C504   H557    1.116   .     S
H506   C606    1.116   1_455 S
C507   H509    1.111   .     S
C507   H508    1.110   .     S
C507   H510    1.111   .     S
C511   C521    1.426   .     S
C511   O547    1.284   .     A
C511   O546    1.290   .     A
C512   C513    1.418   .     A
C512   C55     1.425   1_556 S
C512   C71     1.415   1_556 S
C513   C520    1.426   .     A
C513   C517    1.414   .     A
C514   C518    1.402   .     A
C515   C516    1.392   .     A
C515   C55     1.419   1_556 S
C515   C67     1.405   1_556 S
C516   C517    1.388   .     A
C516   H537    1.084   .     S
C517   H542    1.080   .     S
C518   C527    1.398   .     A
C518   H539    1.077   .     S
C519   C527    1.398   .     A
C519   C526    1.395   .     A
C519   H533    1.083   .     S
C520   C522    1.482   .     S
C520   C528    1.414   .     A
C521   C676    1.327   .     S
C521   H696    1.087   .     S
C522   O549    1.297   .     A
C522   O548    1.303   .     A
C523   C524    1.426   .     S
C523   C827    1.327   1_545 S
C523   H840    1.088   1_545 S
C524   O551    1.291   .     A
C524   O550    1.284   .     A
C525   O552    1.294   .     A
C525   O553    1.301   .     A
C525   C527    1.465   .     S
C526   H589    1.084   .     S
C528   O554    1.384   .     S
C528   C529    1.394   .     A
C529   C71     1.388   1_556 S
C530   H540    1.077   .     S
Cu531  N545    2.017   .     S
Cu531  O546    1.954   .     S
Cu531  O550    1.950   .     S
Cu531  O552    1.917   .     S
Cu531  Cu532   2.685   .     S
Cu531  O548    1.939   .     S
Cu532  N544    2.017   .     S
Cu532  O551    1.954   .     S
Cu532  O549    1.917   .     S
Cu532  O547    1.950   .     S
Cu532  O553    1.939   .     S
H534   C676    1.088   .     S
H536   N596    1.029   .     S
H541   C580    1.083   .     S
H543   C827    1.087   1_545 S
N544   H586    1.029   .     S
N544   N596    1.284   .     S
C555   H556    1.113   .     S
C555   C558    1.521   .     S
C555   O605    1.413   .     S
C555   H608    1.116   .     S
C558   H560    1.111   .     S
C558   H559    1.110   .     S
C558   H561    1.111   .     S
C562   C572    1.426   .     S
C562   O598    1.284   .     A
C562   O597    1.290   .     A
C563   C564    1.418   .     A
C563   C106    1.425   1_556 S
C563   C122    1.415   1_556 S
C564   C571    1.426   .     A
C564   C568    1.414   .     A
C565   C569    1.402   .     A
C566   C567    1.392   .     A
C566   C106    1.419   1_556 S
C566   C118    1.405   1_556 S
C567   C568    1.388   .     A
C567   H588    1.084   .     S
C568   H593    1.080   .     S
C569   C578    1.398   .     A
C569   H590    1.077   .     S
C570   C578    1.398   .     A
C570   C577    1.395   .     A
C570   H584    1.083   .     S
C571   C573    1.482   .     S
C571   C579    1.414   .     A
C572   C727    1.327   .     S
C572   H747    1.087   .     S
C573   O600    1.297   .     A
C573   O599    1.303   .     A
C574   C575    1.426   .     S
C574   C878    1.327   1_545 S
C574   H891    1.088   1_545 S
C575   O602    1.291   .     A
C575   O601    1.284   .     A
C576   O603    1.294   .     A
C576   O604    1.301   .     A
C576   C578    1.465   .     S
C577   H487    1.084   1_655 S
C579   O605    1.384   .     S
C579   C580    1.394   .     A
C580   C122    1.388   1_556 S
C581   H591    1.077   .     S
Cu582  N596    2.017   .     S
Cu582  O597    1.954   .     S
Cu582  O601    1.950   .     S
Cu582  O603    1.917   .     S
Cu582  Cu583   2.685   .     S
Cu582  O599    1.939   .     S
Cu583  N595    2.017   .     S
Cu583  O602    1.954   .     S
Cu583  O600    1.917   .     S
Cu583  O598    1.950   .     S
Cu583  O604    1.939   .     S
H585   C727    1.088   .     S
H587   N494    1.029   1_655 S
H592   C478    1.083   1_655 S
H594   C878    1.087   1_545 S
N595   H484    1.029   1_655 S
N595   N494    1.284   1_655 S
C606   H607    1.113   .     S
C606   C609    1.521   .     S
C606   O503    1.413   1_655 S
C606   H506    1.116   1_655 S
C609   H611    1.111   .     S
C609   H610    1.110   .     S
C609   H612    1.111   .     S
C613   C623    1.426   .     S
C613   O649    1.284   .     A
C613   O648    1.290   .     A
C614   C615    1.418   .     A
C614   C157    1.425   1_556 S
C614   C173    1.415   1_556 S
C615   C622    1.426   .     A
C615   C619    1.414   .     A
C616   C620    1.402   .     A
C617   C618    1.392   .     A
C617   C157    1.419   1_556 S
C617   C169    1.405   1_556 S
C618   C619    1.388   .     A
C618   H639    1.084   .     S
C619   H644    1.080   .     S
C620   C629    1.398   .     A
C620   H641    1.077   .     S
C621   C629    1.398   .     A
C621   C628    1.395   .     A
C621   H635    1.083   .     S
C622   C624    1.482   .     S
C622   C630    1.414   .     A
C623   C778    1.327   .     S
C623   H798    1.087   .     S
C624   O651    1.297   .     A
C624   O650    1.303   .     A
C625   C626    1.426   .     S
C626   O653    1.291   .     A
C626   O652    1.284   .     A
C627   O654    1.294   .     A
C627   O655    1.301   .     A
C627   C629    1.465   .     S
C628   H691    1.084   .     S
C630   O656    1.384   .     S
C630   C631    1.394   .     A
C631   C173    1.388   1_556 S
C631   H745    1.083   1_455 S
C632   H642    1.077   .     S
Cu633  N647    2.017   .     S
Cu633  O648    1.954   .     S
Cu633  O652    1.950   .     S
Cu633  O654    1.917   .     S
Cu633  Cu634   2.685   .     S
Cu633  O650    1.939   .     S
Cu634  N646    2.017   .     S
Cu634  O653    1.954   .     S
Cu634  O651    1.917   .     S
Cu634  O649    1.950   .     S
Cu634  O655    1.939   .     S
H636   C778    1.088   .     S
H637   N748    1.029   1_455 S
H638   N698    1.029   .     S
H640   C730    1.084   1_455 S
H643   C682    1.083   .     S
N646   H688    1.029   .     S
N646   N698    1.284   .     S
N647   N748    1.284   1_455 S
N647   H740    1.029   1_455 S
O656   C759    1.413   1_455 S
C657   H658    1.113   .     S
C657   C660    1.521   .     S
C657   O707    1.413   .     S
C657   H710    1.116   .     S
H659   C759    1.116   1_455 S
C660   H662    1.111   .     S
C660   H661    1.110   .     S
C660   H663    1.111   .     S
C664   C674    1.426   .     S
C664   O700    1.284   .     A
C664   O699    1.290   .     A
C665   C666    1.418   .     A
C665   C208    1.425   1_556 S
C665   C224    1.415   1_556 S
C666   C673    1.426   .     A
C666   C670    1.414   .     A
C667   C671    1.402   .     A
C668   C669    1.392   .     A
C668   C208    1.419   1_556 S
C668   C220    1.405   1_556 S
C669   C670    1.388   .     A
C669   H690    1.084   .     S
C670   H695    1.080   .     S
C671   C680    1.398   .     A
C671   H692    1.077   .     S
C672   C680    1.398   .     A
C672   C679    1.395   .     A
C672   H686    1.083   .     S
C673   C675    1.482   .     S
C673   C681    1.414   .     A
C674   C829    1.327   .     S
C674   H849    1.087   .     S
C675   O702    1.297   .     A
C675   O701    1.303   .     A
C676   C677    1.426   .     S
C677   O704    1.291   .     A
C677   O703    1.284   .     A
C678   O705    1.294   .     A
C678   O706    1.301   .     A
C678   C680    1.465   .     S
C679   H742    1.084   .     S
C681   O707    1.384   .     S
C681   C682    1.394   .     A
C682   C224    1.388   1_556 S
C683   H693    1.077   .     S
Cu684  N698    2.017   .     S
Cu684  O699    1.954   .     S
Cu684  O703    1.950   .     S
Cu684  O705    1.917   .     S
Cu684  Cu685   2.685   .     S
Cu684  O701    1.939   .     S
Cu685  N697    2.017   .     S
Cu685  O704    1.954   .     S
Cu685  O702    1.917   .     S
Cu685  O700    1.950   .     S
Cu685  O706    1.939   .     S
H687   C829    1.088   .     S
H689   N749    1.029   .     S
H694   C733    1.083   .     S
N697   H739    1.029   .     S
N697   N749    1.284   .     S
C708   H709    1.113   .     S
C708   C711    1.521   .     S
C708   O758    1.413   .     S
C708   H761    1.116   .     S
C711   H713    1.111   .     S
C711   H712    1.110   .     S
C711   H714    1.111   .     S
C715   C725    1.426   .     S
C715   O751    1.284   .     A
C715   O750    1.290   .     A
C716   C717    1.418   .     A
C716   C259    1.425   1_556 S
C716   C275    1.415   1_556 S
C717   C724    1.426   .     A
C717   C721    1.414   .     A
C718   C722    1.402   .     A
C719   C720    1.392   .     A
C719   C259    1.419   1_556 S
C719   C271    1.405   1_556 S
C720   C721    1.388   .     A
C720   H741    1.084   .     S
C721   H746    1.080   .     S
C722   C731    1.398   .     A
C722   H743    1.077   .     S
C723   C731    1.398   .     A
C723   C730    1.395   .     A
C723   H737    1.083   .     S
C724   C726    1.482   .     S
C724   C732    1.414   .     A
C725   C880    1.327   .     S
C725   H900    1.087   .     S
C726   O753    1.297   .     A
C726   O752    1.303   .     A
C727   C728    1.426   .     S
C728   O755    1.291   .     A
C728   O754    1.284   .     A
C729   O756    1.294   .     A
C729   O757    1.301   .     A
C729   C731    1.465   .     S
C730   H640    1.084   1_655 S
C732   O758    1.384   .     S
C732   C733    1.394   .     A
C733   C275    1.388   1_556 S
C734   H744    1.077   .     S
Cu735  N749    2.017   .     S
Cu735  O750    1.954   .     S
Cu735  O754    1.950   .     S
Cu735  O756    1.917   .     S
Cu735  Cu736   2.685   .     S
Cu735  O752    1.939   .     S
Cu736  N748    2.017   .     S
Cu736  O755    1.954   .     S
Cu736  O753    1.917   .     S
Cu736  O751    1.950   .     S
Cu736  O757    1.939   .     S
H738   C880    1.088   .     S
H740   N647    1.029   1_655 S
H745   C631    1.083   1_655 S
N748   H637    1.029   1_655 S
N748   N647    1.284   1_655 S
C759   H760    1.113   .     S
C759   C762    1.521   .     S
C759   O656    1.413   1_655 S
C759   H659    1.116   1_655 S
C762   H764    1.111   .     S
C762   H763    1.110   .     S
C762   H765    1.111   .     S
C766   C776    1.426   .     S
C766   O802    1.284   .     A
C766   O801    1.290   .     A
C767   C768    1.418   .     A
C767   C310    1.425   1_556 S
C767   C326    1.415   1_556 S
C768   C775    1.426   .     A
C768   C772    1.414   .     A
C769   C773    1.402   .     A
C770   C771    1.392   .     A
C770   C310    1.419   1_556 S
C770   C322    1.405   1_556 S
C771   C772    1.388   .     A
C771   H792    1.084   .     S
C772   H797    1.080   .     S
C773   C782    1.398   .     A
C773   H794    1.077   .     S
C774   C782    1.398   .     A
C774   C781    1.395   .     A
C774   H788    1.083   .     S
C775   C777    1.482   .     S
C775   C783    1.414   .     A
C776   C472    1.327   1_565 S
C776   H492    1.087   1_565 S
C777   O804    1.297   .     A
C777   O803    1.303   .     A
C778   C779    1.426   .     S
C779   O806    1.291   .     A
C779   O805    1.284   .     A
C780   O807    1.294   .     A
C780   O808    1.301   .     A
C780   C782    1.465   .     S
C781   H844    1.084   .     S
C783   O809    1.384   .     S
C783   C784    1.394   .     A
C784   C326    1.388   1_556 S
C784   H898    1.083   1_455 S
C785   H795    1.077   .     S
Cu786  N800    2.017   .     S
Cu786  O801    1.954   .     S
Cu786  O805    1.950   .     S
Cu786  O807    1.917   .     S
Cu786  Cu787   2.685   .     S
Cu786  O803    1.939   .     S
Cu787  N799    2.017   .     S
Cu787  O806    1.954   .     S
Cu787  O804    1.917   .     S
Cu787  O802    1.950   .     S
Cu787  O808    1.939   .     S
H789   C472    1.088   1_565 S
H790   N901    1.029   1_455 S
H791   N851    1.029   .     S
H793   C883    1.084   1_455 S
H796   C835    1.083   .     S
N799   H841    1.029   .     S
N799   N851    1.284   .     S
N800   N901    1.284   1_455 S
N800   H893    1.029   1_455 S
O809   C912    1.413   1_455 S
C810   H811    1.113   .     S
C810   C813    1.521   .     S
C810   O860    1.413   .     S
C810   H863    1.116   .     S
H812   C912    1.116   1_455 S
C813   H815    1.111   .     S
C813   H814    1.110   .     S
C813   H816    1.111   .     S
C817   C827    1.426   .     S
C817   O853    1.284   .     A
C817   O852    1.290   .     A
C818   C819    1.418   .     A
C818   C361    1.425   1_556 S
C818   C377    1.415   1_556 S
C819   C826    1.426   .     A
C819   C823    1.414   .     A
C820   C824    1.402   .     A
C821   C822    1.392   .     A
C821   C361    1.419   1_556 S
C821   C373    1.405   1_556 S
C822   C823    1.388   .     A
C822   H843    1.084   .     S
C823   H848    1.080   .     S
C824   C833    1.398   .     A
C824   H845    1.077   .     S
C825   C833    1.398   .     A
C825   C832    1.395   .     A
C825   H839    1.083   .     S
C826   C828    1.482   .     S
C826   C834    1.414   .     A
C827   C523    1.327   1_565 S
C827   H543    1.087   1_565 S
C828   O855    1.297   .     A
C828   O854    1.303   .     A
C829   C830    1.426   .     S
C830   O857    1.291   .     A
C830   O856    1.284   .     A
C831   O858    1.294   .     A
C831   O859    1.301   .     A
C831   C833    1.465   .     S
C832   H895    1.084   .     S
C834   O860    1.384   .     S
C834   C835    1.394   .     A
C835   C377    1.388   1_556 S
C836   H846    1.077   .     S
Cu837  N851    2.017   .     S
Cu837  O852    1.954   .     S
Cu837  O856    1.950   .     S
Cu837  O858    1.917   .     S
Cu837  Cu838   2.685   .     S
Cu837  O854    1.939   .     S
Cu838  N850    2.017   .     S
Cu838  O857    1.954   .     S
Cu838  O855    1.917   .     S
Cu838  O853    1.950   .     S
Cu838  O859    1.939   .     S
H840   C523    1.088   1_565 S
H842   N902    1.029   .     S
H847   C886    1.083   .     S
N850   H892    1.029   .     S
N850   N902    1.284   .     S
C861   H862    1.113   .     S
C861   C864    1.521   .     S
C861   O911    1.413   .     S
C861   H914    1.116   .     S
C864   H866    1.111   .     S
C864   H865    1.110   .     S
C864   H867    1.111   .     S
C868   C878    1.426   .     S
C868   O904    1.284   .     A
C868   O903    1.290   .     A
C869   C870    1.418   .     A
C869   C412    1.425   1_556 S
C869   C428    1.415   1_556 S
C870   C877    1.426   .     A
C870   C874    1.414   .     A
C871   C875    1.402   .     A
C872   C873    1.392   .     A
C872   C412    1.419   1_556 S
C872   C424    1.405   1_556 S
C873   C874    1.388   .     A
C873   H894    1.084   .     S
C874   H899    1.080   .     S
C875   C884    1.398   .     A
C875   H896    1.077   .     S
C876   C884    1.398   .     A
C876   C883    1.395   .     A
C876   H890    1.083   .     S
C877   C879    1.482   .     S
C877   C885    1.414   .     A
C878   C574    1.327   1_565 S
C878   H594    1.087   1_565 S
C879   O906    1.297   .     A
C879   O905    1.303   .     A
C880   C881    1.426   .     S
C881   O908    1.291   .     A
C881   O907    1.284   .     A
C882   O909    1.294   .     A
C882   O910    1.301   .     A
C882   C884    1.465   .     S
C883   H793    1.084   1_655 S
C885   O911    1.384   .     S
C885   C886    1.394   .     A
C886   C428    1.388   1_556 S
C887   H897    1.077   .     S
Cu888  N902    2.017   .     S
Cu888  O903    1.954   .     S
Cu888  O907    1.950   .     S
Cu888  O909    1.917   .     S
Cu888  Cu889   2.685   .     S
Cu888  O905    1.939   .     S
Cu889  N901    2.017   .     S
Cu889  O908    1.954   .     S
Cu889  O906    1.917   .     S
Cu889  O904    1.950   .     S
Cu889  O910    1.939   .     S
H891   C574    1.088   1_565 S
H893   N800    1.029   1_655 S
H898   C784    1.083   1_655 S
N901   H790    1.029   1_655 S
N901   N800    1.284   1_655 S
C912   H913    1.113   .     S
C912   C915    1.521   .     S
C912   O809    1.413   1_655 S
C912   H812    1.116   1_655 S
C915   H917    1.111   .     S
C915   H916    1.110   .     S
C915   H918    1.111   .     S
