data_str_m3_o1_o1_pcu_sym.43
_audit_creation_date              2020-01-03
_audit_creation_method            'Materials Studio'
_symmetry_space_group_name_H-M    'P1'
_symmetry_Int_Tables_number       1
_symmetry_cell_setting            triclinic
loop_
_symmetry_equiv_pos_as_xyz
  x,y,z
_cell_length_a                    30.2574
_cell_length_b                    30.1371
_cell_length_c                    29.5125
_cell_angle_alpha                 90.0220
_cell_angle_beta                  90.1135
_cell_angle_gamma                 89.6226
loop_
_atom_site_label
_atom_site_type_symbol
_atom_site_fract_x
_atom_site_fract_y
_atom_site_fract_z
_atom_site_U_iso_or_equiv
_atom_site_adp_type
_atom_site_occupancy
C1     C     0.05991   0.19011   0.16666   0.00000  Uiso   1.00
C2     C     0.49677   0.21117   0.30933   0.00000  Uiso   1.00
C3     C     0.49674   0.21117   0.02396   0.00000  Uiso   1.00
C4     C     0.00334   0.28882   0.30937   0.00000  Uiso   1.00
C5     C     0.24858   0.03897   0.02400   0.00000  Uiso   1.00
C6     C     0.25153   0.46104   0.30935   0.00000  Uiso   1.00
C7     C     0.25154   0.46104   0.02397   0.00000  Uiso   1.00
C8     C     0.24861   0.03897   0.30936   0.00000  Uiso   1.00
C9     C     0.37025   0.16229   0.13833   0.00000  Uiso   1.00
C10    C     0.12354   0.34402   0.20760   0.00000  Uiso   1.00
C11    C     0.12132   0.34612   0.12461   0.00000  Uiso   1.00
C12    C     0.44039   0.31019   0.16661   0.00000  Uiso   1.00
C13    C     0.41264   0.11992   0.19496   0.00000  Uiso   1.00
C14    C     0.13461   0.16721   0.18496   0.00000  Uiso   1.00
C15    C     0.41624   0.38455   0.14679   0.00000  Uiso   1.00
C16    C     0.36637   0.33305   0.18593   0.00000  Uiso   1.00
C17    C     0.08323   0.11537   0.14799   0.00000  Uiso   1.00
C18    C     0.15362   0.37849   0.12459   0.00000  Uiso   1.00
C19    C     0.38042   0.08764   0.19535   0.00000  Uiso   1.00
C20    C     0.33790   0.12979   0.13836   0.00000  Uiso   1.00
C21    C     0.15600   0.37635   0.20756   0.00000  Uiso   1.00
C22    C     0.33353   0.36519   0.18611   0.00000  Uiso   1.00
C23    C     0.44014   0.18999   0.16664   0.00000  Uiso   1.00
C24    C     0.11551   0.08294   0.14824   0.00000  Uiso   1.00
C25    C     0.16689   0.13477   0.18523   0.00000  Uiso   1.00
C26    C     0.38341   0.41667   0.14693   0.00000  Uiso   1.00
C27    C     0.10283   0.33292   0.16633   0.00000  Uiso   1.00
C28    C     0.40717   0.15682   0.16658   0.00000  Uiso   1.00
C29    C     0.40721   0.34316   0.16644   0.00000  Uiso   1.00
C30    C     0.09303   0.15711   0.16656   0.00000  Uiso   1.00
C31    C     0.34327   0.09290   0.16696   0.00000  Uiso   1.00
C32    C     0.16703   0.39704   0.16628   0.00000  Uiso   1.00
C33    C     0.15706   0.09301   0.16672   0.00000  Uiso   1.00
C34    C     0.06286   0.30705   0.16664   0.00000  Uiso   1.00
C35    C     0.34266   0.40669   0.16674   0.00000  Uiso   1.00
C36    C     0.30957   0.43976   0.16670   0.00000  Uiso   1.00
C37    C     0.19014   0.05995   0.16667   0.00000  Uiso   1.00
C38    C     0.19298   0.43707   0.16660   0.00000  Uiso   1.00
C39    C     0.31012   0.05981   0.16675   0.00000  Uiso   1.00
C40    C     0.00334   0.28882   0.02401   0.00000  Uiso   1.00
H41    H     0.00602   0.31986   0.04220   0.00000  Uiso   1.00
H42    H     0.36293   0.19199   0.07692   0.00000  Uiso   1.00
H43    H     0.13934   0.30651   0.26283   0.00000  Uiso   1.00
H44    H     0.10013   0.34635   0.27231   0.00000  Uiso   1.00
H45    H     0.13406   0.31174   0.06647   0.00000  Uiso   1.00
H46    H     0.09428   0.35187   0.06144   0.00000  Uiso   1.00
H47    H     0.44139   0.11347   0.25669   0.00000  Uiso   1.00
H48    H     0.46716   0.08533   0.21454   0.00000  Uiso   1.00
H49    H     0.12459   0.21716   0.23019   0.00000  Uiso   1.00
H50    H     0.13855   0.23404   0.17718   0.00000  Uiso   1.00
H51    H     0.48302   0.38892   0.15229   0.00000  Uiso   1.00
H52    H     0.49424   0.18013   0.29113   0.00000  Uiso   1.00
H53    H     0.46442   0.37408   0.10007   0.00000  Uiso   1.00
H54    H     0.34978   0.29359   0.23870   0.00000  Uiso   1.00
H55    H     0.33167   0.27578   0.18751   0.00000  Uiso   1.00
H56    H     0.01645   0.11222   0.15371   0.00000  Uiso   1.00
H57    H     0.03492   0.12533   0.10115   0.00000  Uiso   1.00
H58    H     0.14765   0.40559   0.06149   0.00000  Uiso   1.00
H59    H     0.18760   0.36560   0.06635   0.00000  Uiso   1.00
H60    H     0.38281   0.02062   0.20435   0.00000  Uiso   1.00
H61    H     0.36336   0.04993   0.24968   0.00000  Uiso   1.00
H62    H     0.30907   0.13563   0.07641   0.00000  Uiso   1.00
H63    H     0.49413   0.18013   0.04213   0.00000  Uiso   1.00
H64    H     0.28279   0.16368   0.11853   0.00000  Uiso   1.00
H65    H     0.15423   0.39982   0.27236   0.00000  Uiso   1.00
H66    H     0.19359   0.36020   0.26258   0.00000  Uiso   1.00
H67    H     0.26682   0.36063   0.17998   0.00000  Uiso   1.00
H68    H     0.28489   0.37549   0.23238   0.00000  Uiso   1.00
H69    H     0.12551   0.03330   0.10269   0.00000  Uiso   1.00
H70    H     0.11183   0.01604   0.15565   0.00000  Uiso   1.00
H71    H     0.23365   0.13788   0.17938   0.00000  Uiso   1.00
H72    H     0.21526   0.12488   0.23199   0.00000  Uiso   1.00
H73    H     0.39919   0.45548   0.09343   0.00000  Uiso   1.00
H74    H     0.00601   0.31986   0.29120   0.00000  Uiso   1.00
H75    H     0.41838   0.47373   0.14400   0.00000  Uiso   1.00
H76    H     0.24745   0.07013   0.04221   0.00000  Uiso   1.00
H77    H     0.25283   0.42990   0.29119   0.00000  Uiso   1.00
H78    H     0.25286   0.42989   0.04214   0.00000  Uiso   1.00
H79    H     0.24756   0.07012   0.29120   0.00000  Uiso   1.00
H80    H     0.33670   0.21829   0.12032   0.00000  Uiso   1.00
N81    N    -0.00000   0.25000   0.28573   0.00000  Uiso   1.00
N82    N     0.45865   0.39484   0.12781   0.00000  Uiso   1.00
N83    N     0.35844   0.28983   0.20462   0.00000  Uiso   1.00
N84    N     0.04055   0.10520   0.12941   0.00000  Uiso   1.00
N85    N     0.17253   0.39267   0.08235   0.00000  Uiso   1.00
N86    N     0.38677   0.04936   0.22372   0.00000  Uiso   1.00
N87    N     0.29922   0.13417   0.11030   0.00000  Uiso   1.00
N88    N     0.17769   0.38818   0.24922   0.00000  Uiso   1.00
N89    N     0.29098   0.35476   0.20469   0.00000  Uiso   1.00
N90    N     0.10528   0.03975   0.13061   0.00000  Uiso   1.00
N91    N     0.20960   0.14497   0.20371   0.00000  Uiso   1.00
N92    N    -0.00000   0.25000   0.04760   0.00000  Uiso   1.00
N93    N     0.39119   0.45966   0.12762   0.00000  Uiso   1.00
N94    N     0.25000   0.00000   0.28573   0.00000  Uiso   1.00
N95    N     0.25000   0.00000   0.04760   0.00000  Uiso   1.00
N96    N     0.36555   0.20145   0.11089   0.00000  Uiso   1.00
N97    N     0.11159   0.32257   0.24930   0.00000  Uiso   1.00
N98    N     0.10713   0.32696   0.08239   0.00000  Uiso   1.00
N99    N     0.45138   0.11521   0.22284   0.00000  Uiso   1.00
N100   N     0.14490   0.21047   0.20240   0.00000  Uiso   1.00
O101   O     0.04580   0.20419   0.20487   0.00000  Uiso   1.00
O102   O     0.20419   0.04581   0.12846   0.00000  Uiso   1.00
O103   O     0.20419   0.04581   0.20487   0.00000  Uiso   1.00
O104   O     0.29580   0.45419   0.12846   0.00000  Uiso   1.00
O105   O     0.20419   0.45419   0.12846   0.00000  Uiso   1.00
O106   O     0.29580   0.04581   0.20487   0.00000  Uiso   1.00
O107   O     0.29580   0.04581   0.12846   0.00000  Uiso   1.00
O108   O     0.20419   0.45419   0.20487   0.00000  Uiso   1.00
O109   O     0.45419   0.29581   0.12846   0.00000  Uiso   1.00
O110   O     0.45419   0.29581   0.20487   0.00000  Uiso   1.00
O111   O     0.04580   0.20419   0.12846   0.00000  Uiso   1.00
O112   O     0.45419   0.20419   0.12846   0.00000  Uiso   1.00
O113   O     0.04580   0.29581   0.20487   0.00000  Uiso   1.00
O114   O     0.04580   0.29581   0.12846   0.00000  Uiso   1.00
O115   O     0.45419   0.20419   0.20487   0.00000  Uiso   1.00
O116   O     0.29580   0.45419   0.20487   0.00000  Uiso   1.00
Zn117  Zn    0.00000   0.25000   0.21771   0.00000  Uiso   1.00
Zn118  Zn   -0.00000   0.25000   0.11563   0.00000  Uiso   1.00
Zn119  Zn    0.25000   0.00000   0.21771   0.00000  Uiso   1.00
Zn120  Zn    0.25000   0.00000   0.11563   0.00000  Uiso   1.00
C121   C     0.55991   0.19011   0.16666   0.00000  Uiso   1.00
C122   C     0.99677   0.21117   0.30933   0.00000  Uiso   1.00
C123   C     0.99674   0.21117   0.02396   0.00000  Uiso   1.00
C124   C     0.50334   0.28882   0.30937   0.00000  Uiso   1.00
C125   C     0.74858   0.03897   0.02400   0.00000  Uiso   1.00
C126   C     0.75153   0.46104   0.30935   0.00000  Uiso   1.00
C127   C     0.75154   0.46104   0.02397   0.00000  Uiso   1.00
C128   C     0.74861   0.03897   0.30936   0.00000  Uiso   1.00
C129   C     0.87025   0.16229   0.13833   0.00000  Uiso   1.00
C130   C     0.62354   0.34402   0.20760   0.00000  Uiso   1.00
C131   C     0.62132   0.34612   0.12461   0.00000  Uiso   1.00
C132   C     0.94039   0.31019   0.16661   0.00000  Uiso   1.00
C133   C     0.91264   0.11992   0.19496   0.00000  Uiso   1.00
C134   C     0.63461   0.16721   0.18496   0.00000  Uiso   1.00
C135   C     0.91624   0.38455   0.14679   0.00000  Uiso   1.00
C136   C     0.86637   0.33305   0.18593   0.00000  Uiso   1.00
C137   C     0.58323   0.11537   0.14799   0.00000  Uiso   1.00
C138   C     0.65362   0.37849   0.12459   0.00000  Uiso   1.00
C139   C     0.88042   0.08764   0.19535   0.00000  Uiso   1.00
C140   C     0.83790   0.12979   0.13836   0.00000  Uiso   1.00
C141   C     0.65600   0.37635   0.20756   0.00000  Uiso   1.00
C142   C     0.83353   0.36519   0.18611   0.00000  Uiso   1.00
C143   C     0.94014   0.18999   0.16664   0.00000  Uiso   1.00
C144   C     0.61551   0.08294   0.14824   0.00000  Uiso   1.00
C145   C     0.66689   0.13477   0.18523   0.00000  Uiso   1.00
C146   C     0.88341   0.41667   0.14693   0.00000  Uiso   1.00
C147   C     0.60283   0.33292   0.16633   0.00000  Uiso   1.00
C148   C     0.90717   0.15682   0.16658   0.00000  Uiso   1.00
C149   C     0.90721   0.34316   0.16644   0.00000  Uiso   1.00
C150   C     0.59303   0.15711   0.16656   0.00000  Uiso   1.00
C151   C     0.84327   0.09290   0.16696   0.00000  Uiso   1.00
C152   C     0.66703   0.39704   0.16628   0.00000  Uiso   1.00
C153   C     0.65706   0.09301   0.16672   0.00000  Uiso   1.00
C154   C     0.56286   0.30705   0.16664   0.00000  Uiso   1.00
C155   C     0.84266   0.40669   0.16674   0.00000  Uiso   1.00
C156   C     0.80957   0.43976   0.16670   0.00000  Uiso   1.00
C157   C     0.69014   0.05995   0.16667   0.00000  Uiso   1.00
C158   C     0.69298   0.43707   0.16660   0.00000  Uiso   1.00
C159   C     0.81012   0.05981   0.16675   0.00000  Uiso   1.00
C160   C     0.50334   0.28882   0.02401   0.00000  Uiso   1.00
H161   H     0.50602   0.31986   0.04220   0.00000  Uiso   1.00
H162   H     0.86293   0.19199   0.07692   0.00000  Uiso   1.00
H163   H     0.63934   0.30651   0.26283   0.00000  Uiso   1.00
H164   H     0.60013   0.34635   0.27231   0.00000  Uiso   1.00
H165   H     0.63406   0.31174   0.06647   0.00000  Uiso   1.00
H166   H     0.59428   0.35187   0.06144   0.00000  Uiso   1.00
H167   H     0.94139   0.11347   0.25669   0.00000  Uiso   1.00
H168   H     0.96716   0.08533   0.21454   0.00000  Uiso   1.00
H169   H     0.62459   0.21716   0.23019   0.00000  Uiso   1.00
H170   H     0.63855   0.23404   0.17718   0.00000  Uiso   1.00
H171   H     0.98302   0.38892   0.15229   0.00000  Uiso   1.00
H172   H     0.99424   0.18013   0.29113   0.00000  Uiso   1.00
H173   H     0.96442   0.37408   0.10007   0.00000  Uiso   1.00
H174   H     0.84978   0.29359   0.23870   0.00000  Uiso   1.00
H175   H     0.83167   0.27578   0.18751   0.00000  Uiso   1.00
H176   H     0.51645   0.11222   0.15371   0.00000  Uiso   1.00
H177   H     0.53492   0.12533   0.10115   0.00000  Uiso   1.00
H178   H     0.64765   0.40559   0.06149   0.00000  Uiso   1.00
H179   H     0.68760   0.36560   0.06635   0.00000  Uiso   1.00
H180   H     0.88281   0.02062   0.20435   0.00000  Uiso   1.00
H181   H     0.86336   0.04993   0.24968   0.00000  Uiso   1.00
H182   H     0.80907   0.13563   0.07641   0.00000  Uiso   1.00
H183   H     0.99413   0.18013   0.04213   0.00000  Uiso   1.00
H184   H     0.78279   0.16368   0.11853   0.00000  Uiso   1.00
H185   H     0.65423   0.39982   0.27236   0.00000  Uiso   1.00
H186   H     0.69359   0.36020   0.26258   0.00000  Uiso   1.00
H187   H     0.76682   0.36063   0.17998   0.00000  Uiso   1.00
H188   H     0.78489   0.37549   0.23238   0.00000  Uiso   1.00
H189   H     0.62551   0.03330   0.10269   0.00000  Uiso   1.00
H190   H     0.61183   0.01604   0.15565   0.00000  Uiso   1.00
H191   H     0.73365   0.13788   0.17938   0.00000  Uiso   1.00
H192   H     0.71526   0.12488   0.23199   0.00000  Uiso   1.00
H193   H     0.89919   0.45548   0.09343   0.00000  Uiso   1.00
H194   H     0.50601   0.31986   0.29120   0.00000  Uiso   1.00
H195   H     0.91838   0.47373   0.14400   0.00000  Uiso   1.00
H196   H     0.74745   0.07013   0.04221   0.00000  Uiso   1.00
H197   H     0.75283   0.42990   0.29119   0.00000  Uiso   1.00
H198   H     0.75286   0.42989   0.04214   0.00000  Uiso   1.00
H199   H     0.74756   0.07012   0.29120   0.00000  Uiso   1.00
H200   H     0.83670   0.21829   0.12032   0.00000  Uiso   1.00
N201   N     0.50000   0.25000   0.28573   0.00000  Uiso   1.00
N202   N     0.95865   0.39484   0.12781   0.00000  Uiso   1.00
N203   N     0.85844   0.28983   0.20462   0.00000  Uiso   1.00
N204   N     0.54055   0.10520   0.12941   0.00000  Uiso   1.00
N205   N     0.67253   0.39267   0.08235   0.00000  Uiso   1.00
N206   N     0.88677   0.04936   0.22372   0.00000  Uiso   1.00
N207   N     0.79922   0.13417   0.11030   0.00000  Uiso   1.00
N208   N     0.67769   0.38818   0.24922   0.00000  Uiso   1.00
N209   N     0.79098   0.35476   0.20469   0.00000  Uiso   1.00
N210   N     0.60528   0.03975   0.13061   0.00000  Uiso   1.00
N211   N     0.70960   0.14497   0.20371   0.00000  Uiso   1.00
N212   N     0.50000   0.25000   0.04760   0.00000  Uiso   1.00
N213   N     0.89119   0.45966   0.12762   0.00000  Uiso   1.00
N214   N     0.75000   0.00000   0.28573   0.00000  Uiso   1.00
N215   N     0.75000   0.00000   0.04760   0.00000  Uiso   1.00
N216   N     0.86555   0.20145   0.11089   0.00000  Uiso   1.00
N217   N     0.61159   0.32257   0.24930   0.00000  Uiso   1.00
N218   N     0.60713   0.32696   0.08239   0.00000  Uiso   1.00
N219   N     0.95138   0.11521   0.22284   0.00000  Uiso   1.00
N220   N     0.64490   0.21047   0.20240   0.00000  Uiso   1.00
O221   O     0.54580   0.20419   0.20487   0.00000  Uiso   1.00
O222   O     0.70419   0.04581   0.12846   0.00000  Uiso   1.00
O223   O     0.70419   0.04581   0.20487   0.00000  Uiso   1.00
O224   O     0.79580   0.45419   0.12846   0.00000  Uiso   1.00
O225   O     0.70419   0.45419   0.12846   0.00000  Uiso   1.00
O226   O     0.79580   0.04581   0.20487   0.00000  Uiso   1.00
O227   O     0.79580   0.04581   0.12846   0.00000  Uiso   1.00
O228   O     0.70419   0.45419   0.20487   0.00000  Uiso   1.00
O229   O     0.95419   0.29581   0.12846   0.00000  Uiso   1.00
O230   O     0.95419   0.29581   0.20487   0.00000  Uiso   1.00
O231   O     0.54580   0.20419   0.12846   0.00000  Uiso   1.00
O232   O     0.95419   0.20419   0.12846   0.00000  Uiso   1.00
O233   O     0.54580   0.29581   0.20487   0.00000  Uiso   1.00
O234   O     0.54580   0.29581   0.12846   0.00000  Uiso   1.00
O235   O     0.95419   0.20419   0.20487   0.00000  Uiso   1.00
O236   O     0.79580   0.45419   0.20487   0.00000  Uiso   1.00
Zn237  Zn    0.50000   0.25000   0.21771   0.00000  Uiso   1.00
Zn238  Zn    0.50000   0.25000   0.11563   0.00000  Uiso   1.00
Zn239  Zn    0.75000   0.00000   0.21771   0.00000  Uiso   1.00
Zn240  Zn    0.75000   0.00000   0.11563   0.00000  Uiso   1.00
C241   C     0.05991   0.69011   0.16666   0.00000  Uiso   1.00
C242   C     0.49677   0.71117   0.30933   0.00000  Uiso   1.00
C243   C     0.49674   0.71117   0.02396   0.00000  Uiso   1.00
C244   C     0.00334   0.78882   0.30937   0.00000  Uiso   1.00
C245   C     0.24858   0.53897   0.02400   0.00000  Uiso   1.00
C246   C     0.25153   0.96104   0.30935   0.00000  Uiso   1.00
C247   C     0.25154   0.96104   0.02397   0.00000  Uiso   1.00
C248   C     0.24861   0.53897   0.30936   0.00000  Uiso   1.00
C249   C     0.37025   0.66229   0.13833   0.00000  Uiso   1.00
C250   C     0.12354   0.84402   0.20760   0.00000  Uiso   1.00
C251   C     0.12132   0.84612   0.12461   0.00000  Uiso   1.00
C252   C     0.44039   0.81019   0.16661   0.00000  Uiso   1.00
C253   C     0.41264   0.61992   0.19496   0.00000  Uiso   1.00
C254   C     0.13461   0.66721   0.18496   0.00000  Uiso   1.00
C255   C     0.41624   0.88455   0.14679   0.00000  Uiso   1.00
C256   C     0.36637   0.83305   0.18593   0.00000  Uiso   1.00
C257   C     0.08323   0.61537   0.14799   0.00000  Uiso   1.00
C258   C     0.15362   0.87849   0.12459   0.00000  Uiso   1.00
C259   C     0.38042   0.58764   0.19535   0.00000  Uiso   1.00
C260   C     0.33790   0.62979   0.13836   0.00000  Uiso   1.00
C261   C     0.15600   0.87635   0.20756   0.00000  Uiso   1.00
C262   C     0.33353   0.86519   0.18611   0.00000  Uiso   1.00
C263   C     0.44014   0.68999   0.16664   0.00000  Uiso   1.00
C264   C     0.11551   0.58294   0.14824   0.00000  Uiso   1.00
C265   C     0.16689   0.63477   0.18523   0.00000  Uiso   1.00
C266   C     0.38341   0.91667   0.14693   0.00000  Uiso   1.00
C267   C     0.10283   0.83292   0.16633   0.00000  Uiso   1.00
C268   C     0.40717   0.65682   0.16658   0.00000  Uiso   1.00
C269   C     0.40721   0.84316   0.16644   0.00000  Uiso   1.00
C270   C     0.09303   0.65711   0.16656   0.00000  Uiso   1.00
C271   C     0.34327   0.59290   0.16696   0.00000  Uiso   1.00
C272   C     0.16703   0.89704   0.16628   0.00000  Uiso   1.00
C273   C     0.15706   0.59301   0.16672   0.00000  Uiso   1.00
C274   C     0.06286   0.80705   0.16664   0.00000  Uiso   1.00
C275   C     0.34266   0.90669   0.16674   0.00000  Uiso   1.00
C276   C     0.30957   0.93976   0.16670   0.00000  Uiso   1.00
C277   C     0.19014   0.55995   0.16667   0.00000  Uiso   1.00
C278   C     0.19298   0.93707   0.16660   0.00000  Uiso   1.00
C279   C     0.31012   0.55981   0.16675   0.00000  Uiso   1.00
C280   C     0.00334   0.78882   0.02401   0.00000  Uiso   1.00
H281   H     0.00602   0.81986   0.04220   0.00000  Uiso   1.00
H282   H     0.36293   0.69199   0.07692   0.00000  Uiso   1.00
H283   H     0.13934   0.80651   0.26283   0.00000  Uiso   1.00
H284   H     0.10013   0.84635   0.27231   0.00000  Uiso   1.00
H285   H     0.13406   0.81174   0.06647   0.00000  Uiso   1.00
H286   H     0.09428   0.85187   0.06144   0.00000  Uiso   1.00
H287   H     0.44139   0.61347   0.25669   0.00000  Uiso   1.00
H288   H     0.46716   0.58533   0.21454   0.00000  Uiso   1.00
H289   H     0.12459   0.71716   0.23019   0.00000  Uiso   1.00
H290   H     0.13855   0.73404   0.17718   0.00000  Uiso   1.00
H291   H     0.48302   0.88892   0.15229   0.00000  Uiso   1.00
H292   H     0.49424   0.68013   0.29113   0.00000  Uiso   1.00
H293   H     0.46442   0.87408   0.10007   0.00000  Uiso   1.00
H294   H     0.34978   0.79359   0.23870   0.00000  Uiso   1.00
H295   H     0.33167   0.77578   0.18751   0.00000  Uiso   1.00
H296   H     0.01645   0.61222   0.15371   0.00000  Uiso   1.00
H297   H     0.03492   0.62533   0.10115   0.00000  Uiso   1.00
H298   H     0.14765   0.90559   0.06149   0.00000  Uiso   1.00
H299   H     0.18760   0.86560   0.06635   0.00000  Uiso   1.00
H300   H     0.38281   0.52062   0.20435   0.00000  Uiso   1.00
H301   H     0.36336   0.54993   0.24968   0.00000  Uiso   1.00
H302   H     0.30907   0.63563   0.07641   0.00000  Uiso   1.00
H303   H     0.49413   0.68013   0.04213   0.00000  Uiso   1.00
H304   H     0.28279   0.66368   0.11853   0.00000  Uiso   1.00
H305   H     0.15423   0.89982   0.27236   0.00000  Uiso   1.00
H306   H     0.19359   0.86020   0.26258   0.00000  Uiso   1.00
H307   H     0.26682   0.86063   0.17998   0.00000  Uiso   1.00
H308   H     0.28489   0.87549   0.23238   0.00000  Uiso   1.00
H309   H     0.12551   0.53330   0.10269   0.00000  Uiso   1.00
H310   H     0.11183   0.51604   0.15565   0.00000  Uiso   1.00
H311   H     0.23365   0.63788   0.17938   0.00000  Uiso   1.00
H312   H     0.21526   0.62488   0.23199   0.00000  Uiso   1.00
H313   H     0.39919   0.95548   0.09343   0.00000  Uiso   1.00
H314   H     0.00601   0.81986   0.29120   0.00000  Uiso   1.00
H315   H     0.41838   0.97373   0.14400   0.00000  Uiso   1.00
H316   H     0.24745   0.57013   0.04221   0.00000  Uiso   1.00
H317   H     0.25283   0.92990   0.29119   0.00000  Uiso   1.00
H318   H     0.25286   0.92989   0.04214   0.00000  Uiso   1.00
H319   H     0.24756   0.57012   0.29120   0.00000  Uiso   1.00
H320   H     0.33670   0.71829   0.12032   0.00000  Uiso   1.00
N321   N    -0.00000   0.75000   0.28573   0.00000  Uiso   1.00
N322   N     0.45865   0.89484   0.12781   0.00000  Uiso   1.00
N323   N     0.35844   0.78983   0.20462   0.00000  Uiso   1.00
N324   N     0.04055   0.60520   0.12941   0.00000  Uiso   1.00
N325   N     0.17253   0.89267   0.08235   0.00000  Uiso   1.00
N326   N     0.38677   0.54936   0.22372   0.00000  Uiso   1.00
N327   N     0.29922   0.63417   0.11030   0.00000  Uiso   1.00
N328   N     0.17769   0.88818   0.24922   0.00000  Uiso   1.00
N329   N     0.29098   0.85476   0.20469   0.00000  Uiso   1.00
N330   N     0.10528   0.53975   0.13061   0.00000  Uiso   1.00
N331   N     0.20960   0.64497   0.20371   0.00000  Uiso   1.00
N332   N    -0.00000   0.75000   0.04760   0.00000  Uiso   1.00
N333   N     0.39119   0.95966   0.12762   0.00000  Uiso   1.00
N334   N     0.25000   0.50000   0.28573   0.00000  Uiso   1.00
N335   N     0.25000   0.50000   0.04760   0.00000  Uiso   1.00
N336   N     0.36555   0.70145   0.11089   0.00000  Uiso   1.00
N337   N     0.11159   0.82257   0.24930   0.00000  Uiso   1.00
N338   N     0.10713   0.82696   0.08239   0.00000  Uiso   1.00
N339   N     0.45138   0.61521   0.22284   0.00000  Uiso   1.00
N340   N     0.14490   0.71047   0.20240   0.00000  Uiso   1.00
O341   O     0.04580   0.70419   0.20487   0.00000  Uiso   1.00
O342   O     0.20419   0.54581   0.12846   0.00000  Uiso   1.00
O343   O     0.20419   0.54581   0.20487   0.00000  Uiso   1.00
O344   O     0.29580   0.95419   0.12846   0.00000  Uiso   1.00
O345   O     0.20419   0.95419   0.12846   0.00000  Uiso   1.00
O346   O     0.29580   0.54581   0.20487   0.00000  Uiso   1.00
O347   O     0.29580   0.54581   0.12846   0.00000  Uiso   1.00
O348   O     0.20419   0.95419   0.20487   0.00000  Uiso   1.00
O349   O     0.45419   0.79581   0.12846   0.00000  Uiso   1.00
O350   O     0.45419   0.79581   0.20487   0.00000  Uiso   1.00
O351   O     0.04580   0.70419   0.12846   0.00000  Uiso   1.00
O352   O     0.45419   0.70419   0.12846   0.00000  Uiso   1.00
O353   O     0.04580   0.79581   0.20487   0.00000  Uiso   1.00
O354   O     0.04580   0.79581   0.12846   0.00000  Uiso   1.00
O355   O     0.45419   0.70419   0.20487   0.00000  Uiso   1.00
O356   O     0.29580   0.95419   0.20487   0.00000  Uiso   1.00
Zn357  Zn    0.00000   0.75000   0.21771   0.00000  Uiso   1.00
Zn358  Zn   -0.00000   0.75000   0.11563   0.00000  Uiso   1.00
Zn359  Zn    0.25000   0.50000   0.21771   0.00000  Uiso   1.00
Zn360  Zn    0.25000   0.50000   0.11563   0.00000  Uiso   1.00
C361   C     0.55991   0.69011   0.16666   0.00000  Uiso   1.00
C362   C     0.99677   0.71117   0.30933   0.00000  Uiso   1.00
C363   C     0.99674   0.71117   0.02396   0.00000  Uiso   1.00
C364   C     0.50334   0.78882   0.30937   0.00000  Uiso   1.00
C365   C     0.74858   0.53897   0.02400   0.00000  Uiso   1.00
C366   C     0.75153   0.96104   0.30935   0.00000  Uiso   1.00
C367   C     0.75154   0.96104   0.02397   0.00000  Uiso   1.00
C368   C     0.74861   0.53897   0.30936   0.00000  Uiso   1.00
C369   C     0.87025   0.66229   0.13833   0.00000  Uiso   1.00
C370   C     0.62354   0.84402   0.20760   0.00000  Uiso   1.00
C371   C     0.62132   0.84612   0.12461   0.00000  Uiso   1.00
C372   C     0.94039   0.81019   0.16661   0.00000  Uiso   1.00
C373   C     0.91264   0.61992   0.19496   0.00000  Uiso   1.00
C374   C     0.63461   0.66721   0.18496   0.00000  Uiso   1.00
C375   C     0.91624   0.88455   0.14679   0.00000  Uiso   1.00
C376   C     0.86637   0.83305   0.18593   0.00000  Uiso   1.00
C377   C     0.58323   0.61537   0.14799   0.00000  Uiso   1.00
C378   C     0.65362   0.87849   0.12459   0.00000  Uiso   1.00
C379   C     0.88042   0.58764   0.19535   0.00000  Uiso   1.00
C380   C     0.83790   0.62979   0.13836   0.00000  Uiso   1.00
C381   C     0.65600   0.87635   0.20756   0.00000  Uiso   1.00
C382   C     0.83353   0.86519   0.18611   0.00000  Uiso   1.00
C383   C     0.94014   0.68999   0.16664   0.00000  Uiso   1.00
C384   C     0.61551   0.58294   0.14824   0.00000  Uiso   1.00
C385   C     0.66689   0.63477   0.18523   0.00000  Uiso   1.00
C386   C     0.88341   0.91667   0.14693   0.00000  Uiso   1.00
C387   C     0.60283   0.83292   0.16633   0.00000  Uiso   1.00
C388   C     0.90717   0.65682   0.16658   0.00000  Uiso   1.00
C389   C     0.90721   0.84316   0.16644   0.00000  Uiso   1.00
C390   C     0.59303   0.65711   0.16656   0.00000  Uiso   1.00
C391   C     0.84327   0.59290   0.16696   0.00000  Uiso   1.00
C392   C     0.66703   0.89704   0.16628   0.00000  Uiso   1.00
C393   C     0.65706   0.59301   0.16672   0.00000  Uiso   1.00
C394   C     0.56286   0.80705   0.16664   0.00000  Uiso   1.00
C395   C     0.84266   0.90669   0.16674   0.00000  Uiso   1.00
C396   C     0.80957   0.93976   0.16670   0.00000  Uiso   1.00
C397   C     0.69014   0.55995   0.16667   0.00000  Uiso   1.00
C398   C     0.69298   0.93707   0.16660   0.00000  Uiso   1.00
C399   C     0.81012   0.55981   0.16675   0.00000  Uiso   1.00
C400   C     0.50334   0.78882   0.02401   0.00000  Uiso   1.00
H401   H     0.50602   0.81986   0.04220   0.00000  Uiso   1.00
H402   H     0.86293   0.69199   0.07692   0.00000  Uiso   1.00
H403   H     0.63934   0.80651   0.26283   0.00000  Uiso   1.00
H404   H     0.60013   0.84635   0.27231   0.00000  Uiso   1.00
H405   H     0.63406   0.81174   0.06647   0.00000  Uiso   1.00
H406   H     0.59428   0.85187   0.06144   0.00000  Uiso   1.00
H407   H     0.94139   0.61347   0.25669   0.00000  Uiso   1.00
H408   H     0.96716   0.58533   0.21454   0.00000  Uiso   1.00
H409   H     0.62459   0.71716   0.23019   0.00000  Uiso   1.00
H410   H     0.63855   0.73404   0.17718   0.00000  Uiso   1.00
H411   H     0.98302   0.88892   0.15229   0.00000  Uiso   1.00
H412   H     0.99424   0.68013   0.29113   0.00000  Uiso   1.00
H413   H     0.96442   0.87408   0.10007   0.00000  Uiso   1.00
H414   H     0.84978   0.79359   0.23870   0.00000  Uiso   1.00
H415   H     0.83167   0.77578   0.18751   0.00000  Uiso   1.00
H416   H     0.51645   0.61222   0.15371   0.00000  Uiso   1.00
H417   H     0.53492   0.62533   0.10115   0.00000  Uiso   1.00
H418   H     0.64765   0.90559   0.06149   0.00000  Uiso   1.00
H419   H     0.68760   0.86560   0.06635   0.00000  Uiso   1.00
H420   H     0.88281   0.52062   0.20435   0.00000  Uiso   1.00
H421   H     0.86336   0.54993   0.24968   0.00000  Uiso   1.00
H422   H     0.80907   0.63563   0.07641   0.00000  Uiso   1.00
H423   H     0.99413   0.68013   0.04213   0.00000  Uiso   1.00
H424   H     0.78279   0.66368   0.11853   0.00000  Uiso   1.00
H425   H     0.65423   0.89982   0.27236   0.00000  Uiso   1.00
H426   H     0.69359   0.86020   0.26258   0.00000  Uiso   1.00
H427   H     0.76682   0.86063   0.17998   0.00000  Uiso   1.00
H428   H     0.78489   0.87549   0.23238   0.00000  Uiso   1.00
H429   H     0.62551   0.53330   0.10269   0.00000  Uiso   1.00
H430   H     0.61183   0.51604   0.15565   0.00000  Uiso   1.00
H431   H     0.73365   0.63788   0.17938   0.00000  Uiso   1.00
H432   H     0.71526   0.62488   0.23199   0.00000  Uiso   1.00
H433   H     0.89919   0.95548   0.09343   0.00000  Uiso   1.00
H434   H     0.50601   0.81986   0.29120   0.00000  Uiso   1.00
H435   H     0.91838   0.97373   0.14400   0.00000  Uiso   1.00
H436   H     0.74745   0.57013   0.04221   0.00000  Uiso   1.00
H437   H     0.75283   0.92990   0.29119   0.00000  Uiso   1.00
H438   H     0.75286   0.92989   0.04214   0.00000  Uiso   1.00
H439   H     0.74756   0.57012   0.29120   0.00000  Uiso   1.00
H440   H     0.83670   0.71829   0.12032   0.00000  Uiso   1.00
N441   N     0.50000   0.75000   0.28573   0.00000  Uiso   1.00
N442   N     0.95865   0.89484   0.12781   0.00000  Uiso   1.00
N443   N     0.85844   0.78983   0.20462   0.00000  Uiso   1.00
N444   N     0.54055   0.60520   0.12941   0.00000  Uiso   1.00
N445   N     0.67253   0.89267   0.08235   0.00000  Uiso   1.00
N446   N     0.88677   0.54936   0.22372   0.00000  Uiso   1.00
N447   N     0.79922   0.63417   0.11030   0.00000  Uiso   1.00
N448   N     0.67769   0.88818   0.24922   0.00000  Uiso   1.00
N449   N     0.79098   0.85476   0.20469   0.00000  Uiso   1.00
N450   N     0.60528   0.53975   0.13061   0.00000  Uiso   1.00
N451   N     0.70960   0.64497   0.20371   0.00000  Uiso   1.00
N452   N     0.50000   0.75000   0.04760   0.00000  Uiso   1.00
N453   N     0.89119   0.95966   0.12762   0.00000  Uiso   1.00
N454   N     0.75000   0.50000   0.28573   0.00000  Uiso   1.00
N455   N     0.75000   0.50000   0.04760   0.00000  Uiso   1.00
N456   N     0.86555   0.70145   0.11089   0.00000  Uiso   1.00
N457   N     0.61159   0.82257   0.24930   0.00000  Uiso   1.00
N458   N     0.60713   0.82696   0.08239   0.00000  Uiso   1.00
N459   N     0.95138   0.61521   0.22284   0.00000  Uiso   1.00
N460   N     0.64490   0.71047   0.20240   0.00000  Uiso   1.00
O461   O     0.54580   0.70419   0.20487   0.00000  Uiso   1.00
O462   O     0.70419   0.54581   0.12846   0.00000  Uiso   1.00
O463   O     0.70419   0.54581   0.20487   0.00000  Uiso   1.00
O464   O     0.79580   0.95419   0.12846   0.00000  Uiso   1.00
O465   O     0.70419   0.95419   0.12846   0.00000  Uiso   1.00
O466   O     0.79580   0.54581   0.20487   0.00000  Uiso   1.00
O467   O     0.79580   0.54581   0.12846   0.00000  Uiso   1.00
O468   O     0.70419   0.95419   0.20487   0.00000  Uiso   1.00
O469   O     0.95419   0.79581   0.12846   0.00000  Uiso   1.00
O470   O     0.95419   0.79581   0.20487   0.00000  Uiso   1.00
O471   O     0.54580   0.70419   0.12846   0.00000  Uiso   1.00
O472   O     0.95419   0.70419   0.12846   0.00000  Uiso   1.00
O473   O     0.54580   0.79581   0.20487   0.00000  Uiso   1.00
O474   O     0.54580   0.79581   0.12846   0.00000  Uiso   1.00
O475   O     0.95419   0.70419   0.20487   0.00000  Uiso   1.00
O476   O     0.79580   0.95419   0.20487   0.00000  Uiso   1.00
Zn477  Zn    0.50000   0.75000   0.21771   0.00000  Uiso   1.00
Zn478  Zn    0.50000   0.75000   0.11563   0.00000  Uiso   1.00
Zn479  Zn    0.75000   0.50000   0.21771   0.00000  Uiso   1.00
Zn480  Zn    0.75000   0.50000   0.11563   0.00000  Uiso   1.00
C481   C     0.05991   0.19011   0.49999   0.00000  Uiso   1.00
C482   C     0.49677   0.21117   0.64266   0.00000  Uiso   1.00
C483   C     0.49674   0.21117   0.35730   0.00000  Uiso   1.00
C484   C     0.00334   0.28882   0.64270   0.00000  Uiso   1.00
C485   C     0.24858   0.03897   0.35734   0.00000  Uiso   1.00
C486   C     0.25153   0.46104   0.64268   0.00000  Uiso   1.00
C487   C     0.25154   0.46104   0.35731   0.00000  Uiso   1.00
C488   C     0.24861   0.03897   0.64270   0.00000  Uiso   1.00
C489   C     0.37025   0.16229   0.47166   0.00000  Uiso   1.00
C490   C     0.12354   0.34402   0.54093   0.00000  Uiso   1.00
C491   C     0.12132   0.34612   0.45794   0.00000  Uiso   1.00
C492   C     0.44039   0.31019   0.49994   0.00000  Uiso   1.00
C493   C     0.41264   0.11992   0.52829   0.00000  Uiso   1.00
C494   C     0.13461   0.16721   0.51829   0.00000  Uiso   1.00
C495   C     0.41624   0.38455   0.48013   0.00000  Uiso   1.00
C496   C     0.36637   0.33305   0.51926   0.00000  Uiso   1.00
C497   C     0.08323   0.11537   0.48132   0.00000  Uiso   1.00
C498   C     0.15362   0.37849   0.45792   0.00000  Uiso   1.00
C499   C     0.38042   0.08764   0.52869   0.00000  Uiso   1.00
C500   C     0.33790   0.12979   0.47169   0.00000  Uiso   1.00
C501   C     0.15600   0.37635   0.54090   0.00000  Uiso   1.00
C502   C     0.33353   0.36519   0.51944   0.00000  Uiso   1.00
C503   C     0.44014   0.18999   0.49997   0.00000  Uiso   1.00
C504   C     0.11551   0.08294   0.48157   0.00000  Uiso   1.00
C505   C     0.16689   0.13477   0.51857   0.00000  Uiso   1.00
C506   C     0.38341   0.41667   0.48026   0.00000  Uiso   1.00
C507   C     0.10283   0.33292   0.49966   0.00000  Uiso   1.00
C508   C     0.40717   0.15682   0.49991   0.00000  Uiso   1.00
C509   C     0.40721   0.34316   0.49977   0.00000  Uiso   1.00
C510   C     0.09303   0.15711   0.49989   0.00000  Uiso   1.00
C511   C     0.34327   0.09290   0.50029   0.00000  Uiso   1.00
C512   C     0.16703   0.39704   0.49961   0.00000  Uiso   1.00
C513   C     0.15706   0.09301   0.50006   0.00000  Uiso   1.00
C514   C     0.06286   0.30705   0.49997   0.00000  Uiso   1.00
C515   C     0.34266   0.40669   0.50007   0.00000  Uiso   1.00
C516   C     0.30957   0.43976   0.50004   0.00000  Uiso   1.00
C517   C     0.19014   0.05995   0.50000   0.00000  Uiso   1.00
C518   C     0.19298   0.43707   0.49993   0.00000  Uiso   1.00
C519   C     0.31012   0.05981   0.50008   0.00000  Uiso   1.00
C520   C     0.00334   0.28882   0.35734   0.00000  Uiso   1.00
H521   H     0.00602   0.31986   0.37553   0.00000  Uiso   1.00
H522   H     0.36293   0.19199   0.41025   0.00000  Uiso   1.00
H523   H     0.13934   0.30651   0.59616   0.00000  Uiso   1.00
H524   H     0.10013   0.34635   0.60564   0.00000  Uiso   1.00
H525   H     0.13406   0.31174   0.39980   0.00000  Uiso   1.00
H526   H     0.09428   0.35187   0.39478   0.00000  Uiso   1.00
H527   H     0.44139   0.11347   0.59002   0.00000  Uiso   1.00
H528   H     0.46716   0.08533   0.54787   0.00000  Uiso   1.00
H529   H     0.12459   0.21716   0.56352   0.00000  Uiso   1.00
H530   H     0.13855   0.23404   0.51051   0.00000  Uiso   1.00
H531   H     0.48302   0.38892   0.48562   0.00000  Uiso   1.00
H532   H     0.49424   0.18013   0.62446   0.00000  Uiso   1.00
H533   H     0.46442   0.37408   0.43340   0.00000  Uiso   1.00
H534   H     0.34978   0.29359   0.57203   0.00000  Uiso   1.00
H535   H     0.33167   0.27578   0.52084   0.00000  Uiso   1.00
H536   H     0.01645   0.11222   0.48705   0.00000  Uiso   1.00
H537   H     0.03492   0.12533   0.43448   0.00000  Uiso   1.00
H538   H     0.14765   0.40559   0.39482   0.00000  Uiso   1.00
H539   H     0.18760   0.36560   0.39969   0.00000  Uiso   1.00
H540   H     0.38281   0.02062   0.53768   0.00000  Uiso   1.00
H541   H     0.36336   0.04993   0.58302   0.00000  Uiso   1.00
H542   H     0.30907   0.13563   0.40974   0.00000  Uiso   1.00
H543   H     0.49413   0.18013   0.37546   0.00000  Uiso   1.00
H544   H     0.28279   0.16368   0.45186   0.00000  Uiso   1.00
H545   H     0.15423   0.39982   0.60569   0.00000  Uiso   1.00
H546   H     0.19359   0.36020   0.59592   0.00000  Uiso   1.00
H547   H     0.26682   0.36063   0.51332   0.00000  Uiso   1.00
H548   H     0.28489   0.37549   0.56571   0.00000  Uiso   1.00
H549   H     0.12551   0.03330   0.43602   0.00000  Uiso   1.00
H550   H     0.11183   0.01604   0.48898   0.00000  Uiso   1.00
H551   H     0.23365   0.13788   0.51271   0.00000  Uiso   1.00
H552   H     0.21526   0.12488   0.56532   0.00000  Uiso   1.00
H553   H     0.39919   0.45548   0.42676   0.00000  Uiso   1.00
H554   H     0.00601   0.31986   0.62454   0.00000  Uiso   1.00
H555   H     0.41838   0.47373   0.47733   0.00000  Uiso   1.00
H556   H     0.24745   0.07013   0.37554   0.00000  Uiso   1.00
H557   H     0.25283   0.42990   0.62452   0.00000  Uiso   1.00
H558   H     0.25286   0.42989   0.37547   0.00000  Uiso   1.00
H559   H     0.24756   0.07012   0.62453   0.00000  Uiso   1.00
H560   H     0.33670   0.21829   0.45366   0.00000  Uiso   1.00
N561   N    -0.00000   0.25000   0.61907   0.00000  Uiso   1.00
N562   N     0.45865   0.39484   0.46115   0.00000  Uiso   1.00
N563   N     0.35844   0.28983   0.53796   0.00000  Uiso   1.00
N564   N     0.04055   0.10520   0.46274   0.00000  Uiso   1.00
N565   N     0.17253   0.39267   0.41569   0.00000  Uiso   1.00
N566   N     0.38677   0.04936   0.55706   0.00000  Uiso   1.00
N567   N     0.29922   0.13417   0.44363   0.00000  Uiso   1.00
N568   N     0.17769   0.38818   0.58255   0.00000  Uiso   1.00
N569   N     0.29098   0.35476   0.53802   0.00000  Uiso   1.00
N570   N     0.10528   0.03975   0.46394   0.00000  Uiso   1.00
N571   N     0.20960   0.14497   0.53704   0.00000  Uiso   1.00
N572   N    -0.00000   0.25000   0.38093   0.00000  Uiso   1.00
N573   N     0.39119   0.45966   0.46095   0.00000  Uiso   1.00
N574   N     0.25000   0.00000   0.61907   0.00000  Uiso   1.00
N575   N     0.25000   0.00000   0.38093   0.00000  Uiso   1.00
N576   N     0.36555   0.20145   0.44422   0.00000  Uiso   1.00
N577   N     0.11159   0.32257   0.58264   0.00000  Uiso   1.00
N578   N     0.10713   0.32696   0.41572   0.00000  Uiso   1.00
N579   N     0.45138   0.11521   0.55617   0.00000  Uiso   1.00
N580   N     0.14490   0.21047   0.53573   0.00000  Uiso   1.00
O581   O     0.04580   0.20419   0.53821   0.00000  Uiso   1.00
O582   O     0.20419   0.04581   0.46179   0.00000  Uiso   1.00
O583   O     0.20419   0.04581   0.53821   0.00000  Uiso   1.00
O584   O     0.29580   0.45419   0.46179   0.00000  Uiso   1.00
O585   O     0.20419   0.45419   0.46179   0.00000  Uiso   1.00
O586   O     0.29580   0.04581   0.53821   0.00000  Uiso   1.00
O587   O     0.29580   0.04581   0.46179   0.00000  Uiso   1.00
O588   O     0.20419   0.45419   0.53821   0.00000  Uiso   1.00
O589   O     0.45419   0.29581   0.46179   0.00000  Uiso   1.00
O590   O     0.45419   0.29581   0.53821   0.00000  Uiso   1.00
O591   O     0.04580   0.20419   0.46179   0.00000  Uiso   1.00
O592   O     0.45419   0.20419   0.46179   0.00000  Uiso   1.00
O593   O     0.04580   0.29581   0.53821   0.00000  Uiso   1.00
O594   O     0.04580   0.29581   0.46179   0.00000  Uiso   1.00
O595   O     0.45419   0.20419   0.53821   0.00000  Uiso   1.00
O596   O     0.29580   0.45419   0.53821   0.00000  Uiso   1.00
Zn597  Zn    0.00000   0.25000   0.55104   0.00000  Uiso   1.00
Zn598  Zn   -0.00000   0.25000   0.44896   0.00000  Uiso   1.00
Zn599  Zn    0.25000   0.00000   0.55104   0.00000  Uiso   1.00
Zn600  Zn    0.25000   0.00000   0.44896   0.00000  Uiso   1.00
C601   C     0.55991   0.19011   0.49999   0.00000  Uiso   1.00
C602   C     0.99677   0.21117   0.64266   0.00000  Uiso   1.00
C603   C     0.99674   0.21117   0.35730   0.00000  Uiso   1.00
C604   C     0.50334   0.28882   0.64270   0.00000  Uiso   1.00
C605   C     0.74858   0.03897   0.35734   0.00000  Uiso   1.00
C606   C     0.75153   0.46104   0.64268   0.00000  Uiso   1.00
C607   C     0.75154   0.46104   0.35731   0.00000  Uiso   1.00
C608   C     0.74861   0.03897   0.64270   0.00000  Uiso   1.00
C609   C     0.87025   0.16229   0.47166   0.00000  Uiso   1.00
C610   C     0.62354   0.34402   0.54093   0.00000  Uiso   1.00
C611   C     0.62132   0.34612   0.45794   0.00000  Uiso   1.00
C612   C     0.94039   0.31019   0.49994   0.00000  Uiso   1.00
C613   C     0.91264   0.11992   0.52829   0.00000  Uiso   1.00
C614   C     0.63461   0.16721   0.51829   0.00000  Uiso   1.00
C615   C     0.91624   0.38455   0.48013   0.00000  Uiso   1.00
C616   C     0.86637   0.33305   0.51926   0.00000  Uiso   1.00
C617   C     0.58323   0.11537   0.48132   0.00000  Uiso   1.00
C618   C     0.65362   0.37849   0.45792   0.00000  Uiso   1.00
C619   C     0.88042   0.08764   0.52869   0.00000  Uiso   1.00
C620   C     0.83790   0.12979   0.47169   0.00000  Uiso   1.00
C621   C     0.65600   0.37635   0.54090   0.00000  Uiso   1.00
C622   C     0.83353   0.36519   0.51944   0.00000  Uiso   1.00
C623   C     0.94014   0.18999   0.49997   0.00000  Uiso   1.00
C624   C     0.61551   0.08294   0.48157   0.00000  Uiso   1.00
C625   C     0.66689   0.13477   0.51857   0.00000  Uiso   1.00
C626   C     0.88341   0.41667   0.48026   0.00000  Uiso   1.00
C627   C     0.60283   0.33292   0.49966   0.00000  Uiso   1.00
C628   C     0.90717   0.15682   0.49991   0.00000  Uiso   1.00
C629   C     0.90721   0.34316   0.49977   0.00000  Uiso   1.00
C630   C     0.59303   0.15711   0.49989   0.00000  Uiso   1.00
C631   C     0.84327   0.09290   0.50029   0.00000  Uiso   1.00
C632   C     0.66703   0.39704   0.49961   0.00000  Uiso   1.00
C633   C     0.65706   0.09301   0.50006   0.00000  Uiso   1.00
C634   C     0.56286   0.30705   0.49997   0.00000  Uiso   1.00
C635   C     0.84266   0.40669   0.50007   0.00000  Uiso   1.00
C636   C     0.80957   0.43976   0.50004   0.00000  Uiso   1.00
C637   C     0.69014   0.05995   0.50000   0.00000  Uiso   1.00
C638   C     0.69298   0.43707   0.49993   0.00000  Uiso   1.00
C639   C     0.81012   0.05981   0.50008   0.00000  Uiso   1.00
C640   C     0.50334   0.28882   0.35734   0.00000  Uiso   1.00
H641   H     0.50602   0.31986   0.37553   0.00000  Uiso   1.00
H642   H     0.86293   0.19199   0.41025   0.00000  Uiso   1.00
H643   H     0.63934   0.30651   0.59616   0.00000  Uiso   1.00
H644   H     0.60013   0.34635   0.60564   0.00000  Uiso   1.00
H645   H     0.63406   0.31174   0.39980   0.00000  Uiso   1.00
H646   H     0.59428   0.35187   0.39478   0.00000  Uiso   1.00
H647   H     0.94139   0.11347   0.59002   0.00000  Uiso   1.00
H648   H     0.96716   0.08533   0.54787   0.00000  Uiso   1.00
H649   H     0.62459   0.21716   0.56352   0.00000  Uiso   1.00
H650   H     0.63855   0.23404   0.51051   0.00000  Uiso   1.00
H651   H     0.98302   0.38892   0.48562   0.00000  Uiso   1.00
H652   H     0.99424   0.18013   0.62446   0.00000  Uiso   1.00
H653   H     0.96442   0.37408   0.43340   0.00000  Uiso   1.00
H654   H     0.84978   0.29359   0.57203   0.00000  Uiso   1.00
H655   H     0.83167   0.27578   0.52084   0.00000  Uiso   1.00
H656   H     0.51645   0.11222   0.48705   0.00000  Uiso   1.00
H657   H     0.53492   0.12533   0.43448   0.00000  Uiso   1.00
H658   H     0.64765   0.40559   0.39482   0.00000  Uiso   1.00
H659   H     0.68760   0.36560   0.39969   0.00000  Uiso   1.00
H660   H     0.88281   0.02062   0.53768   0.00000  Uiso   1.00
H661   H     0.86336   0.04993   0.58302   0.00000  Uiso   1.00
H662   H     0.80907   0.13563   0.40974   0.00000  Uiso   1.00
H663   H     0.99413   0.18013   0.37546   0.00000  Uiso   1.00
H664   H     0.78279   0.16368   0.45186   0.00000  Uiso   1.00
H665   H     0.65423   0.39982   0.60569   0.00000  Uiso   1.00
H666   H     0.69359   0.36020   0.59592   0.00000  Uiso   1.00
H667   H     0.76682   0.36063   0.51332   0.00000  Uiso   1.00
H668   H     0.78489   0.37549   0.56571   0.00000  Uiso   1.00
H669   H     0.62551   0.03330   0.43602   0.00000  Uiso   1.00
H670   H     0.61183   0.01604   0.48898   0.00000  Uiso   1.00
H671   H     0.73365   0.13788   0.51271   0.00000  Uiso   1.00
H672   H     0.71526   0.12488   0.56532   0.00000  Uiso   1.00
H673   H     0.89919   0.45548   0.42676   0.00000  Uiso   1.00
H674   H     0.50601   0.31986   0.62454   0.00000  Uiso   1.00
H675   H     0.91838   0.47373   0.47733   0.00000  Uiso   1.00
H676   H     0.74745   0.07013   0.37554   0.00000  Uiso   1.00
H677   H     0.75283   0.42990   0.62452   0.00000  Uiso   1.00
H678   H     0.75286   0.42989   0.37547   0.00000  Uiso   1.00
H679   H     0.74756   0.07012   0.62453   0.00000  Uiso   1.00
H680   H     0.83670   0.21829   0.45366   0.00000  Uiso   1.00
N681   N     0.50000   0.25000   0.61907   0.00000  Uiso   1.00
N682   N     0.95865   0.39484   0.46115   0.00000  Uiso   1.00
N683   N     0.85844   0.28983   0.53796   0.00000  Uiso   1.00
N684   N     0.54055   0.10520   0.46274   0.00000  Uiso   1.00
N685   N     0.67253   0.39267   0.41569   0.00000  Uiso   1.00
N686   N     0.88677   0.04936   0.55706   0.00000  Uiso   1.00
N687   N     0.79922   0.13417   0.44363   0.00000  Uiso   1.00
N688   N     0.67769   0.38818   0.58255   0.00000  Uiso   1.00
N689   N     0.79098   0.35476   0.53802   0.00000  Uiso   1.00
N690   N     0.60528   0.03975   0.46394   0.00000  Uiso   1.00
N691   N     0.70960   0.14497   0.53704   0.00000  Uiso   1.00
N692   N     0.50000   0.25000   0.38093   0.00000  Uiso   1.00
N693   N     0.89119   0.45966   0.46095   0.00000  Uiso   1.00
N694   N     0.75000   0.00000   0.61907   0.00000  Uiso   1.00
N695   N     0.75000   0.00000   0.38093   0.00000  Uiso   1.00
N696   N     0.86555   0.20145   0.44422   0.00000  Uiso   1.00
N697   N     0.61159   0.32257   0.58264   0.00000  Uiso   1.00
N698   N     0.60713   0.32696   0.41572   0.00000  Uiso   1.00
N699   N     0.95138   0.11521   0.55617   0.00000  Uiso   1.00
N700   N     0.64490   0.21047   0.53573   0.00000  Uiso   1.00
O701   O     0.54580   0.20419   0.53821   0.00000  Uiso   1.00
O702   O     0.70419   0.04581   0.46179   0.00000  Uiso   1.00
O703   O     0.70419   0.04581   0.53821   0.00000  Uiso   1.00
O704   O     0.79580   0.45419   0.46179   0.00000  Uiso   1.00
O705   O     0.70419   0.45419   0.46179   0.00000  Uiso   1.00
O706   O     0.79580   0.04581   0.53821   0.00000  Uiso   1.00
O707   O     0.79580   0.04581   0.46179   0.00000  Uiso   1.00
O708   O     0.70419   0.45419   0.53821   0.00000  Uiso   1.00
O709   O     0.95419   0.29581   0.46179   0.00000  Uiso   1.00
O710   O     0.95419   0.29581   0.53821   0.00000  Uiso   1.00
O711   O     0.54580   0.20419   0.46179   0.00000  Uiso   1.00
O712   O     0.95419   0.20419   0.46179   0.00000  Uiso   1.00
O713   O     0.54580   0.29581   0.53821   0.00000  Uiso   1.00
O714   O     0.54580   0.29581   0.46179   0.00000  Uiso   1.00
O715   O     0.95419   0.20419   0.53821   0.00000  Uiso   1.00
O716   O     0.79580   0.45419   0.53821   0.00000  Uiso   1.00
Zn717  Zn    0.50000   0.25000   0.55104   0.00000  Uiso   1.00
Zn718  Zn    0.50000   0.25000   0.44896   0.00000  Uiso   1.00
Zn719  Zn    0.75000   0.00000   0.55104   0.00000  Uiso   1.00
Zn720  Zn    0.75000   0.00000   0.44896   0.00000  Uiso   1.00
C721   C     0.05991   0.69011   0.49999   0.00000  Uiso   1.00
C722   C     0.49677   0.71117   0.64266   0.00000  Uiso   1.00
C723   C     0.49674   0.71117   0.35730   0.00000  Uiso   1.00
C724   C     0.00334   0.78882   0.64270   0.00000  Uiso   1.00
C725   C     0.24858   0.53897   0.35734   0.00000  Uiso   1.00
C726   C     0.25153   0.96104   0.64268   0.00000  Uiso   1.00
C727   C     0.25154   0.96104   0.35731   0.00000  Uiso   1.00
C728   C     0.24861   0.53897   0.64270   0.00000  Uiso   1.00
C729   C     0.37025   0.66229   0.47166   0.00000  Uiso   1.00
C730   C     0.12354   0.84402   0.54093   0.00000  Uiso   1.00
C731   C     0.12132   0.84612   0.45794   0.00000  Uiso   1.00
C732   C     0.44039   0.81019   0.49994   0.00000  Uiso   1.00
C733   C     0.41264   0.61992   0.52829   0.00000  Uiso   1.00
C734   C     0.13461   0.66721   0.51829   0.00000  Uiso   1.00
C735   C     0.41624   0.88455   0.48013   0.00000  Uiso   1.00
C736   C     0.36637   0.83305   0.51926   0.00000  Uiso   1.00
C737   C     0.08323   0.61537   0.48132   0.00000  Uiso   1.00
C738   C     0.15362   0.87849   0.45792   0.00000  Uiso   1.00
C739   C     0.38042   0.58764   0.52869   0.00000  Uiso   1.00
C740   C     0.33790   0.62979   0.47169   0.00000  Uiso   1.00
C741   C     0.15600   0.87635   0.54090   0.00000  Uiso   1.00
C742   C     0.33353   0.86519   0.51944   0.00000  Uiso   1.00
C743   C     0.44014   0.68999   0.49997   0.00000  Uiso   1.00
C744   C     0.11551   0.58294   0.48157   0.00000  Uiso   1.00
C745   C     0.16689   0.63477   0.51857   0.00000  Uiso   1.00
C746   C     0.38341   0.91667   0.48026   0.00000  Uiso   1.00
C747   C     0.10283   0.83292   0.49966   0.00000  Uiso   1.00
C748   C     0.40717   0.65682   0.49991   0.00000  Uiso   1.00
C749   C     0.40721   0.84316   0.49977   0.00000  Uiso   1.00
C750   C     0.09303   0.65711   0.49989   0.00000  Uiso   1.00
C751   C     0.34327   0.59290   0.50029   0.00000  Uiso   1.00
C752   C     0.16703   0.89704   0.49961   0.00000  Uiso   1.00
C753   C     0.15706   0.59301   0.50006   0.00000  Uiso   1.00
C754   C     0.06286   0.80705   0.49997   0.00000  Uiso   1.00
C755   C     0.34266   0.90669   0.50007   0.00000  Uiso   1.00
C756   C     0.30957   0.93976   0.50004   0.00000  Uiso   1.00
C757   C     0.19014   0.55995   0.50000   0.00000  Uiso   1.00
C758   C     0.19298   0.93707   0.49993   0.00000  Uiso   1.00
C759   C     0.31012   0.55981   0.50008   0.00000  Uiso   1.00
C760   C     0.00334   0.78882   0.35734   0.00000  Uiso   1.00
H761   H     0.00602   0.81986   0.37553   0.00000  Uiso   1.00
H762   H     0.36293   0.69199   0.41025   0.00000  Uiso   1.00
H763   H     0.13934   0.80651   0.59616   0.00000  Uiso   1.00
H764   H     0.10013   0.84635   0.60564   0.00000  Uiso   1.00
H765   H     0.13406   0.81174   0.39980   0.00000  Uiso   1.00
H766   H     0.09428   0.85187   0.39478   0.00000  Uiso   1.00
H767   H     0.44139   0.61347   0.59002   0.00000  Uiso   1.00
H768   H     0.46716   0.58533   0.54787   0.00000  Uiso   1.00
H769   H     0.12459   0.71716   0.56352   0.00000  Uiso   1.00
H770   H     0.13855   0.73404   0.51051   0.00000  Uiso   1.00
H771   H     0.48302   0.88892   0.48562   0.00000  Uiso   1.00
H772   H     0.49424   0.68013   0.62446   0.00000  Uiso   1.00
H773   H     0.46442   0.87408   0.43340   0.00000  Uiso   1.00
H774   H     0.34978   0.79359   0.57203   0.00000  Uiso   1.00
H775   H     0.33167   0.77578   0.52084   0.00000  Uiso   1.00
H776   H     0.01645   0.61222   0.48705   0.00000  Uiso   1.00
H777   H     0.03492   0.62533   0.43448   0.00000  Uiso   1.00
H778   H     0.14765   0.90559   0.39482   0.00000  Uiso   1.00
H779   H     0.18760   0.86560   0.39969   0.00000  Uiso   1.00
H780   H     0.38281   0.52062   0.53768   0.00000  Uiso   1.00
H781   H     0.36336   0.54993   0.58302   0.00000  Uiso   1.00
H782   H     0.30907   0.63563   0.40974   0.00000  Uiso   1.00
H783   H     0.49413   0.68013   0.37546   0.00000  Uiso   1.00
H784   H     0.28279   0.66368   0.45186   0.00000  Uiso   1.00
H785   H     0.15423   0.89982   0.60569   0.00000  Uiso   1.00
H786   H     0.19359   0.86020   0.59592   0.00000  Uiso   1.00
H787   H     0.26682   0.86063   0.51332   0.00000  Uiso   1.00
H788   H     0.28489   0.87549   0.56571   0.00000  Uiso   1.00
H789   H     0.12551   0.53330   0.43602   0.00000  Uiso   1.00
H790   H     0.11183   0.51604   0.48898   0.00000  Uiso   1.00
H791   H     0.23365   0.63788   0.51271   0.00000  Uiso   1.00
H792   H     0.21526   0.62488   0.56532   0.00000  Uiso   1.00
H793   H     0.39919   0.95548   0.42676   0.00000  Uiso   1.00
H794   H     0.00601   0.81986   0.62454   0.00000  Uiso   1.00
H795   H     0.41838   0.97373   0.47733   0.00000  Uiso   1.00
H796   H     0.24745   0.57013   0.37554   0.00000  Uiso   1.00
H797   H     0.25283   0.92990   0.62452   0.00000  Uiso   1.00
H798   H     0.25286   0.92989   0.37547   0.00000  Uiso   1.00
H799   H     0.24756   0.57012   0.62453   0.00000  Uiso   1.00
H800   H     0.33670   0.71829   0.45366   0.00000  Uiso   1.00
N801   N    -0.00000   0.75000   0.61907   0.00000  Uiso   1.00
N802   N     0.45865   0.89484   0.46115   0.00000  Uiso   1.00
N803   N     0.35844   0.78983   0.53796   0.00000  Uiso   1.00
N804   N     0.04055   0.60520   0.46274   0.00000  Uiso   1.00
N805   N     0.17253   0.89267   0.41569   0.00000  Uiso   1.00
N806   N     0.38677   0.54936   0.55706   0.00000  Uiso   1.00
N807   N     0.29922   0.63417   0.44363   0.00000  Uiso   1.00
N808   N     0.17769   0.88818   0.58255   0.00000  Uiso   1.00
N809   N     0.29098   0.85476   0.53802   0.00000  Uiso   1.00
N810   N     0.10528   0.53975   0.46394   0.00000  Uiso   1.00
N811   N     0.20960   0.64497   0.53704   0.00000  Uiso   1.00
N812   N    -0.00000   0.75000   0.38093   0.00000  Uiso   1.00
N813   N     0.39119   0.95966   0.46095   0.00000  Uiso   1.00
N814   N     0.25000   0.50000   0.61907   0.00000  Uiso   1.00
N815   N     0.25000   0.50000   0.38093   0.00000  Uiso   1.00
N816   N     0.36555   0.70145   0.44422   0.00000  Uiso   1.00
N817   N     0.11159   0.82257   0.58264   0.00000  Uiso   1.00
N818   N     0.10713   0.82696   0.41572   0.00000  Uiso   1.00
N819   N     0.45138   0.61521   0.55617   0.00000  Uiso   1.00
N820   N     0.14490   0.71047   0.53573   0.00000  Uiso   1.00
O821   O     0.04580   0.70419   0.53821   0.00000  Uiso   1.00
O822   O     0.20419   0.54581   0.46179   0.00000  Uiso   1.00
O823   O     0.20419   0.54581   0.53821   0.00000  Uiso   1.00
O824   O     0.29580   0.95419   0.46179   0.00000  Uiso   1.00
O825   O     0.20419   0.95419   0.46179   0.00000  Uiso   1.00
O826   O     0.29580   0.54581   0.53821   0.00000  Uiso   1.00
O827   O     0.29580   0.54581   0.46179   0.00000  Uiso   1.00
O828   O     0.20419   0.95419   0.53821   0.00000  Uiso   1.00
O829   O     0.45419   0.79581   0.46179   0.00000  Uiso   1.00
O830   O     0.45419   0.79581   0.53821   0.00000  Uiso   1.00
O831   O     0.04580   0.70419   0.46179   0.00000  Uiso   1.00
O832   O     0.45419   0.70419   0.46179   0.00000  Uiso   1.00
O833   O     0.04580   0.79581   0.53821   0.00000  Uiso   1.00
O834   O     0.04580   0.79581   0.46179   0.00000  Uiso   1.00
O835   O     0.45419   0.70419   0.53821   0.00000  Uiso   1.00
O836   O     0.29580   0.95419   0.53821   0.00000  Uiso   1.00
Zn837  Zn    0.00000   0.75000   0.55104   0.00000  Uiso   1.00
Zn838  Zn   -0.00000   0.75000   0.44896   0.00000  Uiso   1.00
Zn839  Zn    0.25000   0.50000   0.55104   0.00000  Uiso   1.00
Zn840  Zn    0.25000   0.50000   0.44896   0.00000  Uiso   1.00
C841   C     0.55991   0.69011   0.49999   0.00000  Uiso   1.00
C842   C     0.99677   0.71117   0.64266   0.00000  Uiso   1.00
C843   C     0.99674   0.71117   0.35730   0.00000  Uiso   1.00
C844   C     0.50334   0.78882   0.64270   0.00000  Uiso   1.00
C845   C     0.74858   0.53897   0.35734   0.00000  Uiso   1.00
C846   C     0.75153   0.96104   0.64268   0.00000  Uiso   1.00
C847   C     0.75154   0.96104   0.35731   0.00000  Uiso   1.00
C848   C     0.74861   0.53897   0.64270   0.00000  Uiso   1.00
C849   C     0.87025   0.66229   0.47166   0.00000  Uiso   1.00
C850   C     0.62354   0.84402   0.54093   0.00000  Uiso   1.00
C851   C     0.62132   0.84612   0.45794   0.00000  Uiso   1.00
C852   C     0.94039   0.81019   0.49994   0.00000  Uiso   1.00
C853   C     0.91264   0.61992   0.52829   0.00000  Uiso   1.00
C854   C     0.63461   0.66721   0.51829   0.00000  Uiso   1.00
C855   C     0.91624   0.88455   0.48013   0.00000  Uiso   1.00
C856   C     0.86637   0.83305   0.51926   0.00000  Uiso   1.00
C857   C     0.58323   0.61537   0.48132   0.00000  Uiso   1.00
C858   C     0.65362   0.87849   0.45792   0.00000  Uiso   1.00
C859   C     0.88042   0.58764   0.52869   0.00000  Uiso   1.00
C860   C     0.83790   0.62979   0.47169   0.00000  Uiso   1.00
C861   C     0.65600   0.87635   0.54090   0.00000  Uiso   1.00
C862   C     0.83353   0.86519   0.51944   0.00000  Uiso   1.00
C863   C     0.94014   0.68999   0.49997   0.00000  Uiso   1.00
C864   C     0.61551   0.58294   0.48157   0.00000  Uiso   1.00
C865   C     0.66689   0.63477   0.51857   0.00000  Uiso   1.00
C866   C     0.88341   0.91667   0.48026   0.00000  Uiso   1.00
C867   C     0.60283   0.83292   0.49966   0.00000  Uiso   1.00
C868   C     0.90717   0.65682   0.49991   0.00000  Uiso   1.00
C869   C     0.90721   0.84316   0.49977   0.00000  Uiso   1.00
C870   C     0.59303   0.65711   0.49989   0.00000  Uiso   1.00
C871   C     0.84327   0.59290   0.50029   0.00000  Uiso   1.00
C872   C     0.66703   0.89704   0.49961   0.00000  Uiso   1.00
C873   C     0.65706   0.59301   0.50006   0.00000  Uiso   1.00
C874   C     0.56286   0.80705   0.49997   0.00000  Uiso   1.00
C875   C     0.84266   0.90669   0.50007   0.00000  Uiso   1.00
C876   C     0.80957   0.93976   0.50004   0.00000  Uiso   1.00
C877   C     0.69014   0.55995   0.50000   0.00000  Uiso   1.00
C878   C     0.69298   0.93707   0.49993   0.00000  Uiso   1.00
C879   C     0.81012   0.55981   0.50008   0.00000  Uiso   1.00
C880   C     0.50334   0.78882   0.35734   0.00000  Uiso   1.00
H881   H     0.50602   0.81986   0.37553   0.00000  Uiso   1.00
H882   H     0.86293   0.69199   0.41025   0.00000  Uiso   1.00
H883   H     0.63934   0.80651   0.59616   0.00000  Uiso   1.00
H884   H     0.60013   0.84635   0.60564   0.00000  Uiso   1.00
H885   H     0.63406   0.81174   0.39980   0.00000  Uiso   1.00
H886   H     0.59428   0.85187   0.39478   0.00000  Uiso   1.00
H887   H     0.94139   0.61347   0.59002   0.00000  Uiso   1.00
H888   H     0.96716   0.58533   0.54787   0.00000  Uiso   1.00
H889   H     0.62459   0.71716   0.56352   0.00000  Uiso   1.00
H890   H     0.63855   0.73404   0.51051   0.00000  Uiso   1.00
H891   H     0.98302   0.88892   0.48562   0.00000  Uiso   1.00
H892   H     0.99424   0.68013   0.62446   0.00000  Uiso   1.00
H893   H     0.96442   0.87408   0.43340   0.00000  Uiso   1.00
H894   H     0.84978   0.79359   0.57203   0.00000  Uiso   1.00
H895   H     0.83167   0.77578   0.52084   0.00000  Uiso   1.00
H896   H     0.51645   0.61222   0.48705   0.00000  Uiso   1.00
H897   H     0.53492   0.62533   0.43448   0.00000  Uiso   1.00
H898   H     0.64765   0.90559   0.39482   0.00000  Uiso   1.00
H899   H     0.68760   0.86560   0.39969   0.00000  Uiso   1.00
H900   H     0.88281   0.52062   0.53768   0.00000  Uiso   1.00
H901   H     0.86336   0.54993   0.58302   0.00000  Uiso   1.00
H902   H     0.80907   0.63563   0.40974   0.00000  Uiso   1.00
H903   H     0.99413   0.68013   0.37546   0.00000  Uiso   1.00
H904   H     0.78279   0.66368   0.45186   0.00000  Uiso   1.00
H905   H     0.65423   0.89982   0.60569   0.00000  Uiso   1.00
H906   H     0.69359   0.86020   0.59592   0.00000  Uiso   1.00
H907   H     0.76682   0.86063   0.51332   0.00000  Uiso   1.00
H908   H     0.78489   0.87549   0.56571   0.00000  Uiso   1.00
H909   H     0.62551   0.53330   0.43602   0.00000  Uiso   1.00
H910   H     0.61183   0.51604   0.48898   0.00000  Uiso   1.00
H911   H     0.73365   0.63788   0.51271   0.00000  Uiso   1.00
H912   H     0.71526   0.62488   0.56532   0.00000  Uiso   1.00
H913   H     0.89919   0.95548   0.42676   0.00000  Uiso   1.00
H914   H     0.50601   0.81986   0.62454   0.00000  Uiso   1.00
H915   H     0.91838   0.97373   0.47733   0.00000  Uiso   1.00
H916   H     0.74745   0.57013   0.37554   0.00000  Uiso   1.00
H917   H     0.75283   0.92990   0.62452   0.00000  Uiso   1.00
H918   H     0.75286   0.92989   0.37547   0.00000  Uiso   1.00
H919   H     0.74756   0.57012   0.62453   0.00000  Uiso   1.00
H920   H     0.83670   0.71829   0.45366   0.00000  Uiso   1.00
N921   N     0.50000   0.75000   0.61907   0.00000  Uiso   1.00
N922   N     0.95865   0.89484   0.46115   0.00000  Uiso   1.00
N923   N     0.85844   0.78983   0.53796   0.00000  Uiso   1.00
N924   N     0.54055   0.60520   0.46274   0.00000  Uiso   1.00
N925   N     0.67253   0.89267   0.41569   0.00000  Uiso   1.00
N926   N     0.88677   0.54936   0.55706   0.00000  Uiso   1.00
N927   N     0.79922   0.63417   0.44363   0.00000  Uiso   1.00
N928   N     0.67769   0.88818   0.58255   0.00000  Uiso   1.00
N929   N     0.79098   0.85476   0.53802   0.00000  Uiso   1.00
N930   N     0.60528   0.53975   0.46394   0.00000  Uiso   1.00
N931   N     0.70960   0.64497   0.53704   0.00000  Uiso   1.00
N932   N     0.50000   0.75000   0.38093   0.00000  Uiso   1.00
N933   N     0.89119   0.95966   0.46095   0.00000  Uiso   1.00
N934   N     0.75000   0.50000   0.61907   0.00000  Uiso   1.00
N935   N     0.75000   0.50000   0.38093   0.00000  Uiso   1.00
N936   N     0.86555   0.70145   0.44422   0.00000  Uiso   1.00
N937   N     0.61159   0.82257   0.58264   0.00000  Uiso   1.00
N938   N     0.60713   0.82696   0.41572   0.00000  Uiso   1.00
N939   N     0.95138   0.61521   0.55617   0.00000  Uiso   1.00
N940   N     0.64490   0.71047   0.53573   0.00000  Uiso   1.00
O941   O     0.54580   0.70419   0.53821   0.00000  Uiso   1.00
O942   O     0.70419   0.54581   0.46179   0.00000  Uiso   1.00
O943   O     0.70419   0.54581   0.53821   0.00000  Uiso   1.00
O944   O     0.79580   0.95419   0.46179   0.00000  Uiso   1.00
O945   O     0.70419   0.95419   0.46179   0.00000  Uiso   1.00
O946   O     0.79580   0.54581   0.53821   0.00000  Uiso   1.00
O947   O     0.79580   0.54581   0.46179   0.00000  Uiso   1.00
O948   O     0.70419   0.95419   0.53821   0.00000  Uiso   1.00
O949   O     0.95419   0.79581   0.46179   0.00000  Uiso   1.00
O950   O     0.95419   0.79581   0.53821   0.00000  Uiso   1.00
O951   O     0.54580   0.70419   0.46179   0.00000  Uiso   1.00
O952   O     0.95419   0.70419   0.46179   0.00000  Uiso   1.00
O953   O     0.54580   0.79581   0.53821   0.00000  Uiso   1.00
O954   O     0.54580   0.79581   0.46179   0.00000  Uiso   1.00
O955   O     0.95419   0.70419   0.53821   0.00000  Uiso   1.00
O956   O     0.79580   0.95419   0.53821   0.00000  Uiso   1.00
Zn957  Zn    0.50000   0.75000   0.55104   0.00000  Uiso   1.00
Zn958  Zn    0.50000   0.75000   0.44896   0.00000  Uiso   1.00
Zn959  Zn    0.75000   0.50000   0.55104   0.00000  Uiso   1.00
Zn960  Zn    0.75000   0.50000   0.44896   0.00000  Uiso   1.00
C961   C     0.05991   0.19011   0.83333   0.00000  Uiso   1.00
C962   C     0.49677   0.21117   0.97599   0.00000  Uiso   1.00
C963   C     0.49674   0.21117   0.69063   0.00000  Uiso   1.00
C964   C     0.00334   0.28882   0.97604   0.00000  Uiso   1.00
C965   C     0.24858   0.03897   0.69067   0.00000  Uiso   1.00
C966   C     0.25153   0.46104   0.97601   0.00000  Uiso   1.00
C967   C     0.25154   0.46104   0.69064   0.00000  Uiso   1.00
C968   C     0.24861   0.03897   0.97603   0.00000  Uiso   1.00
C969   C     0.37025   0.16229   0.80500   0.00000  Uiso   1.00
C970   C     0.12354   0.34402   0.87426   0.00000  Uiso   1.00
C971   C     0.12132   0.34612   0.79128   0.00000  Uiso   1.00
C972   C     0.44039   0.31019   0.83328   0.00000  Uiso   1.00
C973   C     0.41264   0.11992   0.86163   0.00000  Uiso   1.00
C974   C     0.13461   0.16721   0.85163   0.00000  Uiso   1.00
C975   C     0.41624   0.38455   0.81346   0.00000  Uiso   1.00
C976   C     0.36637   0.33305   0.85259   0.00000  Uiso   1.00
C977   C     0.08323   0.11537   0.81465   0.00000  Uiso   1.00
C978   C     0.15362   0.37849   0.79126   0.00000  Uiso   1.00
C979   C     0.38042   0.08764   0.86202   0.00000  Uiso   1.00
C980   C     0.33790   0.12979   0.80503   0.00000  Uiso   1.00
C981   C     0.15600   0.37635   0.87423   0.00000  Uiso   1.00
C982   C     0.33353   0.36519   0.85278   0.00000  Uiso   1.00
C983   C     0.44014   0.18999   0.83330   0.00000  Uiso   1.00
C984   C     0.11551   0.08294   0.81490   0.00000  Uiso   1.00
C985   C     0.16689   0.13477   0.85190   0.00000  Uiso   1.00
C986   C     0.38341   0.41667   0.81360   0.00000  Uiso   1.00
C987   C     0.10283   0.33292   0.83299   0.00000  Uiso   1.00
C988   C     0.40717   0.15682   0.83325   0.00000  Uiso   1.00
C989   C     0.40721   0.34316   0.83310   0.00000  Uiso   1.00
C990   C     0.09303   0.15711   0.83323   0.00000  Uiso   1.00
C991   C     0.34327   0.09290   0.83362   0.00000  Uiso   1.00
C992   C     0.16703   0.39704   0.83295   0.00000  Uiso   1.00
C993   C     0.15706   0.09301   0.83339   0.00000  Uiso   1.00
C994   C     0.06286   0.30705   0.83330   0.00000  Uiso   1.00
C995   C     0.34266   0.40669   0.83340   0.00000  Uiso   1.00
C996   C     0.30957   0.43976   0.83337   0.00000  Uiso   1.00
C997   C     0.19014   0.05995   0.83334   0.00000  Uiso   1.00
C998   C     0.19298   0.43707   0.83326   0.00000  Uiso   1.00
C999   C     0.31012   0.05981   0.83342   0.00000  Uiso   1.00
C1000  C     0.00334   0.28882   0.69067   0.00000  Uiso   1.00
H1001  H     0.00602   0.31986   0.70887   0.00000  Uiso   1.00
H1002  H     0.36293   0.19199   0.74359   0.00000  Uiso   1.00
H1003  H     0.13934   0.30651   0.92950   0.00000  Uiso   1.00
H1004  H     0.10013   0.34635   0.93898   0.00000  Uiso   1.00
H1005  H     0.13406   0.31174   0.73313   0.00000  Uiso   1.00
H1006  H     0.09428   0.35187   0.72811   0.00000  Uiso   1.00
H1007  H     0.44139   0.11347   0.92335   0.00000  Uiso   1.00
H1008  H     0.46716   0.08533   0.88121   0.00000  Uiso   1.00
H1009  H     0.12459   0.21716   0.89686   0.00000  Uiso   1.00
H1010  H     0.13855   0.23404   0.84385   0.00000  Uiso   1.00
H1011  H     0.48302   0.38892   0.81895   0.00000  Uiso   1.00
H1012  H     0.49424   0.18013   0.95780   0.00000  Uiso   1.00
H1013  H     0.46442   0.37408   0.76673   0.00000  Uiso   1.00
H1014  H     0.34978   0.29359   0.90536   0.00000  Uiso   1.00
H1015  H     0.33167   0.27578   0.85418   0.00000  Uiso   1.00
H1016  H     0.01645   0.11222   0.82038   0.00000  Uiso   1.00
H1017  H     0.03492   0.12533   0.76781   0.00000  Uiso   1.00
H1018  H     0.14765   0.40559   0.72815   0.00000  Uiso   1.00
H1019  H     0.18760   0.36560   0.73302   0.00000  Uiso   1.00
H1020  H     0.38281   0.02062   0.87101   0.00000  Uiso   1.00
H1021  H     0.36336   0.04993   0.91635   0.00000  Uiso   1.00
H1022  H     0.30907   0.13563   0.74308   0.00000  Uiso   1.00
H1023  H     0.49413   0.18013   0.70879   0.00000  Uiso   1.00
H1024  H     0.28279   0.16368   0.78519   0.00000  Uiso   1.00
H1025  H     0.15423   0.39982   0.93903   0.00000  Uiso   1.00
H1026  H     0.19359   0.36020   0.92925   0.00000  Uiso   1.00
H1027  H     0.26682   0.36063   0.84665   0.00000  Uiso   1.00
H1028  H     0.28489   0.37549   0.89904   0.00000  Uiso   1.00
H1029  H     0.12551   0.03330   0.76936   0.00000  Uiso   1.00
H1030  H     0.11183   0.01604   0.82232   0.00000  Uiso   1.00
H1031  H     0.23365   0.13788   0.84604   0.00000  Uiso   1.00
H1032  H     0.21526   0.12488   0.89865   0.00000  Uiso   1.00
H1033  H     0.39919   0.45548   0.76010   0.00000  Uiso   1.00
H1034  H     0.00601   0.31986   0.95787   0.00000  Uiso   1.00
H1035  H     0.41838   0.47373   0.81066   0.00000  Uiso   1.00
H1036  H     0.24745   0.07013   0.70887   0.00000  Uiso   1.00
H1037  H     0.25283   0.42990   0.95785   0.00000  Uiso   1.00
H1038  H     0.25286   0.42989   0.70881   0.00000  Uiso   1.00
H1039  H     0.24756   0.07012   0.95787   0.00000  Uiso   1.00
H1040  H     0.33670   0.21829   0.78699   0.00000  Uiso   1.00
N1041  N    -0.00000   0.25000   0.95240   0.00000  Uiso   1.00
N1042  N     0.45865   0.39484   0.79448   0.00000  Uiso   1.00
N1043  N     0.35844   0.28983   0.87129   0.00000  Uiso   1.00
N1044  N     0.04055   0.10520   0.79608   0.00000  Uiso   1.00
N1045  N     0.17253   0.39267   0.74902   0.00000  Uiso   1.00
N1046  N     0.38677   0.04936   0.89039   0.00000  Uiso   1.00
N1047  N     0.29922   0.13417   0.77696   0.00000  Uiso   1.00
N1048  N     0.17769   0.38818   0.91588   0.00000  Uiso   1.00
N1049  N     0.29098   0.35476   0.87135   0.00000  Uiso   1.00
N1050  N     0.10528   0.03975   0.79728   0.00000  Uiso   1.00
N1051  N     0.20960   0.14497   0.87038   0.00000  Uiso   1.00
N1052  N    -0.00000   0.25000   0.71427   0.00000  Uiso   1.00
N1053  N     0.39119   0.45966   0.79429   0.00000  Uiso   1.00
N1054  N     0.25000   0.00000   0.95240   0.00000  Uiso   1.00
N1055  N     0.25000   0.00000   0.71427   0.00000  Uiso   1.00
N1056  N     0.36555   0.20145   0.77755   0.00000  Uiso   1.00
N1057  N     0.11159   0.32257   0.91597   0.00000  Uiso   1.00
N1058  N     0.10713   0.32696   0.74906   0.00000  Uiso   1.00
N1059  N     0.45138   0.11521   0.88950   0.00000  Uiso   1.00
N1060  N     0.14490   0.21047   0.86906   0.00000  Uiso   1.00
O1061  O     0.04580   0.20419   0.87154   0.00000  Uiso   1.00
O1062  O     0.20419   0.04581   0.79513   0.00000  Uiso   1.00
O1063  O     0.20419   0.04581   0.87154   0.00000  Uiso   1.00
O1064  O     0.29580   0.45419   0.79513   0.00000  Uiso   1.00
O1065  O     0.20419   0.45419   0.79513   0.00000  Uiso   1.00
O1066  O     0.29580   0.04581   0.87154   0.00000  Uiso   1.00
O1067  O     0.29580   0.04581   0.79513   0.00000  Uiso   1.00
O1068  O     0.20419   0.45419   0.87154   0.00000  Uiso   1.00
O1069  O     0.45419   0.29581   0.79513   0.00000  Uiso   1.00
O1070  O     0.45419   0.29581   0.87154   0.00000  Uiso   1.00
O1071  O     0.04580   0.20419   0.79513   0.00000  Uiso   1.00
O1072  O     0.45419   0.20419   0.79513   0.00000  Uiso   1.00
O1073  O     0.04580   0.29581   0.87154   0.00000  Uiso   1.00
O1074  O     0.04580   0.29581   0.79513   0.00000  Uiso   1.00
O1075  O     0.45419   0.20419   0.87154   0.00000  Uiso   1.00
O1076  O     0.29580   0.45419   0.87154   0.00000  Uiso   1.00
Zn1077 Zn    0.00000   0.25000   0.88437   0.00000  Uiso   1.00
Zn1078 Zn   -0.00000   0.25000   0.78229   0.00000  Uiso   1.00
Zn1079 Zn    0.25000   0.00000   0.88437   0.00000  Uiso   1.00
Zn1080 Zn    0.25000   0.00000   0.78229   0.00000  Uiso   1.00
C1081  C     0.55991   0.19011   0.83333   0.00000  Uiso   1.00
C1082  C     0.99677   0.21117   0.97599   0.00000  Uiso   1.00
C1083  C     0.99674   0.21117   0.69063   0.00000  Uiso   1.00
C1084  C     0.50334   0.28882   0.97604   0.00000  Uiso   1.00
C1085  C     0.74858   0.03897   0.69067   0.00000  Uiso   1.00
C1086  C     0.75153   0.46104   0.97601   0.00000  Uiso   1.00
C1087  C     0.75154   0.46104   0.69064   0.00000  Uiso   1.00
C1088  C     0.74861   0.03897   0.97603   0.00000  Uiso   1.00
C1089  C     0.87025   0.16229   0.80500   0.00000  Uiso   1.00
C1090  C     0.62354   0.34402   0.87426   0.00000  Uiso   1.00
C1091  C     0.62132   0.34612   0.79128   0.00000  Uiso   1.00
C1092  C     0.94039   0.31019   0.83328   0.00000  Uiso   1.00
C1093  C     0.91264   0.11992   0.86163   0.00000  Uiso   1.00
C1094  C     0.63461   0.16721   0.85163   0.00000  Uiso   1.00
C1095  C     0.91624   0.38455   0.81346   0.00000  Uiso   1.00
C1096  C     0.86637   0.33305   0.85259   0.00000  Uiso   1.00
C1097  C     0.58323   0.11537   0.81465   0.00000  Uiso   1.00
C1098  C     0.65362   0.37849   0.79126   0.00000  Uiso   1.00
C1099  C     0.88042   0.08764   0.86202   0.00000  Uiso   1.00
C1100  C     0.83790   0.12979   0.80503   0.00000  Uiso   1.00
C1101  C     0.65600   0.37635   0.87423   0.00000  Uiso   1.00
C1102  C     0.83353   0.36519   0.85278   0.00000  Uiso   1.00
C1103  C     0.94014   0.18999   0.83330   0.00000  Uiso   1.00
C1104  C     0.61551   0.08294   0.81490   0.00000  Uiso   1.00
C1105  C     0.66689   0.13477   0.85190   0.00000  Uiso   1.00
C1106  C     0.88341   0.41667   0.81360   0.00000  Uiso   1.00
C1107  C     0.60283   0.33292   0.83299   0.00000  Uiso   1.00
C1108  C     0.90717   0.15682   0.83325   0.00000  Uiso   1.00
C1109  C     0.90721   0.34316   0.83310   0.00000  Uiso   1.00
C1110  C     0.59303   0.15711   0.83323   0.00000  Uiso   1.00
C1111  C     0.84327   0.09290   0.83362   0.00000  Uiso   1.00
C1112  C     0.66703   0.39704   0.83295   0.00000  Uiso   1.00
C1113  C     0.65706   0.09301   0.83339   0.00000  Uiso   1.00
C1114  C     0.56286   0.30705   0.83330   0.00000  Uiso   1.00
C1115  C     0.84266   0.40669   0.83340   0.00000  Uiso   1.00
C1116  C     0.80957   0.43976   0.83337   0.00000  Uiso   1.00
C1117  C     0.69014   0.05995   0.83334   0.00000  Uiso   1.00
C1118  C     0.69298   0.43707   0.83326   0.00000  Uiso   1.00
C1119  C     0.81012   0.05981   0.83342   0.00000  Uiso   1.00
C1120  C     0.50334   0.28882   0.69067   0.00000  Uiso   1.00
H1121  H     0.50602   0.31986   0.70887   0.00000  Uiso   1.00
H1122  H     0.86293   0.19199   0.74359   0.00000  Uiso   1.00
H1123  H     0.63934   0.30651   0.92950   0.00000  Uiso   1.00
H1124  H     0.60013   0.34635   0.93898   0.00000  Uiso   1.00
H1125  H     0.63406   0.31174   0.73313   0.00000  Uiso   1.00
H1126  H     0.59428   0.35187   0.72811   0.00000  Uiso   1.00
H1127  H     0.94139   0.11347   0.92335   0.00000  Uiso   1.00
H1128  H     0.96716   0.08533   0.88121   0.00000  Uiso   1.00
H1129  H     0.62459   0.21716   0.89686   0.00000  Uiso   1.00
H1130  H     0.63855   0.23404   0.84385   0.00000  Uiso   1.00
H1131  H     0.98302   0.38892   0.81895   0.00000  Uiso   1.00
H1132  H     0.99424   0.18013   0.95780   0.00000  Uiso   1.00
H1133  H     0.96442   0.37408   0.76673   0.00000  Uiso   1.00
H1134  H     0.84978   0.29359   0.90536   0.00000  Uiso   1.00
H1135  H     0.83167   0.27578   0.85418   0.00000  Uiso   1.00
H1136  H     0.51645   0.11222   0.82038   0.00000  Uiso   1.00
H1137  H     0.53492   0.12533   0.76781   0.00000  Uiso   1.00
H1138  H     0.64765   0.40559   0.72815   0.00000  Uiso   1.00
H1139  H     0.68760   0.36560   0.73302   0.00000  Uiso   1.00
H1140  H     0.88281   0.02062   0.87101   0.00000  Uiso   1.00
H1141  H     0.86336   0.04993   0.91635   0.00000  Uiso   1.00
H1142  H     0.80907   0.13563   0.74308   0.00000  Uiso   1.00
H1143  H     0.99413   0.18013   0.70879   0.00000  Uiso   1.00
H1144  H     0.78279   0.16368   0.78519   0.00000  Uiso   1.00
H1145  H     0.65423   0.39982   0.93903   0.00000  Uiso   1.00
H1146  H     0.69359   0.36020   0.92925   0.00000  Uiso   1.00
H1147  H     0.76682   0.36063   0.84665   0.00000  Uiso   1.00
H1148  H     0.78489   0.37549   0.89904   0.00000  Uiso   1.00
H1149  H     0.62551   0.03330   0.76936   0.00000  Uiso   1.00
H1150  H     0.61183   0.01604   0.82232   0.00000  Uiso   1.00
H1151  H     0.73365   0.13788   0.84604   0.00000  Uiso   1.00
H1152  H     0.71526   0.12488   0.89865   0.00000  Uiso   1.00
H1153  H     0.89919   0.45548   0.76010   0.00000  Uiso   1.00
H1154  H     0.50601   0.31986   0.95787   0.00000  Uiso   1.00
H1155  H     0.91838   0.47373   0.81066   0.00000  Uiso   1.00
H1156  H     0.74745   0.07013   0.70887   0.00000  Uiso   1.00
H1157  H     0.75283   0.42990   0.95785   0.00000  Uiso   1.00
H1158  H     0.75286   0.42989   0.70881   0.00000  Uiso   1.00
H1159  H     0.74756   0.07012   0.95787   0.00000  Uiso   1.00
H1160  H     0.83670   0.21829   0.78699   0.00000  Uiso   1.00
N1161  N     0.50000   0.25000   0.95240   0.00000  Uiso   1.00
N1162  N     0.95865   0.39484   0.79448   0.00000  Uiso   1.00
N1163  N     0.85844   0.28983   0.87129   0.00000  Uiso   1.00
N1164  N     0.54055   0.10520   0.79608   0.00000  Uiso   1.00
N1165  N     0.67253   0.39267   0.74902   0.00000  Uiso   1.00
N1166  N     0.88677   0.04936   0.89039   0.00000  Uiso   1.00
N1167  N     0.79922   0.13417   0.77696   0.00000  Uiso   1.00
N1168  N     0.67769   0.38818   0.91588   0.00000  Uiso   1.00
N1169  N     0.79098   0.35476   0.87135   0.00000  Uiso   1.00
N1170  N     0.60528   0.03975   0.79728   0.00000  Uiso   1.00
N1171  N     0.70960   0.14497   0.87038   0.00000  Uiso   1.00
N1172  N     0.50000   0.25000   0.71427   0.00000  Uiso   1.00
N1173  N     0.89119   0.45966   0.79429   0.00000  Uiso   1.00
N1174  N     0.75000   0.00000   0.95240   0.00000  Uiso   1.00
N1175  N     0.75000   0.00000   0.71427   0.00000  Uiso   1.00
N1176  N     0.86555   0.20145   0.77755   0.00000  Uiso   1.00
N1177  N     0.61159   0.32257   0.91597   0.00000  Uiso   1.00
N1178  N     0.60713   0.32696   0.74906   0.00000  Uiso   1.00
N1179  N     0.95138   0.11521   0.88950   0.00000  Uiso   1.00
N1180  N     0.64490   0.21047   0.86906   0.00000  Uiso   1.00
O1181  O     0.54580   0.20419   0.87154   0.00000  Uiso   1.00
O1182  O     0.70419   0.04581   0.79513   0.00000  Uiso   1.00
O1183  O     0.70419   0.04581   0.87154   0.00000  Uiso   1.00
O1184  O     0.79580   0.45419   0.79513   0.00000  Uiso   1.00
O1185  O     0.70419   0.45419   0.79513   0.00000  Uiso   1.00
O1186  O     0.79580   0.04581   0.87154   0.00000  Uiso   1.00
O1187  O     0.79580   0.04581   0.79513   0.00000  Uiso   1.00
O1188  O     0.70419   0.45419   0.87154   0.00000  Uiso   1.00
O1189  O     0.95419   0.29581   0.79513   0.00000  Uiso   1.00
O1190  O     0.95419   0.29581   0.87154   0.00000  Uiso   1.00
O1191  O     0.54580   0.20419   0.79513   0.00000  Uiso   1.00
O1192  O     0.95419   0.20419   0.79513   0.00000  Uiso   1.00
O1193  O     0.54580   0.29581   0.87154   0.00000  Uiso   1.00
O1194  O     0.54580   0.29581   0.79513   0.00000  Uiso   1.00
O1195  O     0.95419   0.20419   0.87154   0.00000  Uiso   1.00
O1196  O     0.79580   0.45419   0.87154   0.00000  Uiso   1.00
Zn1197 Zn    0.50000   0.25000   0.88437   0.00000  Uiso   1.00
Zn1198 Zn    0.50000   0.25000   0.78229   0.00000  Uiso   1.00
Zn1199 Zn    0.75000   0.00000   0.88437   0.00000  Uiso   1.00
Zn1200 Zn    0.75000   0.00000   0.78229   0.00000  Uiso   1.00
C1201  C     0.05991   0.69011   0.83333   0.00000  Uiso   1.00
C1202  C     0.49677   0.71117   0.97599   0.00000  Uiso   1.00
C1203  C     0.49674   0.71117   0.69063   0.00000  Uiso   1.00
C1204  C     0.00334   0.78882   0.97604   0.00000  Uiso   1.00
C1205  C     0.24858   0.53897   0.69067   0.00000  Uiso   1.00
C1206  C     0.25153   0.96104   0.97601   0.00000  Uiso   1.00
C1207  C     0.25154   0.96104   0.69064   0.00000  Uiso   1.00
C1208  C     0.24861   0.53897   0.97603   0.00000  Uiso   1.00
C1209  C     0.37025   0.66229   0.80500   0.00000  Uiso   1.00
C1210  C     0.12354   0.84402   0.87426   0.00000  Uiso   1.00
C1211  C     0.12132   0.84612   0.79128   0.00000  Uiso   1.00
C1212  C     0.44039   0.81019   0.83328   0.00000  Uiso   1.00
C1213  C     0.41264   0.61992   0.86163   0.00000  Uiso   1.00
C1214  C     0.13461   0.66721   0.85163   0.00000  Uiso   1.00
C1215  C     0.41624   0.88455   0.81346   0.00000  Uiso   1.00
C1216  C     0.36637   0.83305   0.85259   0.00000  Uiso   1.00
C1217  C     0.08323   0.61537   0.81465   0.00000  Uiso   1.00
C1218  C     0.15362   0.87849   0.79126   0.00000  Uiso   1.00
C1219  C     0.38042   0.58764   0.86202   0.00000  Uiso   1.00
C1220  C     0.33790   0.62979   0.80503   0.00000  Uiso   1.00
C1221  C     0.15600   0.87635   0.87423   0.00000  Uiso   1.00
C1222  C     0.33353   0.86519   0.85278   0.00000  Uiso   1.00
C1223  C     0.44014   0.68999   0.83330   0.00000  Uiso   1.00
C1224  C     0.11551   0.58294   0.81490   0.00000  Uiso   1.00
C1225  C     0.16689   0.63477   0.85190   0.00000  Uiso   1.00
C1226  C     0.38341   0.91667   0.81360   0.00000  Uiso   1.00
C1227  C     0.10283   0.83292   0.83299   0.00000  Uiso   1.00
C1228  C     0.40717   0.65682   0.83325   0.00000  Uiso   1.00
C1229  C     0.40721   0.84316   0.83310   0.00000  Uiso   1.00
C1230  C     0.09303   0.65711   0.83323   0.00000  Uiso   1.00
C1231  C     0.34327   0.59290   0.83362   0.00000  Uiso   1.00
C1232  C     0.16703   0.89704   0.83295   0.00000  Uiso   1.00
C1233  C     0.15706   0.59301   0.83339   0.00000  Uiso   1.00
C1234  C     0.06286   0.80705   0.83330   0.00000  Uiso   1.00
C1235  C     0.34266   0.90669   0.83340   0.00000  Uiso   1.00
C1236  C     0.30957   0.93976   0.83337   0.00000  Uiso   1.00
C1237  C     0.19014   0.55995   0.83334   0.00000  Uiso   1.00
C1238  C     0.19298   0.93707   0.83326   0.00000  Uiso   1.00
C1239  C     0.31012   0.55981   0.83342   0.00000  Uiso   1.00
C1240  C     0.00334   0.78882   0.69067   0.00000  Uiso   1.00
H1241  H     0.00602   0.81986   0.70887   0.00000  Uiso   1.00
H1242  H     0.36293   0.69199   0.74359   0.00000  Uiso   1.00
H1243  H     0.13934   0.80651   0.92950   0.00000  Uiso   1.00
H1244  H     0.10013   0.84635   0.93898   0.00000  Uiso   1.00
H1245  H     0.13406   0.81174   0.73313   0.00000  Uiso   1.00
H1246  H     0.09428   0.85187   0.72811   0.00000  Uiso   1.00
H1247  H     0.44139   0.61347   0.92335   0.00000  Uiso   1.00
H1248  H     0.46716   0.58533   0.88121   0.00000  Uiso   1.00
H1249  H     0.12459   0.71716   0.89686   0.00000  Uiso   1.00
H1250  H     0.13855   0.73404   0.84385   0.00000  Uiso   1.00
H1251  H     0.48302   0.88892   0.81895   0.00000  Uiso   1.00
H1252  H     0.49424   0.68013   0.95780   0.00000  Uiso   1.00
H1253  H     0.46442   0.87408   0.76673   0.00000  Uiso   1.00
H1254  H     0.34978   0.79359   0.90536   0.00000  Uiso   1.00
H1255  H     0.33167   0.77578   0.85418   0.00000  Uiso   1.00
H1256  H     0.01645   0.61222   0.82038   0.00000  Uiso   1.00
H1257  H     0.03492   0.62533   0.76781   0.00000  Uiso   1.00
H1258  H     0.14765   0.90559   0.72815   0.00000  Uiso   1.00
H1259  H     0.18760   0.86560   0.73302   0.00000  Uiso   1.00
H1260  H     0.38281   0.52062   0.87101   0.00000  Uiso   1.00
H1261  H     0.36336   0.54993   0.91635   0.00000  Uiso   1.00
H1262  H     0.30907   0.63563   0.74308   0.00000  Uiso   1.00
H1263  H     0.49413   0.68013   0.70879   0.00000  Uiso   1.00
H1264  H     0.28279   0.66368   0.78519   0.00000  Uiso   1.00
H1265  H     0.15423   0.89982   0.93903   0.00000  Uiso   1.00
H1266  H     0.19359   0.86020   0.92925   0.00000  Uiso   1.00
H1267  H     0.26682   0.86063   0.84665   0.00000  Uiso   1.00
H1268  H     0.28489   0.87549   0.89904   0.00000  Uiso   1.00
H1269  H     0.12551   0.53330   0.76936   0.00000  Uiso   1.00
H1270  H     0.11183   0.51604   0.82232   0.00000  Uiso   1.00
H1271  H     0.23365   0.63788   0.84604   0.00000  Uiso   1.00
H1272  H     0.21526   0.62488   0.89865   0.00000  Uiso   1.00
H1273  H     0.39919   0.95548   0.76010   0.00000  Uiso   1.00
H1274  H     0.00601   0.81986   0.95787   0.00000  Uiso   1.00
H1275  H     0.41838   0.97373   0.81066   0.00000  Uiso   1.00
H1276  H     0.24745   0.57013   0.70887   0.00000  Uiso   1.00
H1277  H     0.25283   0.92990   0.95785   0.00000  Uiso   1.00
H1278  H     0.25286   0.92989   0.70881   0.00000  Uiso   1.00
H1279  H     0.24756   0.57012   0.95787   0.00000  Uiso   1.00
H1280  H     0.33670   0.71829   0.78699   0.00000  Uiso   1.00
N1281  N    -0.00000   0.75000   0.95240   0.00000  Uiso   1.00
N1282  N     0.45865   0.89484   0.79448   0.00000  Uiso   1.00
N1283  N     0.35844   0.78983   0.87129   0.00000  Uiso   1.00
N1284  N     0.04055   0.60520   0.79608   0.00000  Uiso   1.00
N1285  N     0.17253   0.89267   0.74902   0.00000  Uiso   1.00
N1286  N     0.38677   0.54936   0.89039   0.00000  Uiso   1.00
N1287  N     0.29922   0.63417   0.77696   0.00000  Uiso   1.00
N1288  N     0.17769   0.88818   0.91588   0.00000  Uiso   1.00
N1289  N     0.29098   0.85476   0.87135   0.00000  Uiso   1.00
N1290  N     0.10528   0.53975   0.79728   0.00000  Uiso   1.00
N1291  N     0.20960   0.64497   0.87038   0.00000  Uiso   1.00
N1292  N    -0.00000   0.75000   0.71427   0.00000  Uiso   1.00
N1293  N     0.39119   0.95966   0.79429   0.00000  Uiso   1.00
N1294  N     0.25000   0.50000   0.95240   0.00000  Uiso   1.00
N1295  N     0.25000   0.50000   0.71427   0.00000  Uiso   1.00
N1296  N     0.36555   0.70145   0.77755   0.00000  Uiso   1.00
N1297  N     0.11159   0.82257   0.91597   0.00000  Uiso   1.00
N1298  N     0.10713   0.82696   0.74906   0.00000  Uiso   1.00
N1299  N     0.45138   0.61521   0.88950   0.00000  Uiso   1.00
N1300  N     0.14490   0.71047   0.86906   0.00000  Uiso   1.00
O1301  O     0.04580   0.70419   0.87154   0.00000  Uiso   1.00
O1302  O     0.20419   0.54581   0.79513   0.00000  Uiso   1.00
O1303  O     0.20419   0.54581   0.87154   0.00000  Uiso   1.00
O1304  O     0.29580   0.95419   0.79513   0.00000  Uiso   1.00
O1305  O     0.20419   0.95419   0.79513   0.00000  Uiso   1.00
O1306  O     0.29580   0.54581   0.87154   0.00000  Uiso   1.00
O1307  O     0.29580   0.54581   0.79513   0.00000  Uiso   1.00
O1308  O     0.20419   0.95419   0.87154   0.00000  Uiso   1.00
O1309  O     0.45419   0.79581   0.79513   0.00000  Uiso   1.00
O1310  O     0.45419   0.79581   0.87154   0.00000  Uiso   1.00
O1311  O     0.04580   0.70419   0.79513   0.00000  Uiso   1.00
O1312  O     0.45419   0.70419   0.79513   0.00000  Uiso   1.00
O1313  O     0.04580   0.79581   0.87154   0.00000  Uiso   1.00
O1314  O     0.04580   0.79581   0.79513   0.00000  Uiso   1.00
O1315  O     0.45419   0.70419   0.87154   0.00000  Uiso   1.00
O1316  O     0.29580   0.95419   0.87154   0.00000  Uiso   1.00
Zn1317 Zn    0.00000   0.75000   0.88437   0.00000  Uiso   1.00
Zn1318 Zn   -0.00000   0.75000   0.78229   0.00000  Uiso   1.00
Zn1319 Zn    0.25000   0.50000   0.88437   0.00000  Uiso   1.00
Zn1320 Zn    0.25000   0.50000   0.78229   0.00000  Uiso   1.00
C1321  C     0.55991   0.69011   0.83333   0.00000  Uiso   1.00
C1322  C     0.99677   0.71117   0.97599   0.00000  Uiso   1.00
C1323  C     0.99674   0.71117   0.69063   0.00000  Uiso   1.00
C1324  C     0.50334   0.78882   0.97604   0.00000  Uiso   1.00
C1325  C     0.74858   0.53897   0.69067   0.00000  Uiso   1.00
C1326  C     0.75153   0.96104   0.97601   0.00000  Uiso   1.00
C1327  C     0.75154   0.96104   0.69064   0.00000  Uiso   1.00
C1328  C     0.74861   0.53897   0.97603   0.00000  Uiso   1.00
C1329  C     0.87025   0.66229   0.80500   0.00000  Uiso   1.00
C1330  C     0.62354   0.84402   0.87426   0.00000  Uiso   1.00
C1331  C     0.62132   0.84612   0.79128   0.00000  Uiso   1.00
C1332  C     0.94039   0.81019   0.83328   0.00000  Uiso   1.00
C1333  C     0.91264   0.61992   0.86163   0.00000  Uiso   1.00
C1334  C     0.63461   0.66721   0.85163   0.00000  Uiso   1.00
C1335  C     0.91624   0.88455   0.81346   0.00000  Uiso   1.00
C1336  C     0.86637   0.83305   0.85259   0.00000  Uiso   1.00
C1337  C     0.58323   0.61537   0.81465   0.00000  Uiso   1.00
C1338  C     0.65362   0.87849   0.79126   0.00000  Uiso   1.00
C1339  C     0.88042   0.58764   0.86202   0.00000  Uiso   1.00
C1340  C     0.83790   0.62979   0.80503   0.00000  Uiso   1.00
C1341  C     0.65600   0.87635   0.87423   0.00000  Uiso   1.00
C1342  C     0.83353   0.86519   0.85278   0.00000  Uiso   1.00
C1343  C     0.94014   0.68999   0.83330   0.00000  Uiso   1.00
C1344  C     0.61551   0.58294   0.81490   0.00000  Uiso   1.00
C1345  C     0.66689   0.63477   0.85190   0.00000  Uiso   1.00
C1346  C     0.88341   0.91667   0.81360   0.00000  Uiso   1.00
C1347  C     0.60283   0.83292   0.83299   0.00000  Uiso   1.00
C1348  C     0.90717   0.65682   0.83325   0.00000  Uiso   1.00
C1349  C     0.90721   0.84316   0.83310   0.00000  Uiso   1.00
C1350  C     0.59303   0.65711   0.83323   0.00000  Uiso   1.00
C1351  C     0.84327   0.59290   0.83362   0.00000  Uiso   1.00
C1352  C     0.66703   0.89704   0.83295   0.00000  Uiso   1.00
C1353  C     0.65706   0.59301   0.83339   0.00000  Uiso   1.00
C1354  C     0.56286   0.80705   0.83330   0.00000  Uiso   1.00
C1355  C     0.84266   0.90669   0.83340   0.00000  Uiso   1.00
C1356  C     0.80957   0.93976   0.83337   0.00000  Uiso   1.00
C1357  C     0.69014   0.55995   0.83334   0.00000  Uiso   1.00
C1358  C     0.69298   0.93707   0.83326   0.00000  Uiso   1.00
C1359  C     0.81012   0.55981   0.83342   0.00000  Uiso   1.00
C1360  C     0.50334   0.78882   0.69067   0.00000  Uiso   1.00
H1361  H     0.50602   0.81986   0.70887   0.00000  Uiso   1.00
H1362  H     0.86293   0.69199   0.74359   0.00000  Uiso   1.00
H1363  H     0.63934   0.80651   0.92950   0.00000  Uiso   1.00
H1364  H     0.60013   0.84635   0.93898   0.00000  Uiso   1.00
H1365  H     0.63406   0.81174   0.73313   0.00000  Uiso   1.00
H1366  H     0.59428   0.85187   0.72811   0.00000  Uiso   1.00
H1367  H     0.94139   0.61347   0.92335   0.00000  Uiso   1.00
H1368  H     0.96716   0.58533   0.88121   0.00000  Uiso   1.00
H1369  H     0.62459   0.71716   0.89686   0.00000  Uiso   1.00
H1370  H     0.63855   0.73404   0.84385   0.00000  Uiso   1.00
H1371  H     0.98302   0.88892   0.81895   0.00000  Uiso   1.00
H1372  H     0.99424   0.68013   0.95780   0.00000  Uiso   1.00
H1373  H     0.96442   0.87408   0.76673   0.00000  Uiso   1.00
H1374  H     0.84978   0.79359   0.90536   0.00000  Uiso   1.00
H1375  H     0.83167   0.77578   0.85418   0.00000  Uiso   1.00
H1376  H     0.51645   0.61222   0.82038   0.00000  Uiso   1.00
H1377  H     0.53492   0.62533   0.76781   0.00000  Uiso   1.00
H1378  H     0.64765   0.90559   0.72815   0.00000  Uiso   1.00
H1379  H     0.68760   0.86560   0.73302   0.00000  Uiso   1.00
H1380  H     0.88281   0.52062   0.87101   0.00000  Uiso   1.00
H1381  H     0.86336   0.54993   0.91635   0.00000  Uiso   1.00
H1382  H     0.80907   0.63563   0.74308   0.00000  Uiso   1.00
H1383  H     0.99413   0.68013   0.70879   0.00000  Uiso   1.00
H1384  H     0.78279   0.66368   0.78519   0.00000  Uiso   1.00
H1385  H     0.65423   0.89982   0.93903   0.00000  Uiso   1.00
H1386  H     0.69359   0.86020   0.92925   0.00000  Uiso   1.00
H1387  H     0.76682   0.86063   0.84665   0.00000  Uiso   1.00
H1388  H     0.78489   0.87549   0.89904   0.00000  Uiso   1.00
H1389  H     0.62551   0.53330   0.76936   0.00000  Uiso   1.00
H1390  H     0.61183   0.51604   0.82232   0.00000  Uiso   1.00
H1391  H     0.73365   0.63788   0.84604   0.00000  Uiso   1.00
H1392  H     0.71526   0.62488   0.89865   0.00000  Uiso   1.00
H1393  H     0.89919   0.95548   0.76010   0.00000  Uiso   1.00
H1394  H     0.50601   0.81986   0.95787   0.00000  Uiso   1.00
H1395  H     0.91838   0.97373   0.81066   0.00000  Uiso   1.00
H1396  H     0.74745   0.57013   0.70887   0.00000  Uiso   1.00
H1397  H     0.75283   0.92990   0.95785   0.00000  Uiso   1.00
H1398  H     0.75286   0.92989   0.70881   0.00000  Uiso   1.00
H1399  H     0.74756   0.57012   0.95787   0.00000  Uiso   1.00
H1400  H     0.83670   0.71829   0.78699   0.00000  Uiso   1.00
N1401  N     0.50000   0.75000   0.95240   0.00000  Uiso   1.00
N1402  N     0.95865   0.89484   0.79448   0.00000  Uiso   1.00
N1403  N     0.85844   0.78983   0.87129   0.00000  Uiso   1.00
N1404  N     0.54055   0.60520   0.79608   0.00000  Uiso   1.00
N1405  N     0.67253   0.89267   0.74902   0.00000  Uiso   1.00
N1406  N     0.88677   0.54936   0.89039   0.00000  Uiso   1.00
N1407  N     0.79922   0.63417   0.77696   0.00000  Uiso   1.00
N1408  N     0.67769   0.88818   0.91588   0.00000  Uiso   1.00
N1409  N     0.79098   0.85476   0.87135   0.00000  Uiso   1.00
N1410  N     0.60528   0.53975   0.79728   0.00000  Uiso   1.00
N1411  N     0.70960   0.64497   0.87038   0.00000  Uiso   1.00
N1412  N     0.50000   0.75000   0.71427   0.00000  Uiso   1.00
N1413  N     0.89119   0.95966   0.79429   0.00000  Uiso   1.00
N1414  N     0.75000   0.50000   0.95240   0.00000  Uiso   1.00
N1415  N     0.75000   0.50000   0.71427   0.00000  Uiso   1.00
N1416  N     0.86555   0.70145   0.77755   0.00000  Uiso   1.00
N1417  N     0.61159   0.82257   0.91597   0.00000  Uiso   1.00
N1418  N     0.60713   0.82696   0.74906   0.00000  Uiso   1.00
N1419  N     0.95138   0.61521   0.88950   0.00000  Uiso   1.00
N1420  N     0.64490   0.71047   0.86906   0.00000  Uiso   1.00
O1421  O     0.54580   0.70419   0.87154   0.00000  Uiso   1.00
O1422  O     0.70419   0.54581   0.79513   0.00000  Uiso   1.00
O1423  O     0.70419   0.54581   0.87154   0.00000  Uiso   1.00
O1424  O     0.79580   0.95419   0.79513   0.00000  Uiso   1.00
O1425  O     0.70419   0.95419   0.79513   0.00000  Uiso   1.00
O1426  O     0.79580   0.54581   0.87154   0.00000  Uiso   1.00
O1427  O     0.79580   0.54581   0.79513   0.00000  Uiso   1.00
O1428  O     0.70419   0.95419   0.87154   0.00000  Uiso   1.00
O1429  O     0.95419   0.79581   0.79513   0.00000  Uiso   1.00
O1430  O     0.95419   0.79581   0.87154   0.00000  Uiso   1.00
O1431  O     0.54580   0.70419   0.79513   0.00000  Uiso   1.00
O1432  O     0.95419   0.70419   0.79513   0.00000  Uiso   1.00
O1433  O     0.54580   0.79581   0.87154   0.00000  Uiso   1.00
O1434  O     0.54580   0.79581   0.79513   0.00000  Uiso   1.00
O1435  O     0.95419   0.70419   0.87154   0.00000  Uiso   1.00
O1436  O     0.79580   0.95419   0.87154   0.00000  Uiso   1.00
Zn1437 Zn    0.50000   0.75000   0.88437   0.00000  Uiso   1.00
Zn1438 Zn    0.50000   0.75000   0.78229   0.00000  Uiso   1.00
Zn1439 Zn    0.75000   0.50000   0.88437   0.00000  Uiso   1.00
Zn1440 Zn    0.75000   0.50000   0.78229   0.00000  Uiso   1.00
loop_
_geom_bond_atom_site_label_1
_geom_bond_atom_site_label_2
_geom_bond_distance
_geom_bond_site_symmetry_2
_ccdc_geom_bond_type
C1     O101    1.278   .     A
C1     O111    1.276   .     A
C1     C30     1.407   .     S
C2     H52     1.082   .     S
C2     N201    1.366   .     A
C2     C483    1.416   .     S
C3     H63     1.082   .     S
C3     N212    1.366   .     A
C3     C962    1.416   1_554 S
C4     H74     1.082   .     S
C4     C520    1.416   .     S
C4     N81     1.366   .     S
C5     N95     1.366   .     A
C5     H76     1.082   .     S
C5     C968    1.416   1_554 S
C6     N334    1.366   .     A
C6     H77     1.081   .     S
C6     C487    1.415   .     S
C7     H78     1.082   .     S
C7     C966    1.415   1_554 S
C7     N335    1.366   .     S
C8     H79     1.081   .     S
C8     C485    1.416   .     S
C8     N94     1.366   .     S
C9     C20     1.389   .     A
C9     N96     1.438   .     S
C9     C28     1.401   .     A
C10    C27     1.410   .     A
C10    C21     1.388   .     A
C10    N97     1.439   .     S
C11    C18     1.386   .     A
C11    C27     1.412   .     A
C11    N98     1.439   .     S
C12    O110    1.278   .     A
C12    C29     1.408   .     S
C12    O109    1.276   .     A
C13    C19     1.382   .     A
C13    N99     1.437   .     S
C13    C28     1.401   .     A
C14    C30     1.404   .     A
C14    N100    1.437   .     S
C14    C25     1.378   .     A
C15    C29     1.404   .     A
C15    N82     1.437   .     S
C15    C26     1.382   .     A
C16    C29     1.400   .     A
C16    N83     1.437   .     S
C16    C22     1.383   .     A
C17    C30     1.405   .     A
C17    C24     1.377   .     A
C17    N84     1.437   .     S
C18    N85     1.439   .     S
C18    C32     1.411   .     A
C19    N86     1.438   .     S
C19    C31     1.409   .     A
C20    N87     1.438   .     S
C20    C31     1.404   .     A
C21    N88     1.438   .     S
C21    C32     1.411   .     A
C22    C35     1.405   .     A
C22    N89     1.437   .     S
C23    O112    1.280   .     A
C23    C28     1.417   .     S
C23    O115    1.280   .     A
C24    N90     1.437   .     S
C24    C33     1.404   .     A
C25    N91     1.437   .     S
C25    C33     1.405   .     A
C26    N93     1.437   .     S
C26    C35     1.400   .     A
C27    C34     1.443   .     S
C31    C39     1.419   .     S
C32    C38     1.444   .     S
C33    C37     1.408   .     S
C34    O113    1.288   .     A
C34    O114    1.285   .     A
C35    C36     1.408   .     S
C36    O116    1.277   .     A
C36    O104    1.278   .     A
C37    O102    1.278   .     A
C37    O103    1.277   .     A
C38    O105    1.285   .     A
C38    O108    1.288   .     A
C39    O106    1.279   .     A
C39    O107    1.282   .     A
C40    H41     1.082   .     S
C40    C964    1.416   1_554 S
C40    N92     1.366   .     S
H42    N96     1.045   .     S
H43    N97     1.045   .     S
H44    N97     1.045   .     S
H45    N98     1.045   .     S
H46    N98     1.045   .     S
H47    N99     1.046   .     S
H48    N99     1.046   .     S
H49    N100    1.045   .     S
H50    N100    1.046   .     S
H51    N82     1.046   .     S
H53    N82     1.045   .     S
H54    N83     1.046   .     S
H55    N83     1.046   .     S
H56    N84     1.044   .     S
H57    N84     1.045   .     S
H58    N85     1.045   .     S
H59    N85     1.045   .     S
H60    N86     1.045   .     S
H61    N86     1.045   .     S
H62    N87     1.045   .     S
H64    N87     1.045   .     S
H65    N88     1.045   .     S
H66    N88     1.045   .     S
H67    N89     1.046   .     S
H68    N89     1.044   .     S
H69    N90     1.045   .     S
H70    N90     1.046   .     S
H71    N91     1.044   .     S
H72    N91     1.045   .     S
H73    N93     1.046   .     S
H75    N93     1.046   .     S
H80    N96     1.045   .     S
N81    C122    1.366   1_455 A
N81    Zn117   2.008   .     S
N92    Zn118   2.008   .     S
N92    C123    1.366   1_455 A
N94    C246    1.366   1_545 A
N94    Zn119   2.008   .     S
N95    Zn120   2.008   .     S
N95    C247    1.366   1_545 S
O101   Zn117   1.987   .     S
O102   Zn120   1.987   .     S
O103   Zn119   1.986   .     S
O104   Zn360   1.986   .     S
O105   Zn360   1.999   .     S
O106   Zn119   1.999   .     S
O107   Zn120   1.998   .     S
O108   Zn359   1.998   .     S
O109   Zn238   1.987   .     S
O110   Zn237   1.986   .     S
O111   Zn118   1.986   .     S
O112   Zn238   1.999   .     S
O113   Zn117   1.999   .     S
O114   Zn118   1.998   .     S
O115   Zn237   1.998   .     S
O116   Zn359   1.987   .     S
Zn117  O235    1.998   1_455 S
Zn117  O230    1.986   1_455 S
Zn118  O229    1.987   1_455 S
Zn118  O232    1.999   1_455 S
Zn119  O348    1.998   1_545 S
Zn119  O356    1.987   1_545 S
Zn120  O345    1.999   1_545 S
Zn120  O344    1.986   1_545 S
C121   O221    1.278   .     A
C121   O231    1.276   .     A
C121   C150    1.407   .     S
C122   H172    1.082   .     S
C122   N81     1.366   1_655 A
C122   C603    1.416   .     S
C123   H183    1.082   .     S
C123   N92     1.366   1_655 A
C123   C1082   1.416   1_554 S
C124   H194    1.082   .     S
C124   C640    1.416   .     S
C124   N201    1.366   .     S
C125   N215    1.366   .     A
C125   H196    1.082   .     S
C125   C1088   1.416   1_554 S
C126   N454    1.366   .     A
C126   H197    1.081   .     S
C126   C607    1.415   .     S
C127   H198    1.082   .     S
C127   C1086   1.415   1_554 S
C127   N455    1.366   .     S
C128   H199    1.081   .     S
C128   C605    1.416   .     S
C128   N214    1.366   .     S
C129   C140    1.389   .     A
C129   N216    1.438   .     S
C129   C148    1.401   .     A
C130   C147    1.410   .     A
C130   C141    1.388   .     A
C130   N217    1.439   .     S
C131   C138    1.386   .     A
C131   C147    1.412   .     A
C131   N218    1.439   .     S
C132   O230    1.278   .     A
C132   C149    1.408   .     S
C132   O229    1.276   .     A
C133   C139    1.382   .     A
C133   N219    1.437   .     S
C133   C148    1.401   .     A
C134   C150    1.404   .     A
C134   N220    1.437   .     S
C134   C145    1.378   .     A
C135   C149    1.404   .     A
C135   N202    1.437   .     S
C135   C146    1.382   .     A
C136   C149    1.400   .     A
C136   N203    1.437   .     S
C136   C142    1.383   .     A
C137   C150    1.405   .     A
C137   C144    1.377   .     A
C137   N204    1.437   .     S
C138   N205    1.439   .     S
C138   C152    1.411   .     A
C139   N206    1.438   .     S
C139   C151    1.409   .     A
C140   N207    1.438   .     S
C140   C151    1.404   .     A
C141   N208    1.438   .     S
C141   C152    1.411   .     A
C142   C155    1.405   .     A
C142   N209    1.437   .     S
C143   O232    1.280   .     A
C143   C148    1.417   .     S
C143   O235    1.280   .     A
C144   N210    1.437   .     S
C144   C153    1.404   .     A
C145   N211    1.437   .     S
C145   C153    1.405   .     A
C146   N213    1.437   .     S
C146   C155    1.400   .     A
C147   C154    1.443   .     S
C151   C159    1.419   .     S
C152   C158    1.444   .     S
C153   C157    1.408   .     S
C154   O233    1.288   .     A
C154   O234    1.285   .     A
C155   C156    1.408   .     S
C156   O236    1.277   .     A
C156   O224    1.278   .     A
C157   O222    1.278   .     A
C157   O223    1.277   .     A
C158   O225    1.285   .     A
C158   O228    1.288   .     A
C159   O226    1.279   .     A
C159   O227    1.282   .     A
C160   H161    1.082   .     S
C160   C1084   1.416   1_554 S
C160   N212    1.366   .     S
H162   N216    1.045   .     S
H163   N217    1.045   .     S
H164   N217    1.045   .     S
H165   N218    1.045   .     S
H166   N218    1.045   .     S
H167   N219    1.046   .     S
H168   N219    1.046   .     S
H169   N220    1.045   .     S
H170   N220    1.046   .     S
H171   N202    1.046   .     S
H173   N202    1.045   .     S
H174   N203    1.046   .     S
H175   N203    1.046   .     S
H176   N204    1.044   .     S
H177   N204    1.045   .     S
H178   N205    1.045   .     S
H179   N205    1.045   .     S
H180   N206    1.045   .     S
H181   N206    1.045   .     S
H182   N207    1.045   .     S
H184   N207    1.045   .     S
H185   N208    1.045   .     S
H186   N208    1.045   .     S
H187   N209    1.046   .     S
H188   N209    1.044   .     S
H189   N210    1.045   .     S
H190   N210    1.046   .     S
H191   N211    1.044   .     S
H192   N211    1.045   .     S
H193   N213    1.046   .     S
H195   N213    1.046   .     S
H200   N216    1.045   .     S
N201   Zn237   2.008   .     S
N212   Zn238   2.008   .     S
N214   C366    1.366   1_545 A
N214   Zn239   2.008   .     S
N215   Zn240   2.008   .     S
N215   C367    1.366   1_545 S
O221   Zn237   1.987   .     S
O222   Zn240   1.987   .     S
O223   Zn239   1.986   .     S
O224   Zn480   1.986   .     S
O225   Zn480   1.999   .     S
O226   Zn239   1.999   .     S
O227   Zn240   1.998   .     S
O228   Zn479   1.998   .     S
O229   Zn118   1.987   1_655 S
O230   Zn117   1.986   1_655 S
O231   Zn238   1.986   .     S
O232   Zn118   1.999   1_655 S
O233   Zn237   1.999   .     S
O234   Zn238   1.998   .     S
O235   Zn117   1.998   1_655 S
O236   Zn479   1.987   .     S
Zn239  O468    1.998   1_545 S
Zn239  O476    1.987   1_545 S
Zn240  O465    1.999   1_545 S
Zn240  O464    1.986   1_545 S
C241   O341    1.278   .     A
C241   O351    1.276   .     A
C241   C270    1.407   .     S
C242   H292    1.082   .     S
C242   N441    1.366   .     A
C242   C723    1.416   .     S
C243   H303    1.082   .     S
C243   N452    1.366   .     A
C243   C1202   1.416   1_554 S
C244   H314    1.082   .     S
C244   C760    1.416   .     S
C244   N321    1.366   .     S
C245   N335    1.366   .     A
C245   H316    1.082   .     S
C245   C1208   1.416   1_554 S
C246   N94     1.366   1_565 A
C246   H317    1.081   .     S
C246   C727    1.415   .     S
C247   H318    1.082   .     S
C247   C1206   1.415   1_554 S
C247   N95     1.366   1_565 S
C248   H319    1.081   .     S
C248   C725    1.416   .     S
C248   N334    1.366   .     S
C249   C260    1.389   .     A
C249   N336    1.438   .     S
C249   C268    1.401   .     A
C250   C267    1.410   .     A
C250   C261    1.388   .     A
C250   N337    1.439   .     S
C251   C258    1.386   .     A
C251   C267    1.412   .     A
C251   N338    1.439   .     S
C252   O350    1.278   .     A
C252   C269    1.408   .     S
C252   O349    1.276   .     A
C253   C259    1.382   .     A
C253   N339    1.437   .     S
C253   C268    1.401   .     A
C254   C270    1.404   .     A
C254   N340    1.437   .     S
C254   C265    1.378   .     A
C255   C269    1.404   .     A
C255   N322    1.437   .     S
C255   C266    1.382   .     A
C256   C269    1.400   .     A
C256   N323    1.437   .     S
C256   C262    1.383   .     A
C257   C270    1.405   .     A
C257   C264    1.377   .     A
C257   N324    1.437   .     S
C258   N325    1.439   .     S
C258   C272    1.411   .     A
C259   N326    1.438   .     S
C259   C271    1.409   .     A
C260   N327    1.438   .     S
C260   C271    1.404   .     A
C261   N328    1.438   .     S
C261   C272    1.411   .     A
C262   C275    1.405   .     A
C262   N329    1.437   .     S
C263   O352    1.280   .     A
C263   C268    1.417   .     S
C263   O355    1.280   .     A
C264   N330    1.437   .     S
C264   C273    1.404   .     A
C265   N331    1.437   .     S
C265   C273    1.405   .     A
C266   N333    1.437   .     S
C266   C275    1.400   .     A
C267   C274    1.443   .     S
C271   C279    1.419   .     S
C272   C278    1.444   .     S
C273   C277    1.408   .     S
C274   O353    1.288   .     A
C274   O354    1.285   .     A
C275   C276    1.408   .     S
C276   O356    1.277   .     A
C276   O344    1.278   .     A
C277   O342    1.278   .     A
C277   O343    1.277   .     A
C278   O345    1.285   .     A
C278   O348    1.288   .     A
C279   O346    1.279   .     A
C279   O347    1.282   .     A
C280   H281    1.082   .     S
C280   C1204   1.416   1_554 S
C280   N332    1.366   .     S
H282   N336    1.045   .     S
H283   N337    1.045   .     S
H284   N337    1.045   .     S
H285   N338    1.045   .     S
H286   N338    1.045   .     S
H287   N339    1.046   .     S
H288   N339    1.046   .     S
H289   N340    1.045   .     S
H290   N340    1.046   .     S
H291   N322    1.046   .     S
H293   N322    1.045   .     S
H294   N323    1.046   .     S
H295   N323    1.046   .     S
H296   N324    1.044   .     S
H297   N324    1.045   .     S
H298   N325    1.045   .     S
H299   N325    1.045   .     S
H300   N326    1.045   .     S
H301   N326    1.045   .     S
H302   N327    1.045   .     S
H304   N327    1.045   .     S
H305   N328    1.045   .     S
H306   N328    1.045   .     S
H307   N329    1.046   .     S
H308   N329    1.044   .     S
H309   N330    1.045   .     S
H310   N330    1.046   .     S
H311   N331    1.044   .     S
H312   N331    1.045   .     S
H313   N333    1.046   .     S
H315   N333    1.046   .     S
H320   N336    1.045   .     S
N321   C362    1.366   1_455 A
N321   Zn357   2.008   .     S
N332   Zn358   2.008   .     S
N332   C363    1.366   1_455 A
N334   Zn359   2.008   .     S
N335   Zn360   2.008   .     S
O341   Zn357   1.987   .     S
O342   Zn360   1.987   .     S
O343   Zn359   1.986   .     S
O344   Zn120   1.986   1_565 S
O345   Zn120   1.999   1_565 S
O346   Zn359   1.999   .     S
O347   Zn360   1.998   .     S
O348   Zn119   1.998   1_565 S
O349   Zn478   1.987   .     S
O350   Zn477   1.986   .     S
O351   Zn358   1.986   .     S
O352   Zn478   1.999   .     S
O353   Zn357   1.999   .     S
O354   Zn358   1.998   .     S
O355   Zn477   1.998   .     S
O356   Zn119   1.987   1_565 S
Zn357  O475    1.998   1_455 S
Zn357  O470    1.986   1_455 S
Zn358  O469    1.987   1_455 S
Zn358  O472    1.999   1_455 S
C361   O461    1.278   .     A
C361   O471    1.276   .     A
C361   C390    1.407   .     S
C362   H412    1.082   .     S
C362   N321    1.366   1_655 A
C362   C843    1.416   .     S
C363   H423    1.082   .     S
C363   N332    1.366   1_655 A
C363   C1322   1.416   1_554 S
C364   H434    1.082   .     S
C364   C880    1.416   .     S
C364   N441    1.366   .     S
C365   N455    1.366   .     A
C365   H436    1.082   .     S
C365   C1328   1.416   1_554 S
C366   N214    1.366   1_565 A
C366   H437    1.081   .     S
C366   C847    1.415   .     S
C367   H438    1.082   .     S
C367   C1326   1.415   1_554 S
C367   N215    1.366   1_565 S
C368   H439    1.081   .     S
C368   C845    1.416   .     S
C368   N454    1.366   .     S
C369   C380    1.389   .     A
C369   N456    1.438   .     S
C369   C388    1.401   .     A
C370   C387    1.410   .     A
C370   C381    1.388   .     A
C370   N457    1.439   .     S
C371   C378    1.386   .     A
C371   C387    1.412   .     A
C371   N458    1.439   .     S
C372   O470    1.278   .     A
C372   C389    1.408   .     S
C372   O469    1.276   .     A
C373   C379    1.382   .     A
C373   N459    1.437   .     S
C373   C388    1.401   .     A
C374   C390    1.404   .     A
C374   N460    1.437   .     S
C374   C385    1.378   .     A
C375   C389    1.404   .     A
C375   N442    1.437   .     S
C375   C386    1.382   .     A
C376   C389    1.400   .     A
C376   N443    1.437   .     S
C376   C382    1.383   .     A
C377   C390    1.405   .     A
C377   C384    1.377   .     A
C377   N444    1.437   .     S
C378   N445    1.439   .     S
C378   C392    1.411   .     A
C379   N446    1.438   .     S
C379   C391    1.409   .     A
C380   N447    1.438   .     S
C380   C391    1.404   .     A
C381   N448    1.438   .     S
C381   C392    1.411   .     A
C382   C395    1.405   .     A
C382   N449    1.437   .     S
C383   O472    1.280   .     A
C383   C388    1.417   .     S
C383   O475    1.280   .     A
C384   N450    1.437   .     S
C384   C393    1.404   .     A
C385   N451    1.437   .     S
C385   C393    1.405   .     A
C386   N453    1.437   .     S
C386   C395    1.400   .     A
C387   C394    1.443   .     S
C391   C399    1.419   .     S
C392   C398    1.444   .     S
C393   C397    1.408   .     S
C394   O473    1.288   .     A
C394   O474    1.285   .     A
C395   C396    1.408   .     S
C396   O476    1.277   .     A
C396   O464    1.278   .     A
C397   O462    1.278   .     A
C397   O463    1.277   .     A
C398   O465    1.285   .     A
C398   O468    1.288   .     A
C399   O466    1.279   .     A
C399   O467    1.282   .     A
C400   H401    1.082   .     S
C400   C1324   1.416   1_554 S
C400   N452    1.366   .     S
H402   N456    1.045   .     S
H403   N457    1.045   .     S
H404   N457    1.045   .     S
H405   N458    1.045   .     S
H406   N458    1.045   .     S
H407   N459    1.046   .     S
H408   N459    1.046   .     S
H409   N460    1.045   .     S
H410   N460    1.046   .     S
H411   N442    1.046   .     S
H413   N442    1.045   .     S
H414   N443    1.046   .     S
H415   N443    1.046   .     S
H416   N444    1.044   .     S
H417   N444    1.045   .     S
H418   N445    1.045   .     S
H419   N445    1.045   .     S
H420   N446    1.045   .     S
H421   N446    1.045   .     S
H422   N447    1.045   .     S
H424   N447    1.045   .     S
H425   N448    1.045   .     S
H426   N448    1.045   .     S
H427   N449    1.046   .     S
H428   N449    1.044   .     S
H429   N450    1.045   .     S
H430   N450    1.046   .     S
H431   N451    1.044   .     S
H432   N451    1.045   .     S
H433   N453    1.046   .     S
H435   N453    1.046   .     S
H440   N456    1.045   .     S
N441   Zn477   2.008   .     S
N452   Zn478   2.008   .     S
N454   Zn479   2.008   .     S
N455   Zn480   2.008   .     S
O461   Zn477   1.987   .     S
O462   Zn480   1.987   .     S
O463   Zn479   1.986   .     S
O464   Zn240   1.986   1_565 S
O465   Zn240   1.999   1_565 S
O466   Zn479   1.999   .     S
O467   Zn480   1.998   .     S
O468   Zn239   1.998   1_565 S
O469   Zn358   1.987   1_655 S
O470   Zn357   1.986   1_655 S
O471   Zn478   1.986   .     S
O472   Zn358   1.999   1_655 S
O473   Zn477   1.999   .     S
O474   Zn478   1.998   .     S
O475   Zn357   1.998   1_655 S
O476   Zn239   1.987   1_565 S
C481   O581    1.278   .     A
C481   O591    1.276   .     A
C481   C510    1.407   .     S
C482   H532    1.082   .     S
C482   N681    1.366   .     A
C482   C963    1.416   .     S
C483   H543    1.082   .     S
C483   N692    1.366   .     A
C484   H554    1.082   .     S
C484   C1000   1.416   .     S
C484   N561    1.366   .     S
C485   N575    1.366   .     A
C485   H556    1.082   .     S
C486   N814    1.366   .     A
C486   H557    1.081   .     S
C486   C967    1.415   .     S
C487   H558    1.082   .     S
C487   N815    1.366   .     S
C488   H559    1.081   .     S
C488   C965    1.416   .     S
C488   N574    1.366   .     S
C489   C500    1.389   .     A
C489   N576    1.438   .     S
C489   C508    1.401   .     A
C490   C507    1.410   .     A
C490   C501    1.388   .     A
C490   N577    1.439   .     S
C491   C498    1.386   .     A
C491   C507    1.412   .     A
C491   N578    1.439   .     S
C492   O590    1.278   .     A
C492   C509    1.408   .     S
C492   O589    1.276   .     A
C493   C499    1.382   .     A
C493   N579    1.437   .     S
C493   C508    1.401   .     A
C494   C510    1.404   .     A
C494   N580    1.437   .     S
C494   C505    1.378   .     A
C495   C509    1.404   .     A
C495   N562    1.437   .     S
C495   C506    1.382   .     A
C496   C509    1.400   .     A
C496   N563    1.437   .     S
C496   C502    1.383   .     A
C497   C510    1.405   .     A
C497   C504    1.377   .     A
C497   N564    1.437   .     S
C498   N565    1.439   .     S
C498   C512    1.411   .     A
C499   N566    1.438   .     S
C499   C511    1.409   .     A
C500   N567    1.438   .     S
C500   C511    1.404   .     A
C501   N568    1.438   .     S
C501   C512    1.411   .     A
C502   C515    1.405   .     A
C502   N569    1.437   .     S
C503   O592    1.280   .     A
C503   C508    1.417   .     S
C503   O595    1.280   .     A
C504   N570    1.437   .     S
C504   C513    1.404   .     A
C505   N571    1.437   .     S
C505   C513    1.405   .     A
C506   N573    1.437   .     S
C506   C515    1.400   .     A
C507   C514    1.443   .     S
C511   C519    1.419   .     S
C512   C518    1.444   .     S
C513   C517    1.408   .     S
C514   O593    1.288   .     A
C514   O594    1.285   .     A
C515   C516    1.408   .     S
C516   O596    1.277   .     A
C516   O584    1.278   .     A
C517   O582    1.278   .     A
C517   O583    1.277   .     A
C518   O585    1.285   .     A
C518   O588    1.288   .     A
C519   O586    1.279   .     A
C519   O587    1.282   .     A
C520   H521    1.082   .     S
C520   N572    1.366   .     S
H522   N576    1.045   .     S
H523   N577    1.045   .     S
H524   N577    1.045   .     S
H525   N578    1.045   .     S
H526   N578    1.045   .     S
H527   N579    1.046   .     S
H528   N579    1.046   .     S
H529   N580    1.045   .     S
H530   N580    1.046   .     S
H531   N562    1.046   .     S
H533   N562    1.045   .     S
H534   N563    1.046   .     S
H535   N563    1.046   .     S
H536   N564    1.044   .     S
H537   N564    1.045   .     S
H538   N565    1.045   .     S
H539   N565    1.045   .     S
H540   N566    1.045   .     S
H541   N566    1.045   .     S
H542   N567    1.045   .     S
H544   N567    1.045   .     S
H545   N568    1.045   .     S
H546   N568    1.045   .     S
H547   N569    1.046   .     S
H548   N569    1.044   .     S
H549   N570    1.045   .     S
H550   N570    1.046   .     S
H551   N571    1.044   .     S
H552   N571    1.045   .     S
H553   N573    1.046   .     S
H555   N573    1.046   .     S
H560   N576    1.045   .     S
N561   C602    1.366   1_455 A
N561   Zn597   2.008   .     S
N572   Zn598   2.008   .     S
N572   C603    1.366   1_455 A
N574   C726    1.366   1_545 A
N574   Zn599   2.008   .     S
N575   Zn600   2.008   .     S
N575   C727    1.366   1_545 S
O581   Zn597   1.987   .     S
O582   Zn600   1.987   .     S
O583   Zn599   1.986   .     S
O584   Zn840   1.986   .     S
O585   Zn840   1.999   .     S
O586   Zn599   1.999   .     S
O587   Zn600   1.998   .     S
O588   Zn839   1.998   .     S
O589   Zn718   1.987   .     S
O590   Zn717   1.986   .     S
O591   Zn598   1.986   .     S
O592   Zn718   1.999   .     S
O593   Zn597   1.999   .     S
O594   Zn598   1.998   .     S
O595   Zn717   1.998   .     S
O596   Zn839   1.987   .     S
Zn597  O715    1.998   1_455 S
Zn597  O710    1.986   1_455 S
Zn598  O709    1.987   1_455 S
Zn598  O712    1.999   1_455 S
Zn599  O828    1.998   1_545 S
Zn599  O836    1.987   1_545 S
Zn600  O825    1.999   1_545 S
Zn600  O824    1.986   1_545 S
C601   O701    1.278   .     A
C601   O711    1.276   .     A
C601   C630    1.407   .     S
C602   H652    1.082   .     S
C602   N561    1.366   1_655 A
C602   C1083   1.416   .     S
C603   H663    1.082   .     S
C603   N572    1.366   1_655 A
C604   H674    1.082   .     S
C604   C1120   1.416   .     S
C604   N681    1.366   .     S
C605   N695    1.366   .     A
C605   H676    1.082   .     S
C606   N934    1.366   .     A
C606   H677    1.081   .     S
C606   C1087   1.415   .     S
C607   H678    1.082   .     S
C607   N935    1.366   .     S
C608   H679    1.081   .     S
C608   C1085   1.416   .     S
C608   N694    1.366   .     S
C609   C620    1.389   .     A
C609   N696    1.438   .     S
C609   C628    1.401   .     A
C610   C627    1.410   .     A
C610   C621    1.388   .     A
C610   N697    1.439   .     S
C611   C618    1.386   .     A
C611   C627    1.412   .     A
C611   N698    1.439   .     S
C612   O710    1.278   .     A
C612   C629    1.408   .     S
C612   O709    1.276   .     A
C613   C619    1.382   .     A
C613   N699    1.437   .     S
C613   C628    1.401   .     A
C614   C630    1.404   .     A
C614   N700    1.437   .     S
C614   C625    1.378   .     A
C615   C629    1.404   .     A
C615   N682    1.437   .     S
C615   C626    1.382   .     A
C616   C629    1.400   .     A
C616   N683    1.437   .     S
C616   C622    1.383   .     A
C617   C630    1.405   .     A
C617   C624    1.377   .     A
C617   N684    1.437   .     S
C618   N685    1.439   .     S
C618   C632    1.411   .     A
C619   N686    1.438   .     S
C619   C631    1.409   .     A
C620   N687    1.438   .     S
C620   C631    1.404   .     A
C621   N688    1.438   .     S
C621   C632    1.411   .     A
C622   C635    1.405   .     A
C622   N689    1.437   .     S
C623   O712    1.280   .     A
C623   C628    1.417   .     S
C623   O715    1.280   .     A
C624   N690    1.437   .     S
C624   C633    1.404   .     A
C625   N691    1.437   .     S
C625   C633    1.405   .     A
C626   N693    1.437   .     S
C626   C635    1.400   .     A
C627   C634    1.443   .     S
C631   C639    1.419   .     S
C632   C638    1.444   .     S
C633   C637    1.408   .     S
C634   O713    1.288   .     A
C634   O714    1.285   .     A
C635   C636    1.408   .     S
C636   O716    1.277   .     A
C636   O704    1.278   .     A
C637   O702    1.278   .     A
C637   O703    1.277   .     A
C638   O705    1.285   .     A
C638   O708    1.288   .     A
C639   O706    1.279   .     A
C639   O707    1.282   .     A
C640   H641    1.082   .     S
C640   N692    1.366   .     S
H642   N696    1.045   .     S
H643   N697    1.045   .     S
H644   N697    1.045   .     S
H645   N698    1.045   .     S
H646   N698    1.045   .     S
H647   N699    1.046   .     S
H648   N699    1.046   .     S
H649   N700    1.045   .     S
H650   N700    1.046   .     S
H651   N682    1.046   .     S
H653   N682    1.045   .     S
H654   N683    1.046   .     S
H655   N683    1.046   .     S
H656   N684    1.044   .     S
H657   N684    1.045   .     S
H658   N685    1.045   .     S
H659   N685    1.045   .     S
H660   N686    1.045   .     S
H661   N686    1.045   .     S
H662   N687    1.045   .     S
H664   N687    1.045   .     S
H665   N688    1.045   .     S
H666   N688    1.045   .     S
H667   N689    1.046   .     S
H668   N689    1.044   .     S
H669   N690    1.045   .     S
H670   N690    1.046   .     S
H671   N691    1.044   .     S
H672   N691    1.045   .     S
H673   N693    1.046   .     S
H675   N693    1.046   .     S
H680   N696    1.045   .     S
N681   Zn717   2.008   .     S
N692   Zn718   2.008   .     S
N694   C846    1.366   1_545 A
N694   Zn719   2.008   .     S
N695   Zn720   2.008   .     S
N695   C847    1.366   1_545 S
O701   Zn717   1.987   .     S
O702   Zn720   1.987   .     S
O703   Zn719   1.986   .     S
O704   Zn960   1.986   .     S
O705   Zn960   1.999   .     S
O706   Zn719   1.999   .     S
O707   Zn720   1.998   .     S
O708   Zn959   1.998   .     S
O709   Zn598   1.987   1_655 S
O710   Zn597   1.986   1_655 S
O711   Zn718   1.986   .     S
O712   Zn598   1.999   1_655 S
O713   Zn717   1.999   .     S
O714   Zn718   1.998   .     S
O715   Zn597   1.998   1_655 S
O716   Zn959   1.987   .     S
Zn719  O948    1.998   1_545 S
Zn719  O956    1.987   1_545 S
Zn720  O945    1.999   1_545 S
Zn720  O944    1.986   1_545 S
C721   O821    1.278   .     A
C721   O831    1.276   .     A
C721   C750    1.407   .     S
C722   H772    1.082   .     S
C722   N921    1.366   .     A
C722   C1203   1.416   .     S
C723   H783    1.082   .     S
C723   N932    1.366   .     A
C724   H794    1.082   .     S
C724   C1240   1.416   .     S
C724   N801    1.366   .     S
C725   N815    1.366   .     A
C725   H796    1.082   .     S
C726   N574    1.366   1_565 A
C726   H797    1.081   .     S
C726   C1207   1.415   .     S
C727   H798    1.082   .     S
C727   N575    1.366   1_565 S
C728   H799    1.081   .     S
C728   C1205   1.416   .     S
C728   N814    1.366   .     S
C729   C740    1.389   .     A
C729   N816    1.438   .     S
C729   C748    1.401   .     A
C730   C747    1.410   .     A
C730   C741    1.388   .     A
C730   N817    1.439   .     S
C731   C738    1.386   .     A
C731   C747    1.412   .     A
C731   N818    1.439   .     S
C732   O830    1.278   .     A
C732   C749    1.408   .     S
C732   O829    1.276   .     A
C733   C739    1.382   .     A
C733   N819    1.437   .     S
C733   C748    1.401   .     A
C734   C750    1.404   .     A
C734   N820    1.437   .     S
C734   C745    1.378   .     A
C735   C749    1.404   .     A
C735   N802    1.437   .     S
C735   C746    1.382   .     A
C736   C749    1.400   .     A
C736   N803    1.437   .     S
C736   C742    1.383   .     A
C737   C750    1.405   .     A
C737   C744    1.377   .     A
C737   N804    1.437   .     S
C738   N805    1.439   .     S
C738   C752    1.411   .     A
C739   N806    1.438   .     S
C739   C751    1.409   .     A
C740   N807    1.438   .     S
C740   C751    1.404   .     A
C741   N808    1.438   .     S
C741   C752    1.411   .     A
C742   C755    1.405   .     A
C742   N809    1.437   .     S
C743   O832    1.280   .     A
C743   C748    1.417   .     S
C743   O835    1.280   .     A
C744   N810    1.437   .     S
C744   C753    1.404   .     A
C745   N811    1.437   .     S
C745   C753    1.405   .     A
C746   N813    1.437   .     S
C746   C755    1.400   .     A
C747   C754    1.443   .     S
C751   C759    1.419   .     S
C752   C758    1.444   .     S
C753   C757    1.408   .     S
C754   O833    1.288   .     A
C754   O834    1.285   .     A
C755   C756    1.408   .     S
C756   O836    1.277   .     A
C756   O824    1.278   .     A
C757   O822    1.278   .     A
C757   O823    1.277   .     A
C758   O825    1.285   .     A
C758   O828    1.288   .     A
C759   O826    1.279   .     A
C759   O827    1.282   .     A
C760   H761    1.082   .     S
C760   N812    1.366   .     S
H762   N816    1.045   .     S
H763   N817    1.045   .     S
H764   N817    1.045   .     S
H765   N818    1.045   .     S
H766   N818    1.045   .     S
H767   N819    1.046   .     S
H768   N819    1.046   .     S
H769   N820    1.045   .     S
H770   N820    1.046   .     S
H771   N802    1.046   .     S
H773   N802    1.045   .     S
H774   N803    1.046   .     S
H775   N803    1.046   .     S
H776   N804    1.044   .     S
H777   N804    1.045   .     S
H778   N805    1.045   .     S
H779   N805    1.045   .     S
H780   N806    1.045   .     S
H781   N806    1.045   .     S
H782   N807    1.045   .     S
H784   N807    1.045   .     S
H785   N808    1.045   .     S
H786   N808    1.045   .     S
H787   N809    1.046   .     S
H788   N809    1.044   .     S
H789   N810    1.045   .     S
H790   N810    1.046   .     S
H791   N811    1.044   .     S
H792   N811    1.045   .     S
H793   N813    1.046   .     S
H795   N813    1.046   .     S
H800   N816    1.045   .     S
N801   C842    1.366   1_455 A
N801   Zn837   2.008   .     S
N812   Zn838   2.008   .     S
N812   C843    1.366   1_455 A
N814   Zn839   2.008   .     S
N815   Zn840   2.008   .     S
O821   Zn837   1.987   .     S
O822   Zn840   1.987   .     S
O823   Zn839   1.986   .     S
O824   Zn600   1.986   1_565 S
O825   Zn600   1.999   1_565 S
O826   Zn839   1.999   .     S
O827   Zn840   1.998   .     S
O828   Zn599   1.998   1_565 S
O829   Zn958   1.987   .     S
O830   Zn957   1.986   .     S
O831   Zn838   1.986   .     S
O832   Zn958   1.999   .     S
O833   Zn837   1.999   .     S
O834   Zn838   1.998   .     S
O835   Zn957   1.998   .     S
O836   Zn599   1.987   1_565 S
Zn837  O955    1.998   1_455 S
Zn837  O950    1.986   1_455 S
Zn838  O949    1.987   1_455 S
Zn838  O952    1.999   1_455 S
C841   O941    1.278   .     A
C841   O951    1.276   .     A
C841   C870    1.407   .     S
C842   H892    1.082   .     S
C842   N801    1.366   1_655 A
C842   C1323   1.416   .     S
C843   H903    1.082   .     S
C843   N812    1.366   1_655 A
C844   H914    1.082   .     S
C844   C1360   1.416   .     S
C844   N921    1.366   .     S
C845   N935    1.366   .     A
C845   H916    1.082   .     S
C846   N694    1.366   1_565 A
C846   H917    1.081   .     S
C846   C1327   1.415   .     S
C847   H918    1.082   .     S
C847   N695    1.366   1_565 S
C848   H919    1.081   .     S
C848   C1325   1.416   .     S
C848   N934    1.366   .     S
C849   C860    1.389   .     A
C849   N936    1.438   .     S
C849   C868    1.401   .     A
C850   C867    1.410   .     A
C850   C861    1.388   .     A
C850   N937    1.439   .     S
C851   C858    1.386   .     A
C851   C867    1.412   .     A
C851   N938    1.439   .     S
C852   O950    1.278   .     A
C852   C869    1.408   .     S
C852   O949    1.276   .     A
C853   C859    1.382   .     A
C853   N939    1.437   .     S
C853   C868    1.401   .     A
C854   C870    1.404   .     A
C854   N940    1.437   .     S
C854   C865    1.378   .     A
C855   C869    1.404   .     A
C855   N922    1.437   .     S
C855   C866    1.382   .     A
C856   C869    1.400   .     A
C856   N923    1.437   .     S
C856   C862    1.383   .     A
C857   C870    1.405   .     A
C857   C864    1.377   .     A
C857   N924    1.437   .     S
C858   N925    1.439   .     S
C858   C872    1.411   .     A
C859   N926    1.438   .     S
C859   C871    1.409   .     A
C860   N927    1.438   .     S
C860   C871    1.404   .     A
C861   N928    1.438   .     S
C861   C872    1.411   .     A
C862   C875    1.405   .     A
C862   N929    1.437   .     S
C863   O952    1.280   .     A
C863   C868    1.417   .     S
C863   O955    1.280   .     A
C864   N930    1.437   .     S
C864   C873    1.404   .     A
C865   N931    1.437   .     S
C865   C873    1.405   .     A
C866   N933    1.437   .     S
C866   C875    1.400   .     A
C867   C874    1.443   .     S
C871   C879    1.419   .     S
C872   C878    1.444   .     S
C873   C877    1.408   .     S
C874   O953    1.288   .     A
C874   O954    1.285   .     A
C875   C876    1.408   .     S
C876   O956    1.277   .     A
C876   O944    1.278   .     A
C877   O942    1.278   .     A
C877   O943    1.277   .     A
C878   O945    1.285   .     A
C878   O948    1.288   .     A
C879   O946    1.279   .     A
C879   O947    1.282   .     A
C880   H881    1.082   .     S
C880   N932    1.366   .     S
H882   N936    1.045   .     S
H883   N937    1.045   .     S
H884   N937    1.045   .     S
H885   N938    1.045   .     S
H886   N938    1.045   .     S
H887   N939    1.046   .     S
H888   N939    1.046   .     S
H889   N940    1.045   .     S
H890   N940    1.046   .     S
H891   N922    1.046   .     S
H893   N922    1.045   .     S
H894   N923    1.046   .     S
H895   N923    1.046   .     S
H896   N924    1.044   .     S
H897   N924    1.045   .     S
H898   N925    1.045   .     S
H899   N925    1.045   .     S
H900   N926    1.045   .     S
H901   N926    1.045   .     S
H902   N927    1.045   .     S
H904   N927    1.045   .     S
H905   N928    1.045   .     S
H906   N928    1.045   .     S
H907   N929    1.046   .     S
H908   N929    1.044   .     S
H909   N930    1.045   .     S
H910   N930    1.046   .     S
H911   N931    1.044   .     S
H912   N931    1.045   .     S
H913   N933    1.046   .     S
H915   N933    1.046   .     S
H920   N936    1.045   .     S
N921   Zn957   2.008   .     S
N932   Zn958   2.008   .     S
N934   Zn959   2.008   .     S
N935   Zn960   2.008   .     S
O941   Zn957   1.987   .     S
O942   Zn960   1.987   .     S
O943   Zn959   1.986   .     S
O944   Zn720   1.986   1_565 S
O945   Zn720   1.999   1_565 S
O946   Zn959   1.999   .     S
O947   Zn960   1.998   .     S
O948   Zn719   1.998   1_565 S
O949   Zn838   1.987   1_655 S
O950   Zn837   1.986   1_655 S
O951   Zn958   1.986   .     S
O952   Zn838   1.999   1_655 S
O953   Zn957   1.999   .     S
O954   Zn958   1.998   .     S
O955   Zn837   1.998   1_655 S
O956   Zn719   1.987   1_565 S
C961   O1061   1.278   .     A
C961   O1071   1.276   .     A
C961   C990    1.407   .     S
C962   H1012   1.082   .     S
C962   N1161   1.366   .     A
C962   C3      1.416   1_556 S
C963   H1023   1.082   .     S
C963   N1172   1.366   .     A
C964   H1034   1.082   .     S
C964   C40     1.416   1_556 S
C964   N1041   1.366   .     S
C965   N1055   1.366   .     A
C965   H1036   1.082   .     S
C966   N1294   1.366   .     A
C966   H1037   1.081   .     S
C966   C7      1.415   1_556 S
C967   H1038   1.082   .     S
C967   N1295   1.366   .     S
C968   H1039   1.081   .     S
C968   C5      1.416   1_556 S
C968   N1054   1.366   .     S
C969   C980    1.389   .     A
C969   N1056   1.438   .     S
C969   C988    1.401   .     A
C970   C987    1.410   .     A
C970   C981    1.388   .     A
C970   N1057   1.439   .     S
C971   C978    1.386   .     A
C971   C987    1.412   .     A
C971   N1058   1.439   .     S
C972   O1070   1.278   .     A
C972   C989    1.408   .     S
C972   O1069   1.276   .     A
C973   C979    1.382   .     A
C973   N1059   1.437   .     S
C973   C988    1.401   .     A
C974   C990    1.404   .     A
C974   N1060   1.437   .     S
C974   C985    1.378   .     A
C975   C989    1.404   .     A
C975   N1042   1.437   .     S
C975   C986    1.382   .     A
C976   C989    1.400   .     A
C976   N1043   1.437   .     S
C976   C982    1.383   .     A
C977   C990    1.405   .     A
C977   C984    1.377   .     A
C977   N1044   1.437   .     S
C978   N1045   1.439   .     S
C978   C992    1.411   .     A
C979   N1046   1.438   .     S
C979   C991    1.409   .     A
C980   N1047   1.438   .     S
C980   C991    1.404   .     A
C981   N1048   1.438   .     S
C981   C992    1.411   .     A
C982   C995    1.405   .     A
C982   N1049   1.437   .     S
C983   O1072   1.280   .     A
C983   C988    1.417   .     S
C983   O1075   1.280   .     A
C984   N1050   1.437   .     S
C984   C993    1.404   .     A
C985   N1051   1.437   .     S
C985   C993    1.405   .     A
C986   N1053   1.437   .     S
C986   C995    1.400   .     A
C987   C994    1.443   .     S
C991   C999    1.419   .     S
C992   C998    1.444   .     S
C993   C997    1.408   .     S
C994   O1073   1.288   .     A
C994   O1074   1.285   .     A
C995   C996    1.408   .     S
C996   O1076   1.277   .     A
C996   O1064   1.278   .     A
C997   O1062   1.278   .     A
C997   O1063   1.277   .     A
C998   O1065   1.285   .     A
C998   O1068   1.288   .     A
C999   O1066   1.279   .     A
C999   O1067   1.282   .     A
C1000  H1001   1.082   .     S
C1000  N1052   1.366   .     S
H1002  N1056   1.045   .     S
H1003  N1057   1.045   .     S
H1004  N1057   1.045   .     S
H1005  N1058   1.045   .     S
H1006  N1058   1.045   .     S
H1007  N1059   1.046   .     S
H1008  N1059   1.046   .     S
H1009  N1060   1.045   .     S
H1010  N1060   1.046   .     S
H1011  N1042   1.046   .     S
H1013  N1042   1.045   .     S
H1014  N1043   1.046   .     S
H1015  N1043   1.046   .     S
H1016  N1044   1.044   .     S
H1017  N1044   1.045   .     S
H1018  N1045   1.045   .     S
H1019  N1045   1.045   .     S
H1020  N1046   1.045   .     S
H1021  N1046   1.045   .     S
H1022  N1047   1.045   .     S
H1024  N1047   1.045   .     S
H1025  N1048   1.045   .     S
H1026  N1048   1.045   .     S
H1027  N1049   1.046   .     S
H1028  N1049   1.044   .     S
H1029  N1050   1.045   .     S
H1030  N1050   1.046   .     S
H1031  N1051   1.044   .     S
H1032  N1051   1.045   .     S
H1033  N1053   1.046   .     S
H1035  N1053   1.046   .     S
H1040  N1056   1.045   .     S
N1041  C1082   1.366   1_455 A
N1041  Zn1077  2.008   .     S
N1052  Zn1078  2.008   .     S
N1052  C1083   1.366   1_455 A
N1054  C1206   1.366   1_545 A
N1054  Zn1079  2.008   .     S
N1055  Zn1080  2.008   .     S
N1055  C1207   1.366   1_545 S
O1061  Zn1077  1.987   .     S
O1062  Zn1080  1.987   .     S
O1063  Zn1079  1.986   .     S
O1064  Zn1320  1.986   .     S
O1065  Zn1320  1.999   .     S
O1066  Zn1079  1.999   .     S
O1067  Zn1080  1.998   .     S
O1068  Zn1319  1.998   .     S
O1069  Zn1198  1.987   .     S
O1070  Zn1197  1.986   .     S
O1071  Zn1078  1.986   .     S
O1072  Zn1198  1.999   .     S
O1073  Zn1077  1.999   .     S
O1074  Zn1078  1.998   .     S
O1075  Zn1197  1.998   .     S
O1076  Zn1319  1.987   .     S
Zn1077 O1195   1.998   1_455 S
Zn1077 O1190   1.986   1_455 S
Zn1078 O1189   1.987   1_455 S
Zn1078 O1192   1.999   1_455 S
Zn1079 O1308   1.998   1_545 S
Zn1079 O1316   1.987   1_545 S
Zn1080 O1305   1.999   1_545 S
Zn1080 O1304   1.986   1_545 S
C1081  O1181   1.278   .     A
C1081  O1191   1.276   .     A
C1081  C1110   1.407   .     S
C1082  H1132   1.082   .     S
C1082  N1041   1.366   1_655 A
C1082  C123    1.416   1_556 S
C1083  H1143   1.082   .     S
C1083  N1052   1.366   1_655 A
C1084  H1154   1.082   .     S
C1084  C160    1.416   1_556 S
C1084  N1161   1.366   .     S
C1085  N1175   1.366   .     A
C1085  H1156   1.082   .     S
C1086  N1414   1.366   .     A
C1086  H1157   1.081   .     S
C1086  C127    1.415   1_556 S
C1087  H1158   1.082   .     S
C1087  N1415   1.366   .     S
C1088  H1159   1.081   .     S
C1088  C125    1.416   1_556 S
C1088  N1174   1.366   .     S
C1089  C1100   1.389   .     A
C1089  N1176   1.438   .     S
C1089  C1108   1.401   .     A
C1090  C1107   1.410   .     A
C1090  C1101   1.388   .     A
C1090  N1177   1.439   .     S
C1091  C1098   1.386   .     A
C1091  C1107   1.412   .     A
C1091  N1178   1.439   .     S
C1092  O1190   1.278   .     A
C1092  C1109   1.408   .     S
C1092  O1189   1.276   .     A
C1093  C1099   1.382   .     A
C1093  N1179   1.437   .     S
C1093  C1108   1.401   .     A
C1094  C1110   1.404   .     A
C1094  N1180   1.437   .     S
C1094  C1105   1.378   .     A
C1095  C1109   1.404   .     A
C1095  N1162   1.437   .     S
C1095  C1106   1.382   .     A
C1096  C1109   1.400   .     A
C1096  N1163   1.437   .     S
C1096  C1102   1.383   .     A
C1097  C1110   1.405   .     A
C1097  C1104   1.377   .     A
C1097  N1164   1.437   .     S
C1098  N1165   1.439   .     S
C1098  C1112   1.411   .     A
C1099  N1166   1.438   .     S
C1099  C1111   1.409   .     A
C1100  N1167   1.438   .     S
C1100  C1111   1.404   .     A
C1101  N1168   1.438   .     S
C1101  C1112   1.411   .     A
C1102  C1115   1.405   .     A
C1102  N1169   1.437   .     S
C1103  O1192   1.280   .     A
C1103  C1108   1.417   .     S
C1103  O1195   1.280   .     A
C1104  N1170   1.437   .     S
C1104  C1113   1.404   .     A
C1105  N1171   1.437   .     S
C1105  C1113   1.405   .     A
C1106  N1173   1.437   .     S
C1106  C1115   1.400   .     A
C1107  C1114   1.443   .     S
C1111  C1119   1.419   .     S
C1112  C1118   1.444   .     S
C1113  C1117   1.408   .     S
C1114  O1193   1.288   .     A
C1114  O1194   1.285   .     A
C1115  C1116   1.408   .     S
C1116  O1196   1.277   .     A
C1116  O1184   1.278   .     A
C1117  O1182   1.278   .     A
C1117  O1183   1.277   .     A
C1118  O1185   1.285   .     A
C1118  O1188   1.288   .     A
C1119  O1186   1.279   .     A
C1119  O1187   1.282   .     A
C1120  H1121   1.082   .     S
C1120  N1172   1.366   .     S
H1122  N1176   1.045   .     S
H1123  N1177   1.045   .     S
H1124  N1177   1.045   .     S
H1125  N1178   1.045   .     S
H1126  N1178   1.045   .     S
H1127  N1179   1.046   .     S
H1128  N1179   1.046   .     S
H1129  N1180   1.045   .     S
H1130  N1180   1.046   .     S
H1131  N1162   1.046   .     S
H1133  N1162   1.045   .     S
H1134  N1163   1.046   .     S
H1135  N1163   1.046   .     S
H1136  N1164   1.044   .     S
H1137  N1164   1.045   .     S
H1138  N1165   1.045   .     S
H1139  N1165   1.045   .     S
H1140  N1166   1.045   .     S
H1141  N1166   1.045   .     S
H1142  N1167   1.045   .     S
H1144  N1167   1.045   .     S
H1145  N1168   1.045   .     S
H1146  N1168   1.045   .     S
H1147  N1169   1.046   .     S
H1148  N1169   1.044   .     S
H1149  N1170   1.045   .     S
H1150  N1170   1.046   .     S
H1151  N1171   1.044   .     S
H1152  N1171   1.045   .     S
H1153  N1173   1.046   .     S
H1155  N1173   1.046   .     S
H1160  N1176   1.045   .     S
N1161  Zn1197  2.008   .     S
N1172  Zn1198  2.008   .     S
N1174  C1326   1.366   1_545 A
N1174  Zn1199  2.008   .     S
N1175  Zn1200  2.008   .     S
N1175  C1327   1.366   1_545 S
O1181  Zn1197  1.987   .     S
O1182  Zn1200  1.987   .     S
O1183  Zn1199  1.986   .     S
O1184  Zn1440  1.986   .     S
O1185  Zn1440  1.999   .     S
O1186  Zn1199  1.999   .     S
O1187  Zn1200  1.998   .     S
O1188  Zn1439  1.998   .     S
O1189  Zn1078  1.987   1_655 S
O1190  Zn1077  1.986   1_655 S
O1191  Zn1198  1.986   .     S
O1192  Zn1078  1.999   1_655 S
O1193  Zn1197  1.999   .     S
O1194  Zn1198  1.998   .     S
O1195  Zn1077  1.998   1_655 S
O1196  Zn1439  1.987   .     S
Zn1199 O1428   1.998   1_545 S
Zn1199 O1436   1.987   1_545 S
Zn1200 O1425   1.999   1_545 S
Zn1200 O1424   1.986   1_545 S
C1201  O1301   1.278   .     A
C1201  O1311   1.276   .     A
C1201  C1230   1.407   .     S
C1202  H1252   1.082   .     S
C1202  N1401   1.366   .     A
C1202  C243    1.416   1_556 S
C1203  H1263   1.082   .     S
C1203  N1412   1.366   .     A
C1204  H1274   1.082   .     S
C1204  C280    1.416   1_556 S
C1204  N1281   1.366   .     S
C1205  N1295   1.366   .     A
C1205  H1276   1.082   .     S
C1206  N1054   1.366   1_565 A
C1206  H1277   1.081   .     S
C1206  C247    1.415   1_556 S
C1207  H1278   1.082   .     S
C1207  N1055   1.366   1_565 S
C1208  H1279   1.081   .     S
C1208  C245    1.416   1_556 S
C1208  N1294   1.366   .     S
C1209  C1220   1.389   .     A
C1209  N1296   1.438   .     S
C1209  C1228   1.401   .     A
C1210  C1227   1.410   .     A
C1210  C1221   1.388   .     A
C1210  N1297   1.439   .     S
C1211  C1218   1.386   .     A
C1211  C1227   1.412   .     A
C1211  N1298   1.439   .     S
C1212  O1310   1.278   .     A
C1212  C1229   1.408   .     S
C1212  O1309   1.276   .     A
C1213  C1219   1.382   .     A
C1213  N1299   1.437   .     S
C1213  C1228   1.401   .     A
C1214  C1230   1.404   .     A
C1214  N1300   1.437   .     S
C1214  C1225   1.378   .     A
C1215  C1229   1.404   .     A
C1215  N1282   1.437   .     S
C1215  C1226   1.382   .     A
C1216  C1229   1.400   .     A
C1216  N1283   1.437   .     S
C1216  C1222   1.383   .     A
C1217  C1230   1.405   .     A
C1217  C1224   1.377   .     A
C1217  N1284   1.437   .     S
C1218  N1285   1.439   .     S
C1218  C1232   1.411   .     A
C1219  N1286   1.438   .     S
C1219  C1231   1.409   .     A
C1220  N1287   1.438   .     S
C1220  C1231   1.404   .     A
C1221  N1288   1.438   .     S
C1221  C1232   1.411   .     A
C1222  C1235   1.405   .     A
C1222  N1289   1.437   .     S
C1223  O1312   1.280   .     A
C1223  C1228   1.417   .     S
C1223  O1315   1.280   .     A
C1224  N1290   1.437   .     S
C1224  C1233   1.404   .     A
C1225  N1291   1.437   .     S
C1225  C1233   1.405   .     A
C1226  N1293   1.437   .     S
C1226  C1235   1.400   .     A
C1227  C1234   1.443   .     S
C1231  C1239   1.419   .     S
C1232  C1238   1.444   .     S
C1233  C1237   1.408   .     S
C1234  O1313   1.288   .     A
C1234  O1314   1.285   .     A
C1235  C1236   1.408   .     S
C1236  O1316   1.277   .     A
C1236  O1304   1.278   .     A
C1237  O1302   1.278   .     A
C1237  O1303   1.277   .     A
C1238  O1305   1.285   .     A
C1238  O1308   1.288   .     A
C1239  O1306   1.279   .     A
C1239  O1307   1.282   .     A
C1240  H1241   1.082   .     S
C1240  N1292   1.366   .     S
H1242  N1296   1.045   .     S
H1243  N1297   1.045   .     S
H1244  N1297   1.045   .     S
H1245  N1298   1.045   .     S
H1246  N1298   1.045   .     S
H1247  N1299   1.046   .     S
H1248  N1299   1.046   .     S
H1249  N1300   1.045   .     S
H1250  N1300   1.046   .     S
H1251  N1282   1.046   .     S
H1253  N1282   1.045   .     S
H1254  N1283   1.046   .     S
H1255  N1283   1.046   .     S
H1256  N1284   1.044   .     S
H1257  N1284   1.045   .     S
H1258  N1285   1.045   .     S
H1259  N1285   1.045   .     S
H1260  N1286   1.045   .     S
H1261  N1286   1.045   .     S
H1262  N1287   1.045   .     S
H1264  N1287   1.045   .     S
H1265  N1288   1.045   .     S
H1266  N1288   1.045   .     S
H1267  N1289   1.046   .     S
H1268  N1289   1.044   .     S
H1269  N1290   1.045   .     S
H1270  N1290   1.046   .     S
H1271  N1291   1.044   .     S
H1272  N1291   1.045   .     S
H1273  N1293   1.046   .     S
H1275  N1293   1.046   .     S
H1280  N1296   1.045   .     S
N1281  C1322   1.366   1_455 A
N1281  Zn1317  2.008   .     S
N1292  Zn1318  2.008   .     S
N1292  C1323   1.366   1_455 A
N1294  Zn1319  2.008   .     S
N1295  Zn1320  2.008   .     S
O1301  Zn1317  1.987   .     S
O1302  Zn1320  1.987   .     S
O1303  Zn1319  1.986   .     S
O1304  Zn1080  1.986   1_565 S
O1305  Zn1080  1.999   1_565 S
O1306  Zn1319  1.999   .     S
O1307  Zn1320  1.998   .     S
O1308  Zn1079  1.998   1_565 S
O1309  Zn1438  1.987   .     S
O1310  Zn1437  1.986   .     S
O1311  Zn1318  1.986   .     S
O1312  Zn1438  1.999   .     S
O1313  Zn1317  1.999   .     S
O1314  Zn1318  1.998   .     S
O1315  Zn1437  1.998   .     S
O1316  Zn1079  1.987   1_565 S
Zn1317 O1435   1.998   1_455 S
Zn1317 O1430   1.986   1_455 S
Zn1318 O1429   1.987   1_455 S
Zn1318 O1432   1.999   1_455 S
C1321  O1421   1.278   .     A
C1321  O1431   1.276   .     A
C1321  C1350   1.407   .     S
C1322  H1372   1.082   .     S
C1322  N1281   1.366   1_655 A
C1322  C363    1.416   1_556 S
C1323  H1383   1.082   .     S
C1323  N1292   1.366   1_655 A
C1324  H1394   1.082   .     S
C1324  C400    1.416   1_556 S
C1324  N1401   1.366   .     S
C1325  N1415   1.366   .     A
C1325  H1396   1.082   .     S
C1326  N1174   1.366   1_565 A
C1326  H1397   1.081   .     S
C1326  C367    1.415   1_556 S
C1327  H1398   1.082   .     S
C1327  N1175   1.366   1_565 S
C1328  H1399   1.081   .     S
C1328  C365    1.416   1_556 S
C1328  N1414   1.366   .     S
C1329  C1340   1.389   .     A
C1329  N1416   1.438   .     S
C1329  C1348   1.401   .     A
C1330  C1347   1.410   .     A
C1330  C1341   1.388   .     A
C1330  N1417   1.439   .     S
C1331  C1338   1.386   .     A
C1331  C1347   1.412   .     A
C1331  N1418   1.439   .     S
C1332  O1430   1.278   .     A
C1332  C1349   1.408   .     S
C1332  O1429   1.276   .     A
C1333  C1339   1.382   .     A
C1333  N1419   1.437   .     S
C1333  C1348   1.401   .     A
C1334  C1350   1.404   .     A
C1334  N1420   1.437   .     S
C1334  C1345   1.378   .     A
C1335  C1349   1.404   .     A
C1335  N1402   1.437   .     S
C1335  C1346   1.382   .     A
C1336  C1349   1.400   .     A
C1336  N1403   1.437   .     S
C1336  C1342   1.383   .     A
C1337  C1350   1.405   .     A
C1337  C1344   1.377   .     A
C1337  N1404   1.437   .     S
C1338  N1405   1.439   .     S
C1338  C1352   1.411   .     A
C1339  N1406   1.438   .     S
C1339  C1351   1.409   .     A
C1340  N1407   1.438   .     S
C1340  C1351   1.404   .     A
C1341  N1408   1.438   .     S
C1341  C1352   1.411   .     A
C1342  C1355   1.405   .     A
C1342  N1409   1.437   .     S
C1343  O1432   1.280   .     A
C1343  C1348   1.417   .     S
C1343  O1435   1.280   .     A
C1344  N1410   1.437   .     S
C1344  C1353   1.404   .     A
C1345  N1411   1.437   .     S
C1345  C1353   1.405   .     A
C1346  N1413   1.437   .     S
C1346  C1355   1.400   .     A
C1347  C1354   1.443   .     S
C1351  C1359   1.419   .     S
C1352  C1358   1.444   .     S
C1353  C1357   1.408   .     S
C1354  O1433   1.288   .     A
C1354  O1434   1.285   .     A
C1355  C1356   1.408   .     S
C1356  O1436   1.277   .     A
C1356  O1424   1.278   .     A
C1357  O1422   1.278   .     A
C1357  O1423   1.277   .     A
C1358  O1425   1.285   .     A
C1358  O1428   1.288   .     A
C1359  O1426   1.279   .     A
C1359  O1427   1.282   .     A
C1360  H1361   1.082   .     S
C1360  N1412   1.366   .     S
H1362  N1416   1.045   .     S
H1363  N1417   1.045   .     S
H1364  N1417   1.045   .     S
H1365  N1418   1.045   .     S
H1366  N1418   1.045   .     S
H1367  N1419   1.046   .     S
H1368  N1419   1.046   .     S
H1369  N1420   1.045   .     S
H1370  N1420   1.046   .     S
H1371  N1402   1.046   .     S
H1373  N1402   1.045   .     S
H1374  N1403   1.046   .     S
H1375  N1403   1.046   .     S
H1376  N1404   1.044   .     S
H1377  N1404   1.045   .     S
H1378  N1405   1.045   .     S
H1379  N1405   1.045   .     S
H1380  N1406   1.045   .     S
H1381  N1406   1.045   .     S
H1382  N1407   1.045   .     S
H1384  N1407   1.045   .     S
H1385  N1408   1.045   .     S
H1386  N1408   1.045   .     S
H1387  N1409   1.046   .     S
H1388  N1409   1.044   .     S
H1389  N1410   1.045   .     S
H1390  N1410   1.046   .     S
H1391  N1411   1.044   .     S
H1392  N1411   1.045   .     S
H1393  N1413   1.046   .     S
H1395  N1413   1.046   .     S
H1400  N1416   1.045   .     S
N1401  Zn1437  2.008   .     S
N1412  Zn1438  2.008   .     S
N1414  Zn1439  2.008   .     S
N1415  Zn1440  2.008   .     S
O1421  Zn1437  1.987   .     S
O1422  Zn1440  1.987   .     S
O1423  Zn1439  1.986   .     S
O1424  Zn1200  1.986   1_565 S
O1425  Zn1200  1.999   1_565 S
O1426  Zn1439  1.999   .     S
O1427  Zn1440  1.998   .     S
O1428  Zn1199  1.998   1_565 S
O1429  Zn1318  1.987   1_655 S
O1430  Zn1317  1.986   1_655 S
O1431  Zn1438  1.986   .     S
O1432  Zn1318  1.999   1_655 S
O1433  Zn1437  1.999   .     S
O1434  Zn1438  1.998   .     S
O1435  Zn1317  1.998   1_655 S
O1436  Zn1199  1.987   1_565 S
