data_str_m1_o10_o18_pcu_sym.2
_audit_creation_date              2020-01-03
_audit_creation_method            'Materials Studio'
_symmetry_space_group_name_H-M    'P1'
_symmetry_Int_Tables_number       1
_symmetry_cell_setting            triclinic
loop_
_symmetry_equiv_pos_as_xyz
  x,y,z
_cell_length_a                    32.5027
_cell_length_b                    32.7712
_cell_length_c                    35.4939
_cell_angle_alpha                 97.5959
_cell_angle_beta                  73.1335
_cell_angle_gamma                 98.3317
loop_
_atom_site_label
_atom_site_type_symbol
_atom_site_fract_x
_atom_site_fract_y
_atom_site_fract_z
_atom_site_U_iso_or_equiv
_atom_site_adp_type
_atom_site_occupancy
Br1    Br    0.02315   0.18810   0.04874   0.00000  Uiso   1.00
Br2    Br    0.28961   0.07322   0.00945   0.00000  Uiso   1.00
Br3    Br    0.03370   0.21024   0.19872   0.00000  Uiso   1.00
C4     C     0.05251   0.15959   0.25919   0.00000  Uiso   1.00
C5     C     0.19861   0.12634   0.45864   0.00000  Uiso   1.00
C6     C     0.22313   0.11048   0.47812   0.00000  Uiso   1.00
C7     C     0.28115   0.17372   0.24125   0.00000  Uiso   1.00
C8     C     0.21411   0.11651   0.01933   0.00000  Uiso   1.00
C9     C     0.17673   0.13576   0.04112   0.00000  Uiso   1.00
C10    C     0.24214   0.10443   0.03898   0.00000  Uiso   1.00
C11    C     0.23425   0.11391   0.08041   0.00000  Uiso   1.00
C12    C     0.17138   0.14700   0.08162   0.00000  Uiso   1.00
C13    C     0.32721   0.17721   0.23785   0.00000  Uiso   1.00
C14    C     0.00731   0.15754   0.26201   0.00000  Uiso   1.00
C15    C     0.09377   0.20670   0.42157   0.00000  Uiso   1.00
C16    C     0.17903   0.32156   0.23593   0.00000  Uiso   1.00
C17    C     0.15382   0.01339   0.26412   0.00000  Uiso   1.00
C18    C     0.15601   0.05647   0.25941   0.00000  Uiso   1.00
C19    C     0.17671   0.27763   0.24112   0.00000  Uiso   1.00
C20    C     0.18809   0.14561   0.14398   0.00000  Uiso   1.00
C21    C     0.14540   0.18740   0.35631   0.00000  Uiso   1.00
C22    C     0.13202   0.19053   0.39987   0.00000  Uiso   1.00
C23    C     0.19860   0.13543   0.10117   0.00000  Uiso   1.00
C24    C     0.07797   0.20298   0.46202   0.00000  Uiso   1.00
C25    C     0.20853   0.00249   0.19787   0.00000  Uiso   1.00
C26    C     0.15545   0.17269   0.41949   0.00000  Uiso   1.00
C27    C     0.13032   0.00298   0.30496   0.00000  Uiso   1.00
C28    C     0.26212   0.10162   0.10284   0.00000  Uiso   1.00
C29    C     0.08127   0.13740   0.07913   0.00000  Uiso   1.00
C30    C     0.13935   0.16688   0.46008   0.00000  Uiso   1.00
C31    C     0.09965   0.18220   0.48169   0.00000  Uiso   1.00
C32    C     0.16214   0.14681   0.47958   0.00000  Uiso   1.00
C33    C     0.14763   0.14627   0.02125   0.00000  Uiso   1.00
C34    C     0.10453   0.15530   0.04120   0.00000  Uiso   1.00
C35    C     0.08141   0.17478   0.02175   0.00000  Uiso   1.00
H36    H     0.31823   0.13879   0.28391   0.00000  Uiso   1.00
H37    H     0.24875   0.09676   0.13389   0.00000  Uiso   1.00
H38    H     0.08807   0.10737   0.08405   0.00000  Uiso   1.00
H39    H     0.14703   0.16660   0.09849   0.00000  Uiso   1.00
H40    H     0.25053   0.09527   0.46001   0.00000  Uiso   1.00
H41    H     0.04805   0.21578   0.47723   0.00000  Uiso   1.00
H42    H     0.07519   0.22096   0.40708   0.00000  Uiso   1.00
H43    H     0.18633   0.16349   0.40208   0.00000  Uiso   1.00
H44    H     0.20852   0.12085   0.42686   0.00000  Uiso   1.00
H45    H     0.22035   0.31310   0.17333   0.00000  Uiso   1.00
H46    H     0.09836   0.01264   0.31874   0.00000  Uiso   1.00
O47    O     0.16667   0.16667   0.25000   0.00000  Uiso   1.00
O48    O     0.15693   0.12393   0.16625   0.00000  Uiso   1.00
O49    O     0.12687   0.20646   0.33749   0.00000  Uiso   1.00
O50    O     0.21088   0.17493   0.15877   0.00000  Uiso   1.00
O51    O     0.17198   0.16135   0.33749   0.00000  Uiso   1.00
O52    O     0.22098   0.03900   0.19359   0.00000  Uiso   1.00
O53    O     0.14773   0.32017   0.32450   0.00000  Uiso   1.00
O54    O     0.30047   0.09834   0.08776   0.00000  Uiso   1.00
O55    O     0.05628   0.15644   0.10577   0.00000  Uiso   1.00
O56    O     0.17849   0.08101   0.27820   0.00000  Uiso   1.00
O57    O     0.14581   0.26136   0.26767   0.00000  Uiso   1.00
O58    O     0.07452   0.13251   0.23607   0.00000  Uiso   1.00
O59    O     0.26785   0.19179   0.21805   0.00000  Uiso   1.00
O60    O     0.06990   0.18960   0.27820   0.00000  Uiso   1.00
O61    O     0.25440   0.15277   0.26767   0.00000  Uiso   1.00
O62    O     0.13800   0.06903   0.23607   0.00000  Uiso   1.00
O63    O     0.20437   0.25527   0.21805   0.00000  Uiso   1.00
Zn64   Zn    0.19244   0.14090   0.28277   0.00000  Uiso   1.00
Zn65   Zn    0.13459   0.12378   0.22257   0.00000  Uiso   1.00
Zn66   Zn    0.21166   0.19664   0.21188   0.00000  Uiso   1.00
Zn67   Zn    0.12798   0.20535   0.28277   0.00000  Uiso   1.00
Br68   Br    0.35649   0.18810   0.04874   0.00000  Uiso   1.00
Br69   Br    0.62295   0.07322   0.00945   0.00000  Uiso   1.00
Br70   Br    0.36703   0.21024   0.19872   0.00000  Uiso   1.00
C71    C     0.38584   0.15959   0.25919   0.00000  Uiso   1.00
C72    C     0.53195   0.12634   0.45864   0.00000  Uiso   1.00
C73    C     0.55646   0.11048   0.47812   0.00000  Uiso   1.00
C74    C     0.61448   0.17372   0.24125   0.00000  Uiso   1.00
C75    C     0.54744   0.11651   0.01933   0.00000  Uiso   1.00
C76    C     0.51006   0.13576   0.04112   0.00000  Uiso   1.00
C77    C     0.57547   0.10443   0.03898   0.00000  Uiso   1.00
C78    C     0.56758   0.11391   0.08041   0.00000  Uiso   1.00
C79    C     0.50471   0.14700   0.08162   0.00000  Uiso   1.00
C80    C     0.66054   0.17721   0.23785   0.00000  Uiso   1.00
C81    C     0.34064   0.15754   0.26201   0.00000  Uiso   1.00
C82    C     0.42710   0.20670   0.42157   0.00000  Uiso   1.00
C83    C     0.51237   0.32156   0.23593   0.00000  Uiso   1.00
C84    C     0.48715   0.01339   0.26412   0.00000  Uiso   1.00
C85    C     0.48934   0.05647   0.25941   0.00000  Uiso   1.00
C86    C     0.51004   0.27763   0.24112   0.00000  Uiso   1.00
C87    C     0.52143   0.14561   0.14398   0.00000  Uiso   1.00
C88    C     0.47873   0.18740   0.35631   0.00000  Uiso   1.00
C89    C     0.46536   0.19053   0.39987   0.00000  Uiso   1.00
C90    C     0.53193   0.13543   0.10117   0.00000  Uiso   1.00
C91    C     0.41131   0.20298   0.46202   0.00000  Uiso   1.00
C92    C     0.54186   0.00249   0.19787   0.00000  Uiso   1.00
C93    C     0.48878   0.17269   0.41949   0.00000  Uiso   1.00
C94    C     0.46365   0.00298   0.30496   0.00000  Uiso   1.00
C95    C     0.59546   0.10162   0.10284   0.00000  Uiso   1.00
C96    C     0.41460   0.13740   0.07913   0.00000  Uiso   1.00
C97    C     0.47268   0.16688   0.46008   0.00000  Uiso   1.00
C98    C     0.43299   0.18220   0.48169   0.00000  Uiso   1.00
C99    C     0.49548   0.14681   0.47958   0.00000  Uiso   1.00
C100   C     0.48096   0.14627   0.02125   0.00000  Uiso   1.00
C101   C     0.43786   0.15530   0.04120   0.00000  Uiso   1.00
C102   C     0.41475   0.17478   0.02175   0.00000  Uiso   1.00
H103   H     0.65156   0.13879   0.28391   0.00000  Uiso   1.00
H104   H     0.58209   0.09676   0.13389   0.00000  Uiso   1.00
H105   H     0.42140   0.10737   0.08405   0.00000  Uiso   1.00
H106   H     0.48036   0.16660   0.09849   0.00000  Uiso   1.00
H107   H     0.58386   0.09527   0.46001   0.00000  Uiso   1.00
H108   H     0.38139   0.21578   0.47723   0.00000  Uiso   1.00
H109   H     0.40852   0.22096   0.40708   0.00000  Uiso   1.00
H110   H     0.51966   0.16349   0.40208   0.00000  Uiso   1.00
H111   H     0.54185   0.12085   0.42686   0.00000  Uiso   1.00
H112   H     0.55369   0.31310   0.17333   0.00000  Uiso   1.00
H113   H     0.43170   0.01264   0.31874   0.00000  Uiso   1.00
O114   O     0.50000   0.16667   0.25000   0.00000  Uiso   1.00
O115   O     0.49027   0.12393   0.16625   0.00000  Uiso   1.00
O116   O     0.46020   0.20646   0.33749   0.00000  Uiso   1.00
O117   O     0.54421   0.17493   0.15877   0.00000  Uiso   1.00
O118   O     0.50532   0.16135   0.33749   0.00000  Uiso   1.00
O119   O     0.55432   0.03900   0.19359   0.00000  Uiso   1.00
O120   O     0.48107   0.32017   0.32450   0.00000  Uiso   1.00
O121   O     0.63380   0.09834   0.08776   0.00000  Uiso   1.00
O122   O     0.38961   0.15644   0.10577   0.00000  Uiso   1.00
O123   O     0.51182   0.08101   0.27820   0.00000  Uiso   1.00
O124   O     0.47914   0.26136   0.26767   0.00000  Uiso   1.00
O125   O     0.40785   0.13251   0.23607   0.00000  Uiso   1.00
O126   O     0.60119   0.19179   0.21805   0.00000  Uiso   1.00
O127   O     0.40323   0.18960   0.27820   0.00000  Uiso   1.00
O128   O     0.58773   0.15277   0.26767   0.00000  Uiso   1.00
O129   O     0.47133   0.06903   0.23607   0.00000  Uiso   1.00
O130   O     0.53771   0.25527   0.21805   0.00000  Uiso   1.00
Zn131  Zn    0.52577   0.14090   0.28277   0.00000  Uiso   1.00
Zn132  Zn    0.46792   0.12378   0.22257   0.00000  Uiso   1.00
Zn133  Zn    0.54500   0.19664   0.21188   0.00000  Uiso   1.00
Zn134  Zn    0.46131   0.20535   0.28277   0.00000  Uiso   1.00
Br135  Br    0.68982   0.18810   0.04874   0.00000  Uiso   1.00
Br136  Br    0.95628   0.07322   0.00945   0.00000  Uiso   1.00
Br137  Br    0.70036   0.21024   0.19872   0.00000  Uiso   1.00
C138   C     0.71917   0.15959   0.25919   0.00000  Uiso   1.00
C139   C     0.86528   0.12634   0.45864   0.00000  Uiso   1.00
C140   C     0.88980   0.11048   0.47812   0.00000  Uiso   1.00
C141   C     0.94781   0.17372   0.24125   0.00000  Uiso   1.00
C142   C     0.88078   0.11651   0.01933   0.00000  Uiso   1.00
C143   C     0.84340   0.13576   0.04112   0.00000  Uiso   1.00
C144   C     0.90881   0.10443   0.03898   0.00000  Uiso   1.00
C145   C     0.90092   0.11391   0.08041   0.00000  Uiso   1.00
C146   C     0.83804   0.14700   0.08162   0.00000  Uiso   1.00
C147   C     0.99387   0.17721   0.23785   0.00000  Uiso   1.00
C148   C     0.67397   0.15754   0.26201   0.00000  Uiso   1.00
C149   C     0.76044   0.20670   0.42157   0.00000  Uiso   1.00
C150   C     0.84570   0.32156   0.23593   0.00000  Uiso   1.00
C151   C     0.82049   0.01339   0.26412   0.00000  Uiso   1.00
C152   C     0.82267   0.05647   0.25941   0.00000  Uiso   1.00
C153   C     0.84337   0.27763   0.24112   0.00000  Uiso   1.00
C154   C     0.85476   0.14561   0.14398   0.00000  Uiso   1.00
C155   C     0.81206   0.18740   0.35631   0.00000  Uiso   1.00
C156   C     0.79869   0.19053   0.39987   0.00000  Uiso   1.00
C157   C     0.86526   0.13543   0.10117   0.00000  Uiso   1.00
C158   C     0.74464   0.20298   0.46202   0.00000  Uiso   1.00
C159   C     0.87520   0.00249   0.19787   0.00000  Uiso   1.00
C160   C     0.82211   0.17269   0.41949   0.00000  Uiso   1.00
C161   C     0.79699   0.00298   0.30496   0.00000  Uiso   1.00
C162   C     0.92879   0.10162   0.10284   0.00000  Uiso   1.00
C163   C     0.74793   0.13740   0.07913   0.00000  Uiso   1.00
C164   C     0.80601   0.16688   0.46008   0.00000  Uiso   1.00
C165   C     0.76632   0.18220   0.48169   0.00000  Uiso   1.00
C166   C     0.82881   0.14681   0.47958   0.00000  Uiso   1.00
C167   C     0.81429   0.14627   0.02125   0.00000  Uiso   1.00
C168   C     0.77119   0.15530   0.04120   0.00000  Uiso   1.00
C169   C     0.74808   0.17478   0.02175   0.00000  Uiso   1.00
H170   H     0.98490   0.13879   0.28391   0.00000  Uiso   1.00
H171   H     0.91542   0.09676   0.13389   0.00000  Uiso   1.00
H172   H     0.75474   0.10737   0.08405   0.00000  Uiso   1.00
H173   H     0.81369   0.16660   0.09849   0.00000  Uiso   1.00
H174   H     0.91720   0.09527   0.46001   0.00000  Uiso   1.00
H175   H     0.71472   0.21578   0.47723   0.00000  Uiso   1.00
H176   H     0.74185   0.22096   0.40708   0.00000  Uiso   1.00
H177   H     0.85299   0.16349   0.40208   0.00000  Uiso   1.00
H178   H     0.87519   0.12085   0.42686   0.00000  Uiso   1.00
H179   H     0.88702   0.31310   0.17333   0.00000  Uiso   1.00
H180   H     0.76503   0.01264   0.31874   0.00000  Uiso   1.00
O181   O     0.83333   0.16667   0.25000   0.00000  Uiso   1.00
O182   O     0.82360   0.12393   0.16625   0.00000  Uiso   1.00
O183   O     0.79354   0.20646   0.33749   0.00000  Uiso   1.00
O184   O     0.87755   0.17493   0.15877   0.00000  Uiso   1.00
O185   O     0.83865   0.16135   0.33749   0.00000  Uiso   1.00
O186   O     0.88765   0.03900   0.19359   0.00000  Uiso   1.00
O187   O     0.81440   0.32017   0.32450   0.00000  Uiso   1.00
O188   O     0.96714   0.09834   0.08776   0.00000  Uiso   1.00
O189   O     0.72295   0.15644   0.10577   0.00000  Uiso   1.00
O190   O     0.84515   0.08101   0.27820   0.00000  Uiso   1.00
O191   O     0.81247   0.26136   0.26767   0.00000  Uiso   1.00
O192   O     0.74119   0.13251   0.23607   0.00000  Uiso   1.00
O193   O     0.93452   0.19179   0.21805   0.00000  Uiso   1.00
O194   O     0.73656   0.18960   0.27820   0.00000  Uiso   1.00
O195   O     0.92106   0.15277   0.26767   0.00000  Uiso   1.00
O196   O     0.80467   0.06903   0.23607   0.00000  Uiso   1.00
O197   O     0.87104   0.25527   0.21805   0.00000  Uiso   1.00
Zn198  Zn    0.85910   0.14090   0.28277   0.00000  Uiso   1.00
Zn199  Zn    0.80125   0.12378   0.22257   0.00000  Uiso   1.00
Zn200  Zn    0.87833   0.19664   0.21188   0.00000  Uiso   1.00
Zn201  Zn    0.79465   0.20535   0.28277   0.00000  Uiso   1.00
Br202  Br    0.02315   0.52144   0.04874   0.00000  Uiso   1.00
Br203  Br    0.28961   0.40655   0.00945   0.00000  Uiso   1.00
Br204  Br    0.03370   0.54357   0.19872   0.00000  Uiso   1.00
C205   C     0.05251   0.49292   0.25919   0.00000  Uiso   1.00
C206   C     0.19861   0.45968   0.45864   0.00000  Uiso   1.00
C207   C     0.22313   0.44381   0.47812   0.00000  Uiso   1.00
C208   C     0.28115   0.50705   0.24125   0.00000  Uiso   1.00
C209   C     0.21411   0.44984   0.01933   0.00000  Uiso   1.00
C210   C     0.17673   0.46909   0.04112   0.00000  Uiso   1.00
C211   C     0.24214   0.43777   0.03898   0.00000  Uiso   1.00
C212   C     0.23425   0.44724   0.08041   0.00000  Uiso   1.00
C213   C     0.17138   0.48033   0.08162   0.00000  Uiso   1.00
C214   C     0.32721   0.51055   0.23785   0.00000  Uiso   1.00
C215   C     0.00731   0.49087   0.26201   0.00000  Uiso   1.00
C216   C     0.09377   0.54004   0.42157   0.00000  Uiso   1.00
C217   C     0.17903   0.65490   0.23593   0.00000  Uiso   1.00
C218   C     0.15382   0.34672   0.26412   0.00000  Uiso   1.00
C219   C     0.15601   0.38980   0.25941   0.00000  Uiso   1.00
C220   C     0.17671   0.61096   0.24112   0.00000  Uiso   1.00
C221   C     0.18809   0.47894   0.14398   0.00000  Uiso   1.00
C222   C     0.14540   0.52073   0.35631   0.00000  Uiso   1.00
C223   C     0.13202   0.52386   0.39987   0.00000  Uiso   1.00
C224   C     0.19860   0.46876   0.10117   0.00000  Uiso   1.00
C225   C     0.07797   0.53632   0.46202   0.00000  Uiso   1.00
C226   C     0.20853   0.33582   0.19787   0.00000  Uiso   1.00
C227   C     0.15545   0.50602   0.41949   0.00000  Uiso   1.00
C228   C     0.13032   0.33631   0.30496   0.00000  Uiso   1.00
C229   C     0.26212   0.43495   0.10284   0.00000  Uiso   1.00
C230   C     0.08127   0.47073   0.07913   0.00000  Uiso   1.00
C231   C     0.13935   0.50021   0.46008   0.00000  Uiso   1.00
C232   C     0.09965   0.51554   0.48169   0.00000  Uiso   1.00
C233   C     0.16214   0.48015   0.47958   0.00000  Uiso   1.00
C234   C     0.14763   0.47960   0.02125   0.00000  Uiso   1.00
C235   C     0.10453   0.48863   0.04120   0.00000  Uiso   1.00
C236   C     0.08141   0.50812   0.02175   0.00000  Uiso   1.00
H237   H     0.31823   0.47212   0.28391   0.00000  Uiso   1.00
H238   H     0.24875   0.43010   0.13389   0.00000  Uiso   1.00
H239   H     0.08807   0.44071   0.08405   0.00000  Uiso   1.00
H240   H     0.14703   0.49993   0.09849   0.00000  Uiso   1.00
H241   H     0.25053   0.42860   0.46001   0.00000  Uiso   1.00
H242   H     0.04805   0.54911   0.47723   0.00000  Uiso   1.00
H243   H     0.07519   0.55429   0.40708   0.00000  Uiso   1.00
H244   H     0.18633   0.49683   0.40208   0.00000  Uiso   1.00
H245   H     0.20852   0.45418   0.42686   0.00000  Uiso   1.00
H246   H     0.22035   0.64644   0.17333   0.00000  Uiso   1.00
H247   H     0.09836   0.34598   0.31874   0.00000  Uiso   1.00
O248   O     0.16667   0.50000   0.25000   0.00000  Uiso   1.00
O249   O     0.15693   0.45726   0.16625   0.00000  Uiso   1.00
O250   O     0.12687   0.53979   0.33749   0.00000  Uiso   1.00
O251   O     0.21088   0.50826   0.15877   0.00000  Uiso   1.00
O252   O     0.17198   0.49468   0.33749   0.00000  Uiso   1.00
O253   O     0.22098   0.37233   0.19359   0.00000  Uiso   1.00
O254   O     0.14773   0.65351   0.32450   0.00000  Uiso   1.00
O255   O     0.30047   0.43167   0.08776   0.00000  Uiso   1.00
O256   O     0.05628   0.48978   0.10577   0.00000  Uiso   1.00
O257   O     0.17849   0.41434   0.27820   0.00000  Uiso   1.00
O258   O     0.14581   0.59469   0.26767   0.00000  Uiso   1.00
O259   O     0.07452   0.46584   0.23607   0.00000  Uiso   1.00
O260   O     0.26785   0.52512   0.21805   0.00000  Uiso   1.00
O261   O     0.06990   0.52293   0.27820   0.00000  Uiso   1.00
O262   O     0.25440   0.48610   0.26767   0.00000  Uiso   1.00
O263   O     0.13800   0.40236   0.23607   0.00000  Uiso   1.00
O264   O     0.20437   0.58860   0.21805   0.00000  Uiso   1.00
Zn265  Zn    0.19244   0.47423   0.28277   0.00000  Uiso   1.00
Zn266  Zn    0.13459   0.45711   0.22257   0.00000  Uiso   1.00
Zn267  Zn    0.21166   0.52997   0.21188   0.00000  Uiso   1.00
Zn268  Zn    0.12798   0.53868   0.28277   0.00000  Uiso   1.00
Br269  Br    0.35649   0.52144   0.04874   0.00000  Uiso   1.00
Br270  Br    0.62295   0.40655   0.00945   0.00000  Uiso   1.00
Br271  Br    0.36703   0.54357   0.19872   0.00000  Uiso   1.00
C272   C     0.38584   0.49292   0.25919   0.00000  Uiso   1.00
C273   C     0.53195   0.45968   0.45864   0.00000  Uiso   1.00
C274   C     0.55646   0.44381   0.47812   0.00000  Uiso   1.00
C275   C     0.61448   0.50705   0.24125   0.00000  Uiso   1.00
C276   C     0.54744   0.44984   0.01933   0.00000  Uiso   1.00
C277   C     0.51006   0.46909   0.04112   0.00000  Uiso   1.00
C278   C     0.57547   0.43777   0.03898   0.00000  Uiso   1.00
C279   C     0.56758   0.44724   0.08041   0.00000  Uiso   1.00
C280   C     0.50471   0.48033   0.08162   0.00000  Uiso   1.00
C281   C     0.66054   0.51055   0.23785   0.00000  Uiso   1.00
C282   C     0.34064   0.49087   0.26201   0.00000  Uiso   1.00
C283   C     0.42710   0.54004   0.42157   0.00000  Uiso   1.00
C284   C     0.51237   0.65490   0.23593   0.00000  Uiso   1.00
C285   C     0.48715   0.34672   0.26412   0.00000  Uiso   1.00
C286   C     0.48934   0.38980   0.25941   0.00000  Uiso   1.00
C287   C     0.51004   0.61096   0.24112   0.00000  Uiso   1.00
C288   C     0.52143   0.47894   0.14398   0.00000  Uiso   1.00
C289   C     0.47873   0.52073   0.35631   0.00000  Uiso   1.00
C290   C     0.46536   0.52386   0.39987   0.00000  Uiso   1.00
C291   C     0.53193   0.46876   0.10117   0.00000  Uiso   1.00
C292   C     0.41131   0.53632   0.46202   0.00000  Uiso   1.00
C293   C     0.54186   0.33582   0.19787   0.00000  Uiso   1.00
C294   C     0.48878   0.50602   0.41949   0.00000  Uiso   1.00
C295   C     0.46365   0.33631   0.30496   0.00000  Uiso   1.00
C296   C     0.59546   0.43495   0.10284   0.00000  Uiso   1.00
C297   C     0.41460   0.47073   0.07913   0.00000  Uiso   1.00
C298   C     0.47268   0.50021   0.46008   0.00000  Uiso   1.00
C299   C     0.43299   0.51554   0.48169   0.00000  Uiso   1.00
C300   C     0.49548   0.48015   0.47958   0.00000  Uiso   1.00
C301   C     0.48096   0.47960   0.02125   0.00000  Uiso   1.00
C302   C     0.43786   0.48863   0.04120   0.00000  Uiso   1.00
C303   C     0.41475   0.50812   0.02175   0.00000  Uiso   1.00
H304   H     0.65156   0.47212   0.28391   0.00000  Uiso   1.00
H305   H     0.58209   0.43010   0.13389   0.00000  Uiso   1.00
H306   H     0.42140   0.44071   0.08405   0.00000  Uiso   1.00
H307   H     0.48036   0.49993   0.09849   0.00000  Uiso   1.00
H308   H     0.58386   0.42860   0.46001   0.00000  Uiso   1.00
H309   H     0.38139   0.54911   0.47723   0.00000  Uiso   1.00
H310   H     0.40852   0.55429   0.40708   0.00000  Uiso   1.00
H311   H     0.51966   0.49683   0.40208   0.00000  Uiso   1.00
H312   H     0.54185   0.45418   0.42686   0.00000  Uiso   1.00
H313   H     0.55369   0.64644   0.17333   0.00000  Uiso   1.00
H314   H     0.43170   0.34598   0.31874   0.00000  Uiso   1.00
O315   O     0.50000   0.50000   0.25000   0.00000  Uiso   1.00
O316   O     0.49027   0.45726   0.16625   0.00000  Uiso   1.00
O317   O     0.46020   0.53979   0.33749   0.00000  Uiso   1.00
O318   O     0.54421   0.50826   0.15877   0.00000  Uiso   1.00
O319   O     0.50532   0.49468   0.33749   0.00000  Uiso   1.00
O320   O     0.55432   0.37233   0.19359   0.00000  Uiso   1.00
O321   O     0.48107   0.65351   0.32450   0.00000  Uiso   1.00
O322   O     0.63380   0.43167   0.08776   0.00000  Uiso   1.00
O323   O     0.38961   0.48978   0.10577   0.00000  Uiso   1.00
O324   O     0.51182   0.41434   0.27820   0.00000  Uiso   1.00
O325   O     0.47914   0.59469   0.26767   0.00000  Uiso   1.00
O326   O     0.40785   0.46584   0.23607   0.00000  Uiso   1.00
O327   O     0.60119   0.52512   0.21805   0.00000  Uiso   1.00
O328   O     0.40323   0.52293   0.27820   0.00000  Uiso   1.00
O329   O     0.58773   0.48610   0.26767   0.00000  Uiso   1.00
O330   O     0.47133   0.40236   0.23607   0.00000  Uiso   1.00
O331   O     0.53771   0.58860   0.21805   0.00000  Uiso   1.00
Zn332  Zn    0.52577   0.47423   0.28277   0.00000  Uiso   1.00
Zn333  Zn    0.46792   0.45711   0.22257   0.00000  Uiso   1.00
Zn334  Zn    0.54500   0.52997   0.21188   0.00000  Uiso   1.00
Zn335  Zn    0.46131   0.53868   0.28277   0.00000  Uiso   1.00
Br336  Br    0.68982   0.52144   0.04874   0.00000  Uiso   1.00
Br337  Br    0.95628   0.40655   0.00945   0.00000  Uiso   1.00
Br338  Br    0.70036   0.54357   0.19872   0.00000  Uiso   1.00
C339   C     0.71917   0.49292   0.25919   0.00000  Uiso   1.00
C340   C     0.86528   0.45968   0.45864   0.00000  Uiso   1.00
C341   C     0.88980   0.44381   0.47812   0.00000  Uiso   1.00
C342   C     0.94781   0.50705   0.24125   0.00000  Uiso   1.00
C343   C     0.88078   0.44984   0.01933   0.00000  Uiso   1.00
C344   C     0.84340   0.46909   0.04112   0.00000  Uiso   1.00
C345   C     0.90881   0.43777   0.03898   0.00000  Uiso   1.00
C346   C     0.90092   0.44724   0.08041   0.00000  Uiso   1.00
C347   C     0.83804   0.48033   0.08162   0.00000  Uiso   1.00
C348   C     0.99387   0.51055   0.23785   0.00000  Uiso   1.00
C349   C     0.67397   0.49087   0.26201   0.00000  Uiso   1.00
C350   C     0.76044   0.54004   0.42157   0.00000  Uiso   1.00
C351   C     0.84570   0.65490   0.23593   0.00000  Uiso   1.00
C352   C     0.82049   0.34672   0.26412   0.00000  Uiso   1.00
C353   C     0.82267   0.38980   0.25941   0.00000  Uiso   1.00
C354   C     0.84337   0.61096   0.24112   0.00000  Uiso   1.00
C355   C     0.85476   0.47894   0.14398   0.00000  Uiso   1.00
C356   C     0.81206   0.52073   0.35631   0.00000  Uiso   1.00
C357   C     0.79869   0.52386   0.39987   0.00000  Uiso   1.00
C358   C     0.86526   0.46876   0.10117   0.00000  Uiso   1.00
C359   C     0.74464   0.53632   0.46202   0.00000  Uiso   1.00
C360   C     0.87520   0.33582   0.19787   0.00000  Uiso   1.00
C361   C     0.82211   0.50602   0.41949   0.00000  Uiso   1.00
C362   C     0.79699   0.33631   0.30496   0.00000  Uiso   1.00
C363   C     0.92879   0.43495   0.10284   0.00000  Uiso   1.00
C364   C     0.74793   0.47073   0.07913   0.00000  Uiso   1.00
C365   C     0.80601   0.50021   0.46008   0.00000  Uiso   1.00
C366   C     0.76632   0.51554   0.48169   0.00000  Uiso   1.00
C367   C     0.82881   0.48015   0.47958   0.00000  Uiso   1.00
C368   C     0.81429   0.47960   0.02125   0.00000  Uiso   1.00
C369   C     0.77119   0.48863   0.04120   0.00000  Uiso   1.00
C370   C     0.74808   0.50812   0.02175   0.00000  Uiso   1.00
H371   H     0.98490   0.47212   0.28391   0.00000  Uiso   1.00
H372   H     0.91542   0.43010   0.13389   0.00000  Uiso   1.00
H373   H     0.75474   0.44071   0.08405   0.00000  Uiso   1.00
H374   H     0.81369   0.49993   0.09849   0.00000  Uiso   1.00
H375   H     0.91720   0.42860   0.46001   0.00000  Uiso   1.00
H376   H     0.71472   0.54911   0.47723   0.00000  Uiso   1.00
H377   H     0.74185   0.55429   0.40708   0.00000  Uiso   1.00
H378   H     0.85299   0.49683   0.40208   0.00000  Uiso   1.00
H379   H     0.87519   0.45418   0.42686   0.00000  Uiso   1.00
H380   H     0.88702   0.64644   0.17333   0.00000  Uiso   1.00
H381   H     0.76503   0.34598   0.31874   0.00000  Uiso   1.00
O382   O     0.83333   0.50000   0.25000   0.00000  Uiso   1.00
O383   O     0.82360   0.45726   0.16625   0.00000  Uiso   1.00
O384   O     0.79354   0.53979   0.33749   0.00000  Uiso   1.00
O385   O     0.87755   0.50826   0.15877   0.00000  Uiso   1.00
O386   O     0.83865   0.49468   0.33749   0.00000  Uiso   1.00
O387   O     0.88765   0.37233   0.19359   0.00000  Uiso   1.00
O388   O     0.81440   0.65351   0.32450   0.00000  Uiso   1.00
O389   O     0.96714   0.43167   0.08776   0.00000  Uiso   1.00
O390   O     0.72295   0.48978   0.10577   0.00000  Uiso   1.00
O391   O     0.84515   0.41434   0.27820   0.00000  Uiso   1.00
O392   O     0.81247   0.59469   0.26767   0.00000  Uiso   1.00
O393   O     0.74119   0.46584   0.23607   0.00000  Uiso   1.00
O394   O     0.93452   0.52512   0.21805   0.00000  Uiso   1.00
O395   O     0.73656   0.52293   0.27820   0.00000  Uiso   1.00
O396   O     0.92106   0.48610   0.26767   0.00000  Uiso   1.00
O397   O     0.80467   0.40236   0.23607   0.00000  Uiso   1.00
O398   O     0.87104   0.58860   0.21805   0.00000  Uiso   1.00
Zn399  Zn    0.85910   0.47423   0.28277   0.00000  Uiso   1.00
Zn400  Zn    0.80125   0.45711   0.22257   0.00000  Uiso   1.00
Zn401  Zn    0.87833   0.52997   0.21188   0.00000  Uiso   1.00
Zn402  Zn    0.79465   0.53868   0.28277   0.00000  Uiso   1.00
Br403  Br    0.02315   0.85477   0.04874   0.00000  Uiso   1.00
Br404  Br    0.28961   0.73989   0.00945   0.00000  Uiso   1.00
Br405  Br    0.03370   0.87690   0.19872   0.00000  Uiso   1.00
C406   C     0.05251   0.82625   0.25919   0.00000  Uiso   1.00
C407   C     0.19861   0.79301   0.45864   0.00000  Uiso   1.00
C408   C     0.22313   0.77715   0.47812   0.00000  Uiso   1.00
C409   C     0.28115   0.84038   0.24125   0.00000  Uiso   1.00
C410   C     0.21411   0.78317   0.01933   0.00000  Uiso   1.00
C411   C     0.17673   0.80243   0.04112   0.00000  Uiso   1.00
C412   C     0.24214   0.77110   0.03898   0.00000  Uiso   1.00
C413   C     0.23425   0.78057   0.08041   0.00000  Uiso   1.00
C414   C     0.17138   0.81366   0.08162   0.00000  Uiso   1.00
C415   C     0.32721   0.84388   0.23785   0.00000  Uiso   1.00
C416   C     0.00731   0.82420   0.26201   0.00000  Uiso   1.00
C417   C     0.09377   0.87337   0.42157   0.00000  Uiso   1.00
C418   C     0.17903   0.98823   0.23593   0.00000  Uiso   1.00
C419   C     0.15382   0.68006   0.26412   0.00000  Uiso   1.00
C420   C     0.15601   0.72313   0.25941   0.00000  Uiso   1.00
C421   C     0.17671   0.94430   0.24112   0.00000  Uiso   1.00
C422   C     0.18809   0.81227   0.14398   0.00000  Uiso   1.00
C423   C     0.14540   0.85406   0.35631   0.00000  Uiso   1.00
C424   C     0.13202   0.85719   0.39987   0.00000  Uiso   1.00
C425   C     0.19860   0.80210   0.10117   0.00000  Uiso   1.00
C426   C     0.07797   0.86965   0.46202   0.00000  Uiso   1.00
C427   C     0.20853   0.66916   0.19787   0.00000  Uiso   1.00
C428   C     0.15545   0.83935   0.41949   0.00000  Uiso   1.00
C429   C     0.13032   0.66965   0.30496   0.00000  Uiso   1.00
C430   C     0.26212   0.76829   0.10284   0.00000  Uiso   1.00
C431   C     0.08127   0.80407   0.07913   0.00000  Uiso   1.00
C432   C     0.13935   0.83355   0.46008   0.00000  Uiso   1.00
C433   C     0.09965   0.84887   0.48169   0.00000  Uiso   1.00
C434   C     0.16214   0.81348   0.47958   0.00000  Uiso   1.00
C435   C     0.14763   0.81294   0.02125   0.00000  Uiso   1.00
C436   C     0.10453   0.82196   0.04120   0.00000  Uiso   1.00
C437   C     0.08141   0.84145   0.02175   0.00000  Uiso   1.00
H438   H     0.31823   0.80545   0.28391   0.00000  Uiso   1.00
H439   H     0.24875   0.76343   0.13389   0.00000  Uiso   1.00
H440   H     0.08807   0.77404   0.08405   0.00000  Uiso   1.00
H441   H     0.14703   0.83327   0.09849   0.00000  Uiso   1.00
H442   H     0.25053   0.76193   0.46001   0.00000  Uiso   1.00
H443   H     0.04805   0.88244   0.47723   0.00000  Uiso   1.00
H444   H     0.07519   0.88762   0.40708   0.00000  Uiso   1.00
H445   H     0.18633   0.83016   0.40208   0.00000  Uiso   1.00
H446   H     0.20852   0.78752   0.42686   0.00000  Uiso   1.00
H447   H     0.22035   0.97977   0.17333   0.00000  Uiso   1.00
H448   H     0.09836   0.67931   0.31874   0.00000  Uiso   1.00
O449   O     0.16667   0.83333   0.25000   0.00000  Uiso   1.00
O450   O     0.15693   0.79060   0.16625   0.00000  Uiso   1.00
O451   O     0.12687   0.87313   0.33749   0.00000  Uiso   1.00
O452   O     0.21088   0.84159   0.15877   0.00000  Uiso   1.00
O453   O     0.17198   0.82802   0.33749   0.00000  Uiso   1.00
O454   O     0.22098   0.70567   0.19359   0.00000  Uiso   1.00
O455   O     0.14773   0.98684   0.32450   0.00000  Uiso   1.00
O456   O     0.30047   0.76500   0.08776   0.00000  Uiso   1.00
O457   O     0.05628   0.82311   0.10577   0.00000  Uiso   1.00
O458   O     0.17849   0.74768   0.27820   0.00000  Uiso   1.00
O459   O     0.14581   0.92803   0.26767   0.00000  Uiso   1.00
O460   O     0.07452   0.79917   0.23607   0.00000  Uiso   1.00
O461   O     0.26785   0.85845   0.21805   0.00000  Uiso   1.00
O462   O     0.06990   0.85627   0.27820   0.00000  Uiso   1.00
O463   O     0.25440   0.81944   0.26767   0.00000  Uiso   1.00
O464   O     0.13800   0.73570   0.23607   0.00000  Uiso   1.00
O465   O     0.20437   0.92193   0.21805   0.00000  Uiso   1.00
Zn466  Zn    0.19244   0.80756   0.28277   0.00000  Uiso   1.00
Zn467  Zn    0.13459   0.79044   0.22257   0.00000  Uiso   1.00
Zn468  Zn    0.21166   0.86331   0.21188   0.00000  Uiso   1.00
Zn469  Zn    0.12798   0.87202   0.28277   0.00000  Uiso   1.00
Br470  Br    0.35649   0.85477   0.04874   0.00000  Uiso   1.00
Br471  Br    0.62295   0.73989   0.00945   0.00000  Uiso   1.00
Br472  Br    0.36703   0.87690   0.19872   0.00000  Uiso   1.00
C473   C     0.38584   0.82625   0.25919   0.00000  Uiso   1.00
C474   C     0.53195   0.79301   0.45864   0.00000  Uiso   1.00
C475   C     0.55646   0.77715   0.47812   0.00000  Uiso   1.00
C476   C     0.61448   0.84038   0.24125   0.00000  Uiso   1.00
C477   C     0.54744   0.78317   0.01933   0.00000  Uiso   1.00
C478   C     0.51006   0.80243   0.04112   0.00000  Uiso   1.00
C479   C     0.57547   0.77110   0.03898   0.00000  Uiso   1.00
C480   C     0.56758   0.78057   0.08041   0.00000  Uiso   1.00
C481   C     0.50471   0.81366   0.08162   0.00000  Uiso   1.00
C482   C     0.66054   0.84388   0.23785   0.00000  Uiso   1.00
C483   C     0.34064   0.82420   0.26201   0.00000  Uiso   1.00
C484   C     0.42710   0.87337   0.42157   0.00000  Uiso   1.00
C485   C     0.51237   0.98823   0.23593   0.00000  Uiso   1.00
C486   C     0.48715   0.68006   0.26412   0.00000  Uiso   1.00
C487   C     0.48934   0.72313   0.25941   0.00000  Uiso   1.00
C488   C     0.51004   0.94430   0.24112   0.00000  Uiso   1.00
C489   C     0.52143   0.81227   0.14398   0.00000  Uiso   1.00
C490   C     0.47873   0.85406   0.35631   0.00000  Uiso   1.00
C491   C     0.46536   0.85719   0.39987   0.00000  Uiso   1.00
C492   C     0.53193   0.80210   0.10117   0.00000  Uiso   1.00
C493   C     0.41131   0.86965   0.46202   0.00000  Uiso   1.00
C494   C     0.54186   0.66916   0.19787   0.00000  Uiso   1.00
C495   C     0.48878   0.83935   0.41949   0.00000  Uiso   1.00
C496   C     0.46365   0.66965   0.30496   0.00000  Uiso   1.00
C497   C     0.59546   0.76829   0.10284   0.00000  Uiso   1.00
C498   C     0.41460   0.80407   0.07913   0.00000  Uiso   1.00
C499   C     0.47268   0.83355   0.46008   0.00000  Uiso   1.00
C500   C     0.43299   0.84887   0.48169   0.00000  Uiso   1.00
C501   C     0.49548   0.81348   0.47958   0.00000  Uiso   1.00
C502   C     0.48096   0.81294   0.02125   0.00000  Uiso   1.00
C503   C     0.43786   0.82196   0.04120   0.00000  Uiso   1.00
C504   C     0.41475   0.84145   0.02175   0.00000  Uiso   1.00
H505   H     0.65156   0.80545   0.28391   0.00000  Uiso   1.00
H506   H     0.58209   0.76343   0.13389   0.00000  Uiso   1.00
H507   H     0.42140   0.77404   0.08405   0.00000  Uiso   1.00
H508   H     0.48036   0.83327   0.09849   0.00000  Uiso   1.00
H509   H     0.58386   0.76193   0.46001   0.00000  Uiso   1.00
H510   H     0.38139   0.88244   0.47723   0.00000  Uiso   1.00
H511   H     0.40852   0.88762   0.40708   0.00000  Uiso   1.00
H512   H     0.51966   0.83016   0.40208   0.00000  Uiso   1.00
H513   H     0.54185   0.78752   0.42686   0.00000  Uiso   1.00
H514   H     0.55369   0.97977   0.17333   0.00000  Uiso   1.00
H515   H     0.43170   0.67931   0.31874   0.00000  Uiso   1.00
O516   O     0.50000   0.83333   0.25000   0.00000  Uiso   1.00
O517   O     0.49027   0.79060   0.16625   0.00000  Uiso   1.00
O518   O     0.46020   0.87313   0.33749   0.00000  Uiso   1.00
O519   O     0.54421   0.84159   0.15877   0.00000  Uiso   1.00
O520   O     0.50532   0.82802   0.33749   0.00000  Uiso   1.00
O521   O     0.55432   0.70567   0.19359   0.00000  Uiso   1.00
O522   O     0.48107   0.98684   0.32450   0.00000  Uiso   1.00
O523   O     0.63380   0.76500   0.08776   0.00000  Uiso   1.00
O524   O     0.38961   0.82311   0.10577   0.00000  Uiso   1.00
O525   O     0.51182   0.74768   0.27820   0.00000  Uiso   1.00
O526   O     0.47914   0.92803   0.26767   0.00000  Uiso   1.00
O527   O     0.40785   0.79917   0.23607   0.00000  Uiso   1.00
O528   O     0.60119   0.85845   0.21805   0.00000  Uiso   1.00
O529   O     0.40323   0.85627   0.27820   0.00000  Uiso   1.00
O530   O     0.58773   0.81944   0.26767   0.00000  Uiso   1.00
O531   O     0.47133   0.73570   0.23607   0.00000  Uiso   1.00
O532   O     0.53771   0.92193   0.21805   0.00000  Uiso   1.00
Zn533  Zn    0.52577   0.80756   0.28277   0.00000  Uiso   1.00
Zn534  Zn    0.46792   0.79044   0.22257   0.00000  Uiso   1.00
Zn535  Zn    0.54500   0.86331   0.21188   0.00000  Uiso   1.00
Zn536  Zn    0.46131   0.87202   0.28277   0.00000  Uiso   1.00
Br537  Br    0.68982   0.85477   0.04874   0.00000  Uiso   1.00
Br538  Br    0.95628   0.73989   0.00945   0.00000  Uiso   1.00
Br539  Br    0.70036   0.87690   0.19872   0.00000  Uiso   1.00
C540   C     0.71917   0.82625   0.25919   0.00000  Uiso   1.00
C541   C     0.86528   0.79301   0.45864   0.00000  Uiso   1.00
C542   C     0.88980   0.77715   0.47812   0.00000  Uiso   1.00
C543   C     0.94781   0.84038   0.24125   0.00000  Uiso   1.00
C544   C     0.88078   0.78317   0.01933   0.00000  Uiso   1.00
C545   C     0.84340   0.80243   0.04112   0.00000  Uiso   1.00
C546   C     0.90881   0.77110   0.03898   0.00000  Uiso   1.00
C547   C     0.90092   0.78057   0.08041   0.00000  Uiso   1.00
C548   C     0.83804   0.81366   0.08162   0.00000  Uiso   1.00
C549   C     0.99387   0.84388   0.23785   0.00000  Uiso   1.00
C550   C     0.67397   0.82420   0.26201   0.00000  Uiso   1.00
C551   C     0.76044   0.87337   0.42157   0.00000  Uiso   1.00
C552   C     0.84570   0.98823   0.23593   0.00000  Uiso   1.00
C553   C     0.82049   0.68006   0.26412   0.00000  Uiso   1.00
C554   C     0.82267   0.72313   0.25941   0.00000  Uiso   1.00
C555   C     0.84337   0.94430   0.24112   0.00000  Uiso   1.00
C556   C     0.85476   0.81227   0.14398   0.00000  Uiso   1.00
C557   C     0.81206   0.85406   0.35631   0.00000  Uiso   1.00
C558   C     0.79869   0.85719   0.39987   0.00000  Uiso   1.00
C559   C     0.86526   0.80210   0.10117   0.00000  Uiso   1.00
C560   C     0.74464   0.86965   0.46202   0.00000  Uiso   1.00
C561   C     0.87520   0.66916   0.19787   0.00000  Uiso   1.00
C562   C     0.82211   0.83935   0.41949   0.00000  Uiso   1.00
C563   C     0.79699   0.66965   0.30496   0.00000  Uiso   1.00
C564   C     0.92879   0.76829   0.10284   0.00000  Uiso   1.00
C565   C     0.74793   0.80407   0.07913   0.00000  Uiso   1.00
C566   C     0.80601   0.83355   0.46008   0.00000  Uiso   1.00
C567   C     0.76632   0.84887   0.48169   0.00000  Uiso   1.00
C568   C     0.82881   0.81348   0.47958   0.00000  Uiso   1.00
C569   C     0.81429   0.81294   0.02125   0.00000  Uiso   1.00
C570   C     0.77119   0.82196   0.04120   0.00000  Uiso   1.00
C571   C     0.74808   0.84145   0.02175   0.00000  Uiso   1.00
H572   H     0.98490   0.80545   0.28391   0.00000  Uiso   1.00
H573   H     0.91542   0.76343   0.13389   0.00000  Uiso   1.00
H574   H     0.75474   0.77404   0.08405   0.00000  Uiso   1.00
H575   H     0.81369   0.83327   0.09849   0.00000  Uiso   1.00
H576   H     0.91720   0.76193   0.46001   0.00000  Uiso   1.00
H577   H     0.71472   0.88244   0.47723   0.00000  Uiso   1.00
H578   H     0.74185   0.88762   0.40708   0.00000  Uiso   1.00
H579   H     0.85299   0.83016   0.40208   0.00000  Uiso   1.00
H580   H     0.87519   0.78752   0.42686   0.00000  Uiso   1.00
H581   H     0.88702   0.97977   0.17333   0.00000  Uiso   1.00
H582   H     0.76503   0.67931   0.31874   0.00000  Uiso   1.00
O583   O     0.83333   0.83333   0.25000   0.00000  Uiso   1.00
O584   O     0.82360   0.79060   0.16625   0.00000  Uiso   1.00
O585   O     0.79354   0.87313   0.33749   0.00000  Uiso   1.00
O586   O     0.87755   0.84159   0.15877   0.00000  Uiso   1.00
O587   O     0.83865   0.82802   0.33749   0.00000  Uiso   1.00
O588   O     0.88765   0.70567   0.19359   0.00000  Uiso   1.00
O589   O     0.81440   0.98684   0.32450   0.00000  Uiso   1.00
O590   O     0.96714   0.76500   0.08776   0.00000  Uiso   1.00
O591   O     0.72295   0.82311   0.10577   0.00000  Uiso   1.00
O592   O     0.84515   0.74768   0.27820   0.00000  Uiso   1.00
O593   O     0.81247   0.92803   0.26767   0.00000  Uiso   1.00
O594   O     0.74119   0.79917   0.23607   0.00000  Uiso   1.00
O595   O     0.93452   0.85845   0.21805   0.00000  Uiso   1.00
O596   O     0.73656   0.85627   0.27820   0.00000  Uiso   1.00
O597   O     0.92106   0.81944   0.26767   0.00000  Uiso   1.00
O598   O     0.80467   0.73570   0.23607   0.00000  Uiso   1.00
O599   O     0.87104   0.92193   0.21805   0.00000  Uiso   1.00
Zn600  Zn    0.85910   0.80756   0.28277   0.00000  Uiso   1.00
Zn601  Zn    0.80125   0.79044   0.22257   0.00000  Uiso   1.00
Zn602  Zn    0.87833   0.86331   0.21188   0.00000  Uiso   1.00
Zn603  Zn    0.79465   0.87202   0.28277   0.00000  Uiso   1.00
Br604  Br    0.02315   0.18810   0.54874   0.00000  Uiso   1.00
Br605  Br    0.28961   0.07322   0.50945   0.00000  Uiso   1.00
Br606  Br    0.03370   0.21024   0.69872   0.00000  Uiso   1.00
C607   C     0.05251   0.15959   0.75919   0.00000  Uiso   1.00
C608   C     0.19861   0.12634   0.95864   0.00000  Uiso   1.00
C609   C     0.22313   0.11048   0.97812   0.00000  Uiso   1.00
C610   C     0.28115   0.17372   0.74125   0.00000  Uiso   1.00
C611   C     0.21411   0.11651   0.51933   0.00000  Uiso   1.00
C612   C     0.17673   0.13576   0.54112   0.00000  Uiso   1.00
C613   C     0.24214   0.10443   0.53898   0.00000  Uiso   1.00
C614   C     0.23425   0.11391   0.58041   0.00000  Uiso   1.00
C615   C     0.17138   0.14700   0.58162   0.00000  Uiso   1.00
C616   C     0.32721   0.17721   0.73785   0.00000  Uiso   1.00
C617   C     0.00731   0.15754   0.76201   0.00000  Uiso   1.00
C618   C     0.09377   0.20670   0.92157   0.00000  Uiso   1.00
C619   C     0.17903   0.32156   0.73593   0.00000  Uiso   1.00
C620   C     0.15382   0.01339   0.76412   0.00000  Uiso   1.00
C621   C     0.15601   0.05647   0.75941   0.00000  Uiso   1.00
C622   C     0.17671   0.27763   0.74112   0.00000  Uiso   1.00
C623   C     0.18809   0.14561   0.64398   0.00000  Uiso   1.00
C624   C     0.14540   0.18740   0.85631   0.00000  Uiso   1.00
C625   C     0.13202   0.19053   0.89987   0.00000  Uiso   1.00
C626   C     0.19860   0.13543   0.60117   0.00000  Uiso   1.00
C627   C     0.07797   0.20298   0.96202   0.00000  Uiso   1.00
C628   C     0.20853   0.00249   0.69787   0.00000  Uiso   1.00
C629   C     0.15545   0.17269   0.91949   0.00000  Uiso   1.00
C630   C     0.13032   0.00298   0.80496   0.00000  Uiso   1.00
C631   C     0.26212   0.10162   0.60284   0.00000  Uiso   1.00
C632   C     0.08127   0.13740   0.57913   0.00000  Uiso   1.00
C633   C     0.13935   0.16688   0.96008   0.00000  Uiso   1.00
C634   C     0.09965   0.18220   0.98169   0.00000  Uiso   1.00
C635   C     0.16214   0.14681   0.97958   0.00000  Uiso   1.00
C636   C     0.14763   0.14627   0.52125   0.00000  Uiso   1.00
C637   C     0.10453   0.15530   0.54120   0.00000  Uiso   1.00
C638   C     0.08141   0.17478   0.52175   0.00000  Uiso   1.00
H639   H     0.31823   0.13879   0.78391   0.00000  Uiso   1.00
H640   H     0.24875   0.09676   0.63389   0.00000  Uiso   1.00
H641   H     0.08807   0.10737   0.58405   0.00000  Uiso   1.00
H642   H     0.14703   0.16660   0.59849   0.00000  Uiso   1.00
H643   H     0.25053   0.09527   0.96001   0.00000  Uiso   1.00
H644   H     0.04805   0.21578   0.97723   0.00000  Uiso   1.00
H645   H     0.07519   0.22096   0.90708   0.00000  Uiso   1.00
H646   H     0.18633   0.16349   0.90208   0.00000  Uiso   1.00
H647   H     0.20852   0.12085   0.92686   0.00000  Uiso   1.00
H648   H     0.22035   0.31310   0.67333   0.00000  Uiso   1.00
H649   H     0.09836   0.01264   0.81874   0.00000  Uiso   1.00
O650   O     0.16667   0.16667   0.75000   0.00000  Uiso   1.00
O651   O     0.15693   0.12393   0.66625   0.00000  Uiso   1.00
O652   O     0.12687   0.20646   0.83749   0.00000  Uiso   1.00
O653   O     0.21088   0.17493   0.65877   0.00000  Uiso   1.00
O654   O     0.17198   0.16135   0.83749   0.00000  Uiso   1.00
O655   O     0.22098   0.03900   0.69359   0.00000  Uiso   1.00
O656   O     0.14773   0.32017   0.82450   0.00000  Uiso   1.00
O657   O     0.30047   0.09834   0.58776   0.00000  Uiso   1.00
O658   O     0.05628   0.15644   0.60577   0.00000  Uiso   1.00
O659   O     0.17849   0.08101   0.77820   0.00000  Uiso   1.00
O660   O     0.14581   0.26136   0.76767   0.00000  Uiso   1.00
O661   O     0.07452   0.13251   0.73607   0.00000  Uiso   1.00
O662   O     0.26785   0.19179   0.71805   0.00000  Uiso   1.00
O663   O     0.06990   0.18960   0.77820   0.00000  Uiso   1.00
O664   O     0.25440   0.15277   0.76767   0.00000  Uiso   1.00
O665   O     0.13800   0.06903   0.73607   0.00000  Uiso   1.00
O666   O     0.20437   0.25527   0.71805   0.00000  Uiso   1.00
Zn667  Zn    0.19244   0.14090   0.78277   0.00000  Uiso   1.00
Zn668  Zn    0.13459   0.12378   0.72257   0.00000  Uiso   1.00
Zn669  Zn    0.21166   0.19664   0.71188   0.00000  Uiso   1.00
Zn670  Zn    0.12798   0.20535   0.78277   0.00000  Uiso   1.00
Br671  Br    0.35649   0.18810   0.54874   0.00000  Uiso   1.00
Br672  Br    0.62295   0.07322   0.50945   0.00000  Uiso   1.00
Br673  Br    0.36703   0.21024   0.69872   0.00000  Uiso   1.00
C674   C     0.38584   0.15959   0.75919   0.00000  Uiso   1.00
C675   C     0.53195   0.12634   0.95864   0.00000  Uiso   1.00
C676   C     0.55646   0.11048   0.97812   0.00000  Uiso   1.00
C677   C     0.61448   0.17372   0.74125   0.00000  Uiso   1.00
C678   C     0.54744   0.11651   0.51933   0.00000  Uiso   1.00
C679   C     0.51006   0.13576   0.54112   0.00000  Uiso   1.00
C680   C     0.57547   0.10443   0.53898   0.00000  Uiso   1.00
C681   C     0.56758   0.11391   0.58041   0.00000  Uiso   1.00
C682   C     0.50471   0.14700   0.58162   0.00000  Uiso   1.00
C683   C     0.66054   0.17721   0.73785   0.00000  Uiso   1.00
C684   C     0.34064   0.15754   0.76201   0.00000  Uiso   1.00
C685   C     0.42710   0.20670   0.92157   0.00000  Uiso   1.00
C686   C     0.51237   0.32156   0.73593   0.00000  Uiso   1.00
C687   C     0.48715   0.01339   0.76412   0.00000  Uiso   1.00
C688   C     0.48934   0.05647   0.75941   0.00000  Uiso   1.00
C689   C     0.51004   0.27763   0.74112   0.00000  Uiso   1.00
C690   C     0.52143   0.14561   0.64398   0.00000  Uiso   1.00
C691   C     0.47873   0.18740   0.85631   0.00000  Uiso   1.00
C692   C     0.46536   0.19053   0.89987   0.00000  Uiso   1.00
C693   C     0.53193   0.13543   0.60117   0.00000  Uiso   1.00
C694   C     0.41131   0.20298   0.96202   0.00000  Uiso   1.00
C695   C     0.54186   0.00249   0.69787   0.00000  Uiso   1.00
C696   C     0.48878   0.17269   0.91949   0.00000  Uiso   1.00
C697   C     0.46365   0.00298   0.80496   0.00000  Uiso   1.00
C698   C     0.59546   0.10162   0.60284   0.00000  Uiso   1.00
C699   C     0.41460   0.13740   0.57913   0.00000  Uiso   1.00
C700   C     0.47268   0.16688   0.96008   0.00000  Uiso   1.00
C701   C     0.43299   0.18220   0.98169   0.00000  Uiso   1.00
C702   C     0.49548   0.14681   0.97958   0.00000  Uiso   1.00
C703   C     0.48096   0.14627   0.52125   0.00000  Uiso   1.00
C704   C     0.43786   0.15530   0.54120   0.00000  Uiso   1.00
C705   C     0.41475   0.17478   0.52175   0.00000  Uiso   1.00
H706   H     0.65156   0.13879   0.78391   0.00000  Uiso   1.00
H707   H     0.58209   0.09676   0.63389   0.00000  Uiso   1.00
H708   H     0.42140   0.10737   0.58405   0.00000  Uiso   1.00
H709   H     0.48036   0.16660   0.59849   0.00000  Uiso   1.00
H710   H     0.58386   0.09527   0.96001   0.00000  Uiso   1.00
H711   H     0.38139   0.21578   0.97723   0.00000  Uiso   1.00
H712   H     0.40852   0.22096   0.90708   0.00000  Uiso   1.00
H713   H     0.51966   0.16349   0.90208   0.00000  Uiso   1.00
H714   H     0.54185   0.12085   0.92686   0.00000  Uiso   1.00
H715   H     0.55369   0.31310   0.67333   0.00000  Uiso   1.00
H716   H     0.43170   0.01264   0.81874   0.00000  Uiso   1.00
O717   O     0.50000   0.16667   0.75000   0.00000  Uiso   1.00
O718   O     0.49027   0.12393   0.66625   0.00000  Uiso   1.00
O719   O     0.46020   0.20646   0.83749   0.00000  Uiso   1.00
O720   O     0.54421   0.17493   0.65877   0.00000  Uiso   1.00
O721   O     0.50532   0.16135   0.83749   0.00000  Uiso   1.00
O722   O     0.55432   0.03900   0.69359   0.00000  Uiso   1.00
O723   O     0.48107   0.32017   0.82450   0.00000  Uiso   1.00
O724   O     0.63380   0.09834   0.58776   0.00000  Uiso   1.00
O725   O     0.38961   0.15644   0.60577   0.00000  Uiso   1.00
O726   O     0.51182   0.08101   0.77820   0.00000  Uiso   1.00
O727   O     0.47914   0.26136   0.76767   0.00000  Uiso   1.00
O728   O     0.40785   0.13251   0.73607   0.00000  Uiso   1.00
O729   O     0.60119   0.19179   0.71805   0.00000  Uiso   1.00
O730   O     0.40323   0.18960   0.77820   0.00000  Uiso   1.00
O731   O     0.58773   0.15277   0.76767   0.00000  Uiso   1.00
O732   O     0.47133   0.06903   0.73607   0.00000  Uiso   1.00
O733   O     0.53771   0.25527   0.71805   0.00000  Uiso   1.00
Zn734  Zn    0.52577   0.14090   0.78277   0.00000  Uiso   1.00
Zn735  Zn    0.46792   0.12378   0.72257   0.00000  Uiso   1.00
Zn736  Zn    0.54500   0.19664   0.71188   0.00000  Uiso   1.00
Zn737  Zn    0.46131   0.20535   0.78277   0.00000  Uiso   1.00
Br738  Br    0.68982   0.18810   0.54874   0.00000  Uiso   1.00
Br739  Br    0.95628   0.07322   0.50945   0.00000  Uiso   1.00
Br740  Br    0.70036   0.21024   0.69872   0.00000  Uiso   1.00
C741   C     0.71917   0.15959   0.75919   0.00000  Uiso   1.00
C742   C     0.86528   0.12634   0.95864   0.00000  Uiso   1.00
C743   C     0.88980   0.11048   0.97812   0.00000  Uiso   1.00
C744   C     0.94781   0.17372   0.74125   0.00000  Uiso   1.00
C745   C     0.88078   0.11651   0.51933   0.00000  Uiso   1.00
C746   C     0.84340   0.13576   0.54112   0.00000  Uiso   1.00
C747   C     0.90881   0.10443   0.53898   0.00000  Uiso   1.00
C748   C     0.90092   0.11391   0.58041   0.00000  Uiso   1.00
C749   C     0.83804   0.14700   0.58162   0.00000  Uiso   1.00
C750   C     0.99387   0.17721   0.73785   0.00000  Uiso   1.00
C751   C     0.67397   0.15754   0.76201   0.00000  Uiso   1.00
C752   C     0.76044   0.20670   0.92157   0.00000  Uiso   1.00
C753   C     0.84570   0.32156   0.73593   0.00000  Uiso   1.00
C754   C     0.82049   0.01339   0.76412   0.00000  Uiso   1.00
C755   C     0.82267   0.05647   0.75941   0.00000  Uiso   1.00
C756   C     0.84337   0.27763   0.74112   0.00000  Uiso   1.00
C757   C     0.85476   0.14561   0.64398   0.00000  Uiso   1.00
C758   C     0.81206   0.18740   0.85631   0.00000  Uiso   1.00
C759   C     0.79869   0.19053   0.89987   0.00000  Uiso   1.00
C760   C     0.86526   0.13543   0.60117   0.00000  Uiso   1.00
C761   C     0.74464   0.20298   0.96202   0.00000  Uiso   1.00
C762   C     0.87520   0.00249   0.69787   0.00000  Uiso   1.00
C763   C     0.82211   0.17269   0.91949   0.00000  Uiso   1.00
C764   C     0.79699   0.00298   0.80496   0.00000  Uiso   1.00
C765   C     0.92879   0.10162   0.60284   0.00000  Uiso   1.00
C766   C     0.74793   0.13740   0.57913   0.00000  Uiso   1.00
C767   C     0.80601   0.16688   0.96008   0.00000  Uiso   1.00
C768   C     0.76632   0.18220   0.98169   0.00000  Uiso   1.00
C769   C     0.82881   0.14681   0.97958   0.00000  Uiso   1.00
C770   C     0.81429   0.14627   0.52125   0.00000  Uiso   1.00
C771   C     0.77119   0.15530   0.54120   0.00000  Uiso   1.00
C772   C     0.74808   0.17478   0.52175   0.00000  Uiso   1.00
H773   H     0.98490   0.13879   0.78391   0.00000  Uiso   1.00
H774   H     0.91542   0.09676   0.63389   0.00000  Uiso   1.00
H775   H     0.75474   0.10737   0.58405   0.00000  Uiso   1.00
H776   H     0.81369   0.16660   0.59849   0.00000  Uiso   1.00
H777   H     0.91720   0.09527   0.96001   0.00000  Uiso   1.00
H778   H     0.71472   0.21578   0.97723   0.00000  Uiso   1.00
H779   H     0.74185   0.22096   0.90708   0.00000  Uiso   1.00
H780   H     0.85299   0.16349   0.90208   0.00000  Uiso   1.00
H781   H     0.87519   0.12085   0.92686   0.00000  Uiso   1.00
H782   H     0.88702   0.31310   0.67333   0.00000  Uiso   1.00
H783   H     0.76503   0.01264   0.81874   0.00000  Uiso   1.00
O784   O     0.83333   0.16667   0.75000   0.00000  Uiso   1.00
O785   O     0.82360   0.12393   0.66625   0.00000  Uiso   1.00
O786   O     0.79354   0.20646   0.83749   0.00000  Uiso   1.00
O787   O     0.87755   0.17493   0.65877   0.00000  Uiso   1.00
O788   O     0.83865   0.16135   0.83749   0.00000  Uiso   1.00
O789   O     0.88765   0.03900   0.69359   0.00000  Uiso   1.00
O790   O     0.81440   0.32017   0.82450   0.00000  Uiso   1.00
O791   O     0.96714   0.09834   0.58776   0.00000  Uiso   1.00
O792   O     0.72295   0.15644   0.60577   0.00000  Uiso   1.00
O793   O     0.84515   0.08101   0.77820   0.00000  Uiso   1.00
O794   O     0.81247   0.26136   0.76767   0.00000  Uiso   1.00
O795   O     0.74119   0.13251   0.73607   0.00000  Uiso   1.00
O796   O     0.93452   0.19179   0.71805   0.00000  Uiso   1.00
O797   O     0.73656   0.18960   0.77820   0.00000  Uiso   1.00
O798   O     0.92106   0.15277   0.76767   0.00000  Uiso   1.00
O799   O     0.80467   0.06903   0.73607   0.00000  Uiso   1.00
O800   O     0.87104   0.25527   0.71805   0.00000  Uiso   1.00
Zn801  Zn    0.85910   0.14090   0.78277   0.00000  Uiso   1.00
Zn802  Zn    0.80125   0.12378   0.72257   0.00000  Uiso   1.00
Zn803  Zn    0.87833   0.19664   0.71188   0.00000  Uiso   1.00
Zn804  Zn    0.79465   0.20535   0.78277   0.00000  Uiso   1.00
Br805  Br    0.02315   0.52144   0.54874   0.00000  Uiso   1.00
Br806  Br    0.28961   0.40655   0.50945   0.00000  Uiso   1.00
Br807  Br    0.03370   0.54357   0.69872   0.00000  Uiso   1.00
C808   C     0.05251   0.49292   0.75919   0.00000  Uiso   1.00
C809   C     0.19861   0.45968   0.95864   0.00000  Uiso   1.00
C810   C     0.22313   0.44381   0.97812   0.00000  Uiso   1.00
C811   C     0.28115   0.50705   0.74125   0.00000  Uiso   1.00
C812   C     0.21411   0.44984   0.51933   0.00000  Uiso   1.00
C813   C     0.17673   0.46909   0.54112   0.00000  Uiso   1.00
C814   C     0.24214   0.43777   0.53898   0.00000  Uiso   1.00
C815   C     0.23425   0.44724   0.58041   0.00000  Uiso   1.00
C816   C     0.17138   0.48033   0.58162   0.00000  Uiso   1.00
C817   C     0.32721   0.51055   0.73785   0.00000  Uiso   1.00
C818   C     0.00731   0.49087   0.76201   0.00000  Uiso   1.00
C819   C     0.09377   0.54004   0.92157   0.00000  Uiso   1.00
C820   C     0.17903   0.65490   0.73593   0.00000  Uiso   1.00
C821   C     0.15382   0.34672   0.76412   0.00000  Uiso   1.00
C822   C     0.15601   0.38980   0.75941   0.00000  Uiso   1.00
C823   C     0.17671   0.61096   0.74112   0.00000  Uiso   1.00
C824   C     0.18809   0.47894   0.64398   0.00000  Uiso   1.00
C825   C     0.14540   0.52073   0.85631   0.00000  Uiso   1.00
C826   C     0.13202   0.52386   0.89987   0.00000  Uiso   1.00
C827   C     0.19860   0.46876   0.60117   0.00000  Uiso   1.00
C828   C     0.07797   0.53632   0.96202   0.00000  Uiso   1.00
C829   C     0.20853   0.33582   0.69787   0.00000  Uiso   1.00
C830   C     0.15545   0.50602   0.91949   0.00000  Uiso   1.00
C831   C     0.13032   0.33631   0.80496   0.00000  Uiso   1.00
C832   C     0.26212   0.43495   0.60284   0.00000  Uiso   1.00
C833   C     0.08127   0.47073   0.57913   0.00000  Uiso   1.00
C834   C     0.13935   0.50021   0.96008   0.00000  Uiso   1.00
C835   C     0.09965   0.51554   0.98169   0.00000  Uiso   1.00
C836   C     0.16214   0.48015   0.97958   0.00000  Uiso   1.00
C837   C     0.14763   0.47960   0.52125   0.00000  Uiso   1.00
C838   C     0.10453   0.48863   0.54120   0.00000  Uiso   1.00
C839   C     0.08141   0.50812   0.52175   0.00000  Uiso   1.00
H840   H     0.31823   0.47212   0.78391   0.00000  Uiso   1.00
H841   H     0.24875   0.43010   0.63389   0.00000  Uiso   1.00
H842   H     0.08807   0.44071   0.58405   0.00000  Uiso   1.00
H843   H     0.14703   0.49993   0.59849   0.00000  Uiso   1.00
H844   H     0.25053   0.42860   0.96001   0.00000  Uiso   1.00
H845   H     0.04805   0.54911   0.97723   0.00000  Uiso   1.00
H846   H     0.07519   0.55429   0.90708   0.00000  Uiso   1.00
H847   H     0.18633   0.49683   0.90208   0.00000  Uiso   1.00
H848   H     0.20852   0.45418   0.92686   0.00000  Uiso   1.00
H849   H     0.22035   0.64644   0.67333   0.00000  Uiso   1.00
H850   H     0.09836   0.34598   0.81874   0.00000  Uiso   1.00
O851   O     0.16667   0.50000   0.75000   0.00000  Uiso   1.00
O852   O     0.15693   0.45726   0.66625   0.00000  Uiso   1.00
O853   O     0.12687   0.53979   0.83749   0.00000  Uiso   1.00
O854   O     0.21088   0.50826   0.65877   0.00000  Uiso   1.00
O855   O     0.17198   0.49468   0.83749   0.00000  Uiso   1.00
O856   O     0.22098   0.37233   0.69359   0.00000  Uiso   1.00
O857   O     0.14773   0.65351   0.82450   0.00000  Uiso   1.00
O858   O     0.30047   0.43167   0.58776   0.00000  Uiso   1.00
O859   O     0.05628   0.48978   0.60577   0.00000  Uiso   1.00
O860   O     0.17849   0.41434   0.77820   0.00000  Uiso   1.00
O861   O     0.14581   0.59469   0.76767   0.00000  Uiso   1.00
O862   O     0.07452   0.46584   0.73607   0.00000  Uiso   1.00
O863   O     0.26785   0.52512   0.71805   0.00000  Uiso   1.00
O864   O     0.06990   0.52293   0.77820   0.00000  Uiso   1.00
O865   O     0.25440   0.48610   0.76767   0.00000  Uiso   1.00
O866   O     0.13800   0.40236   0.73607   0.00000  Uiso   1.00
O867   O     0.20437   0.58860   0.71805   0.00000  Uiso   1.00
Zn868  Zn    0.19244   0.47423   0.78277   0.00000  Uiso   1.00
Zn869  Zn    0.13459   0.45711   0.72257   0.00000  Uiso   1.00
Zn870  Zn    0.21166   0.52997   0.71188   0.00000  Uiso   1.00
Zn871  Zn    0.12798   0.53868   0.78277   0.00000  Uiso   1.00
Br872  Br    0.35649   0.52144   0.54874   0.00000  Uiso   1.00
Br873  Br    0.62295   0.40655   0.50945   0.00000  Uiso   1.00
Br874  Br    0.36703   0.54357   0.69872   0.00000  Uiso   1.00
C875   C     0.38584   0.49292   0.75919   0.00000  Uiso   1.00
C876   C     0.53195   0.45968   0.95864   0.00000  Uiso   1.00
C877   C     0.55646   0.44381   0.97812   0.00000  Uiso   1.00
C878   C     0.61448   0.50705   0.74125   0.00000  Uiso   1.00
C879   C     0.54744   0.44984   0.51933   0.00000  Uiso   1.00
C880   C     0.51006   0.46909   0.54112   0.00000  Uiso   1.00
C881   C     0.57547   0.43777   0.53898   0.00000  Uiso   1.00
C882   C     0.56758   0.44724   0.58041   0.00000  Uiso   1.00
C883   C     0.50471   0.48033   0.58162   0.00000  Uiso   1.00
C884   C     0.66054   0.51055   0.73785   0.00000  Uiso   1.00
C885   C     0.34064   0.49087   0.76201   0.00000  Uiso   1.00
C886   C     0.42710   0.54004   0.92157   0.00000  Uiso   1.00
C887   C     0.51237   0.65490   0.73593   0.00000  Uiso   1.00
C888   C     0.48715   0.34672   0.76412   0.00000  Uiso   1.00
C889   C     0.48934   0.38980   0.75941   0.00000  Uiso   1.00
C890   C     0.51004   0.61096   0.74112   0.00000  Uiso   1.00
C891   C     0.52143   0.47894   0.64398   0.00000  Uiso   1.00
C892   C     0.47873   0.52073   0.85631   0.00000  Uiso   1.00
C893   C     0.46536   0.52386   0.89987   0.00000  Uiso   1.00
C894   C     0.53193   0.46876   0.60117   0.00000  Uiso   1.00
C895   C     0.41131   0.53632   0.96202   0.00000  Uiso   1.00
C896   C     0.54186   0.33582   0.69787   0.00000  Uiso   1.00
C897   C     0.48878   0.50602   0.91949   0.00000  Uiso   1.00
C898   C     0.46365   0.33631   0.80496   0.00000  Uiso   1.00
C899   C     0.59546   0.43495   0.60284   0.00000  Uiso   1.00
C900   C     0.41460   0.47073   0.57913   0.00000  Uiso   1.00
C901   C     0.47268   0.50021   0.96008   0.00000  Uiso   1.00
C902   C     0.43299   0.51554   0.98169   0.00000  Uiso   1.00
C903   C     0.49548   0.48015   0.97958   0.00000  Uiso   1.00
C904   C     0.48096   0.47960   0.52125   0.00000  Uiso   1.00
C905   C     0.43786   0.48863   0.54120   0.00000  Uiso   1.00
C906   C     0.41475   0.50812   0.52175   0.00000  Uiso   1.00
H907   H     0.65156   0.47212   0.78391   0.00000  Uiso   1.00
H908   H     0.58209   0.43010   0.63389   0.00000  Uiso   1.00
H909   H     0.42140   0.44071   0.58405   0.00000  Uiso   1.00
H910   H     0.48036   0.49993   0.59849   0.00000  Uiso   1.00
H911   H     0.58386   0.42860   0.96001   0.00000  Uiso   1.00
H912   H     0.38139   0.54911   0.97723   0.00000  Uiso   1.00
H913   H     0.40852   0.55429   0.90708   0.00000  Uiso   1.00
H914   H     0.51966   0.49683   0.90208   0.00000  Uiso   1.00
H915   H     0.54185   0.45418   0.92686   0.00000  Uiso   1.00
H916   H     0.55369   0.64644   0.67333   0.00000  Uiso   1.00
H917   H     0.43170   0.34598   0.81874   0.00000  Uiso   1.00
O918   O     0.50000   0.50000   0.75000   0.00000  Uiso   1.00
O919   O     0.49027   0.45726   0.66625   0.00000  Uiso   1.00
O920   O     0.46020   0.53979   0.83749   0.00000  Uiso   1.00
O921   O     0.54421   0.50826   0.65877   0.00000  Uiso   1.00
O922   O     0.50532   0.49468   0.83749   0.00000  Uiso   1.00
O923   O     0.55432   0.37233   0.69359   0.00000  Uiso   1.00
O924   O     0.48107   0.65351   0.82450   0.00000  Uiso   1.00
O925   O     0.63380   0.43167   0.58776   0.00000  Uiso   1.00
O926   O     0.38961   0.48978   0.60577   0.00000  Uiso   1.00
O927   O     0.51182   0.41434   0.77820   0.00000  Uiso   1.00
O928   O     0.47914   0.59469   0.76767   0.00000  Uiso   1.00
O929   O     0.40785   0.46584   0.73607   0.00000  Uiso   1.00
O930   O     0.60119   0.52512   0.71805   0.00000  Uiso   1.00
O931   O     0.40323   0.52293   0.77820   0.00000  Uiso   1.00
O932   O     0.58773   0.48610   0.76767   0.00000  Uiso   1.00
O933   O     0.47133   0.40236   0.73607   0.00000  Uiso   1.00
O934   O     0.53771   0.58860   0.71805   0.00000  Uiso   1.00
Zn935  Zn    0.52577   0.47423   0.78277   0.00000  Uiso   1.00
Zn936  Zn    0.46792   0.45711   0.72257   0.00000  Uiso   1.00
Zn937  Zn    0.54500   0.52997   0.71188   0.00000  Uiso   1.00
Zn938  Zn    0.46131   0.53868   0.78277   0.00000  Uiso   1.00
Br939  Br    0.68982   0.52144   0.54874   0.00000  Uiso   1.00
Br940  Br    0.95628   0.40655   0.50945   0.00000  Uiso   1.00
Br941  Br    0.70036   0.54357   0.69872   0.00000  Uiso   1.00
C942   C     0.71917   0.49292   0.75919   0.00000  Uiso   1.00
C943   C     0.86528   0.45968   0.95864   0.00000  Uiso   1.00
C944   C     0.88980   0.44381   0.97812   0.00000  Uiso   1.00
C945   C     0.94781   0.50705   0.74125   0.00000  Uiso   1.00
C946   C     0.88078   0.44984   0.51933   0.00000  Uiso   1.00
C947   C     0.84340   0.46909   0.54112   0.00000  Uiso   1.00
C948   C     0.90881   0.43777   0.53898   0.00000  Uiso   1.00
C949   C     0.90092   0.44724   0.58041   0.00000  Uiso   1.00
C950   C     0.83804   0.48033   0.58162   0.00000  Uiso   1.00
C951   C     0.99387   0.51055   0.73785   0.00000  Uiso   1.00
C952   C     0.67397   0.49087   0.76201   0.00000  Uiso   1.00
C953   C     0.76044   0.54004   0.92157   0.00000  Uiso   1.00
C954   C     0.84570   0.65490   0.73593   0.00000  Uiso   1.00
C955   C     0.82049   0.34672   0.76412   0.00000  Uiso   1.00
C956   C     0.82267   0.38980   0.75941   0.00000  Uiso   1.00
C957   C     0.84337   0.61096   0.74112   0.00000  Uiso   1.00
C958   C     0.85476   0.47894   0.64398   0.00000  Uiso   1.00
C959   C     0.81206   0.52073   0.85631   0.00000  Uiso   1.00
C960   C     0.79869   0.52386   0.89987   0.00000  Uiso   1.00
C961   C     0.86526   0.46876   0.60117   0.00000  Uiso   1.00
C962   C     0.74464   0.53632   0.96202   0.00000  Uiso   1.00
C963   C     0.87520   0.33582   0.69787   0.00000  Uiso   1.00
C964   C     0.82211   0.50602   0.91949   0.00000  Uiso   1.00
C965   C     0.79699   0.33631   0.80496   0.00000  Uiso   1.00
C966   C     0.92879   0.43495   0.60284   0.00000  Uiso   1.00
C967   C     0.74793   0.47073   0.57913   0.00000  Uiso   1.00
C968   C     0.80601   0.50021   0.96008   0.00000  Uiso   1.00
C969   C     0.76632   0.51554   0.98169   0.00000  Uiso   1.00
C970   C     0.82881   0.48015   0.97958   0.00000  Uiso   1.00
C971   C     0.81429   0.47960   0.52125   0.00000  Uiso   1.00
C972   C     0.77119   0.48863   0.54120   0.00000  Uiso   1.00
C973   C     0.74808   0.50812   0.52175   0.00000  Uiso   1.00
H974   H     0.98490   0.47212   0.78391   0.00000  Uiso   1.00
H975   H     0.91542   0.43010   0.63389   0.00000  Uiso   1.00
H976   H     0.75474   0.44071   0.58405   0.00000  Uiso   1.00
H977   H     0.81369   0.49993   0.59849   0.00000  Uiso   1.00
H978   H     0.91720   0.42860   0.96001   0.00000  Uiso   1.00
H979   H     0.71472   0.54911   0.97723   0.00000  Uiso   1.00
H980   H     0.74185   0.55429   0.90708   0.00000  Uiso   1.00
H981   H     0.85299   0.49683   0.90208   0.00000  Uiso   1.00
H982   H     0.87519   0.45418   0.92686   0.00000  Uiso   1.00
H983   H     0.88702   0.64644   0.67333   0.00000  Uiso   1.00
H984   H     0.76503   0.34598   0.81874   0.00000  Uiso   1.00
O985   O     0.83333   0.50000   0.75000   0.00000  Uiso   1.00
O986   O     0.82360   0.45726   0.66625   0.00000  Uiso   1.00
O987   O     0.79354   0.53979   0.83749   0.00000  Uiso   1.00
O988   O     0.87755   0.50826   0.65877   0.00000  Uiso   1.00
O989   O     0.83865   0.49468   0.83749   0.00000  Uiso   1.00
O990   O     0.88765   0.37233   0.69359   0.00000  Uiso   1.00
O991   O     0.81440   0.65351   0.82450   0.00000  Uiso   1.00
O992   O     0.96714   0.43167   0.58776   0.00000  Uiso   1.00
O993   O     0.72295   0.48978   0.60577   0.00000  Uiso   1.00
O994   O     0.84515   0.41434   0.77820   0.00000  Uiso   1.00
O995   O     0.81247   0.59469   0.76767   0.00000  Uiso   1.00
O996   O     0.74119   0.46584   0.73607   0.00000  Uiso   1.00
O997   O     0.93452   0.52512   0.71805   0.00000  Uiso   1.00
O998   O     0.73656   0.52293   0.77820   0.00000  Uiso   1.00
O999   O     0.92106   0.48610   0.76767   0.00000  Uiso   1.00
O1000  O     0.80467   0.40236   0.73607   0.00000  Uiso   1.00
O1001  O     0.87104   0.58860   0.71805   0.00000  Uiso   1.00
Zn1002 Zn    0.85910   0.47423   0.78277   0.00000  Uiso   1.00
Zn1003 Zn    0.80125   0.45711   0.72257   0.00000  Uiso   1.00
Zn1004 Zn    0.87833   0.52997   0.71188   0.00000  Uiso   1.00
Zn1005 Zn    0.79465   0.53868   0.78277   0.00000  Uiso   1.00
Br1006 Br    0.02315   0.85477   0.54874   0.00000  Uiso   1.00
Br1007 Br    0.28961   0.73989   0.50945   0.00000  Uiso   1.00
Br1008 Br    0.03370   0.87690   0.69872   0.00000  Uiso   1.00
C1009  C     0.05251   0.82625   0.75919   0.00000  Uiso   1.00
C1010  C     0.19861   0.79301   0.95864   0.00000  Uiso   1.00
C1011  C     0.22313   0.77715   0.97812   0.00000  Uiso   1.00
C1012  C     0.28115   0.84038   0.74125   0.00000  Uiso   1.00
C1013  C     0.21411   0.78317   0.51933   0.00000  Uiso   1.00
C1014  C     0.17673   0.80243   0.54112   0.00000  Uiso   1.00
C1015  C     0.24214   0.77110   0.53898   0.00000  Uiso   1.00
C1016  C     0.23425   0.78057   0.58041   0.00000  Uiso   1.00
C1017  C     0.17138   0.81366   0.58162   0.00000  Uiso   1.00
C1018  C     0.32721   0.84388   0.73785   0.00000  Uiso   1.00
C1019  C     0.00731   0.82420   0.76201   0.00000  Uiso   1.00
C1020  C     0.09377   0.87337   0.92157   0.00000  Uiso   1.00
C1021  C     0.17903   0.98823   0.73593   0.00000  Uiso   1.00
C1022  C     0.15382   0.68006   0.76412   0.00000  Uiso   1.00
C1023  C     0.15601   0.72313   0.75941   0.00000  Uiso   1.00
C1024  C     0.17671   0.94430   0.74112   0.00000  Uiso   1.00
C1025  C     0.18809   0.81227   0.64398   0.00000  Uiso   1.00
C1026  C     0.14540   0.85406   0.85631   0.00000  Uiso   1.00
C1027  C     0.13202   0.85719   0.89987   0.00000  Uiso   1.00
C1028  C     0.19860   0.80210   0.60117   0.00000  Uiso   1.00
C1029  C     0.07797   0.86965   0.96202   0.00000  Uiso   1.00
C1030  C     0.20853   0.66916   0.69787   0.00000  Uiso   1.00
C1031  C     0.15545   0.83935   0.91949   0.00000  Uiso   1.00
C1032  C     0.13032   0.66965   0.80496   0.00000  Uiso   1.00
C1033  C     0.26212   0.76829   0.60284   0.00000  Uiso   1.00
C1034  C     0.08127   0.80407   0.57913   0.00000  Uiso   1.00
C1035  C     0.13935   0.83355   0.96008   0.00000  Uiso   1.00
C1036  C     0.09965   0.84887   0.98169   0.00000  Uiso   1.00
C1037  C     0.16214   0.81348   0.97958   0.00000  Uiso   1.00
C1038  C     0.14763   0.81294   0.52125   0.00000  Uiso   1.00
C1039  C     0.10453   0.82196   0.54120   0.00000  Uiso   1.00
C1040  C     0.08141   0.84145   0.52175   0.00000  Uiso   1.00
H1041  H     0.31823   0.80545   0.78391   0.00000  Uiso   1.00
H1042  H     0.24875   0.76343   0.63389   0.00000  Uiso   1.00
H1043  H     0.08807   0.77404   0.58405   0.00000  Uiso   1.00
H1044  H     0.14703   0.83327   0.59849   0.00000  Uiso   1.00
H1045  H     0.25053   0.76193   0.96001   0.00000  Uiso   1.00
H1046  H     0.04805   0.88244   0.97723   0.00000  Uiso   1.00
H1047  H     0.07519   0.88762   0.90708   0.00000  Uiso   1.00
H1048  H     0.18633   0.83016   0.90208   0.00000  Uiso   1.00
H1049  H     0.20852   0.78752   0.92686   0.00000  Uiso   1.00
H1050  H     0.22035   0.97977   0.67333   0.00000  Uiso   1.00
H1051  H     0.09836   0.67931   0.81874   0.00000  Uiso   1.00
O1052  O     0.16667   0.83333   0.75000   0.00000  Uiso   1.00
O1053  O     0.15693   0.79060   0.66625   0.00000  Uiso   1.00
O1054  O     0.12687   0.87313   0.83749   0.00000  Uiso   1.00
O1055  O     0.21088   0.84159   0.65877   0.00000  Uiso   1.00
O1056  O     0.17198   0.82802   0.83749   0.00000  Uiso   1.00
O1057  O     0.22098   0.70567   0.69359   0.00000  Uiso   1.00
O1058  O     0.14773   0.98684   0.82450   0.00000  Uiso   1.00
O1059  O     0.30047   0.76500   0.58776   0.00000  Uiso   1.00
O1060  O     0.05628   0.82311   0.60577   0.00000  Uiso   1.00
O1061  O     0.17849   0.74768   0.77820   0.00000  Uiso   1.00
O1062  O     0.14581   0.92803   0.76767   0.00000  Uiso   1.00
O1063  O     0.07452   0.79917   0.73607   0.00000  Uiso   1.00
O1064  O     0.26785   0.85845   0.71805   0.00000  Uiso   1.00
O1065  O     0.06990   0.85627   0.77820   0.00000  Uiso   1.00
O1066  O     0.25440   0.81944   0.76767   0.00000  Uiso   1.00
O1067  O     0.13800   0.73570   0.73607   0.00000  Uiso   1.00
O1068  O     0.20437   0.92193   0.71805   0.00000  Uiso   1.00
Zn1069 Zn    0.19244   0.80756   0.78277   0.00000  Uiso   1.00
Zn1070 Zn    0.13459   0.79044   0.72257   0.00000  Uiso   1.00
Zn1071 Zn    0.21166   0.86331   0.71188   0.00000  Uiso   1.00
Zn1072 Zn    0.12798   0.87202   0.78277   0.00000  Uiso   1.00
Br1073 Br    0.35649   0.85477   0.54874   0.00000  Uiso   1.00
Br1074 Br    0.62295   0.73989   0.50945   0.00000  Uiso   1.00
Br1075 Br    0.36703   0.87690   0.69872   0.00000  Uiso   1.00
C1076  C     0.38584   0.82625   0.75919   0.00000  Uiso   1.00
C1077  C     0.53195   0.79301   0.95864   0.00000  Uiso   1.00
C1078  C     0.55646   0.77715   0.97812   0.00000  Uiso   1.00
C1079  C     0.61448   0.84038   0.74125   0.00000  Uiso   1.00
C1080  C     0.54744   0.78317   0.51933   0.00000  Uiso   1.00
C1081  C     0.51006   0.80243   0.54112   0.00000  Uiso   1.00
C1082  C     0.57547   0.77110   0.53898   0.00000  Uiso   1.00
C1083  C     0.56758   0.78057   0.58041   0.00000  Uiso   1.00
C1084  C     0.50471   0.81366   0.58162   0.00000  Uiso   1.00
C1085  C     0.66054   0.84388   0.73785   0.00000  Uiso   1.00
C1086  C     0.34064   0.82420   0.76201   0.00000  Uiso   1.00
C1087  C     0.42710   0.87337   0.92157   0.00000  Uiso   1.00
C1088  C     0.51237   0.98823   0.73593   0.00000  Uiso   1.00
C1089  C     0.48715   0.68006   0.76412   0.00000  Uiso   1.00
C1090  C     0.48934   0.72313   0.75941   0.00000  Uiso   1.00
C1091  C     0.51004   0.94430   0.74112   0.00000  Uiso   1.00
C1092  C     0.52143   0.81227   0.64398   0.00000  Uiso   1.00
C1093  C     0.47873   0.85406   0.85631   0.00000  Uiso   1.00
C1094  C     0.46536   0.85719   0.89987   0.00000  Uiso   1.00
C1095  C     0.53193   0.80210   0.60117   0.00000  Uiso   1.00
C1096  C     0.41131   0.86965   0.96202   0.00000  Uiso   1.00
C1097  C     0.54186   0.66916   0.69787   0.00000  Uiso   1.00
C1098  C     0.48878   0.83935   0.91949   0.00000  Uiso   1.00
C1099  C     0.46365   0.66965   0.80496   0.00000  Uiso   1.00
C1100  C     0.59546   0.76829   0.60284   0.00000  Uiso   1.00
C1101  C     0.41460   0.80407   0.57913   0.00000  Uiso   1.00
C1102  C     0.47268   0.83355   0.96008   0.00000  Uiso   1.00
C1103  C     0.43299   0.84887   0.98169   0.00000  Uiso   1.00
C1104  C     0.49548   0.81348   0.97958   0.00000  Uiso   1.00
C1105  C     0.48096   0.81294   0.52125   0.00000  Uiso   1.00
C1106  C     0.43786   0.82196   0.54120   0.00000  Uiso   1.00
C1107  C     0.41475   0.84145   0.52175   0.00000  Uiso   1.00
H1108  H     0.65156   0.80545   0.78391   0.00000  Uiso   1.00
H1109  H     0.58209   0.76343   0.63389   0.00000  Uiso   1.00
H1110  H     0.42140   0.77404   0.58405   0.00000  Uiso   1.00
H1111  H     0.48036   0.83327   0.59849   0.00000  Uiso   1.00
H1112  H     0.58386   0.76193   0.96001   0.00000  Uiso   1.00
H1113  H     0.38139   0.88244   0.97723   0.00000  Uiso   1.00
H1114  H     0.40852   0.88762   0.90708   0.00000  Uiso   1.00
H1115  H     0.51966   0.83016   0.90208   0.00000  Uiso   1.00
H1116  H     0.54185   0.78752   0.92686   0.00000  Uiso   1.00
H1117  H     0.55369   0.97977   0.67333   0.00000  Uiso   1.00
H1118  H     0.43170   0.67931   0.81874   0.00000  Uiso   1.00
O1119  O     0.50000   0.83333   0.75000   0.00000  Uiso   1.00
O1120  O     0.49027   0.79060   0.66625   0.00000  Uiso   1.00
O1121  O     0.46020   0.87313   0.83749   0.00000  Uiso   1.00
O1122  O     0.54421   0.84159   0.65877   0.00000  Uiso   1.00
O1123  O     0.50532   0.82802   0.83749   0.00000  Uiso   1.00
O1124  O     0.55432   0.70567   0.69359   0.00000  Uiso   1.00
O1125  O     0.48107   0.98684   0.82450   0.00000  Uiso   1.00
O1126  O     0.63380   0.76500   0.58776   0.00000  Uiso   1.00
O1127  O     0.38961   0.82311   0.60577   0.00000  Uiso   1.00
O1128  O     0.51182   0.74768   0.77820   0.00000  Uiso   1.00
O1129  O     0.47914   0.92803   0.76767   0.00000  Uiso   1.00
O1130  O     0.40785   0.79917   0.73607   0.00000  Uiso   1.00
O1131  O     0.60119   0.85845   0.71805   0.00000  Uiso   1.00
O1132  O     0.40323   0.85627   0.77820   0.00000  Uiso   1.00
O1133  O     0.58773   0.81944   0.76767   0.00000  Uiso   1.00
O1134  O     0.47133   0.73570   0.73607   0.00000  Uiso   1.00
O1135  O     0.53771   0.92193   0.71805   0.00000  Uiso   1.00
Zn1136 Zn    0.52577   0.80756   0.78277   0.00000  Uiso   1.00
Zn1137 Zn    0.46792   0.79044   0.72257   0.00000  Uiso   1.00
Zn1138 Zn    0.54500   0.86331   0.71188   0.00000  Uiso   1.00
Zn1139 Zn    0.46131   0.87202   0.78277   0.00000  Uiso   1.00
Br1140 Br    0.68982   0.85477   0.54874   0.00000  Uiso   1.00
Br1141 Br    0.95628   0.73989   0.50945   0.00000  Uiso   1.00
Br1142 Br    0.70036   0.87690   0.69872   0.00000  Uiso   1.00
C1143  C     0.71917   0.82625   0.75919   0.00000  Uiso   1.00
C1144  C     0.86528   0.79301   0.95864   0.00000  Uiso   1.00
C1145  C     0.88980   0.77715   0.97812   0.00000  Uiso   1.00
C1146  C     0.94781   0.84038   0.74125   0.00000  Uiso   1.00
C1147  C     0.88078   0.78317   0.51933   0.00000  Uiso   1.00
C1148  C     0.84340   0.80243   0.54112   0.00000  Uiso   1.00
C1149  C     0.90881   0.77110   0.53898   0.00000  Uiso   1.00
C1150  C     0.90092   0.78057   0.58041   0.00000  Uiso   1.00
C1151  C     0.83804   0.81366   0.58162   0.00000  Uiso   1.00
C1152  C     0.99387   0.84388   0.73785   0.00000  Uiso   1.00
C1153  C     0.67397   0.82420   0.76201   0.00000  Uiso   1.00
C1154  C     0.76044   0.87337   0.92157   0.00000  Uiso   1.00
C1155  C     0.84570   0.98823   0.73593   0.00000  Uiso   1.00
C1156  C     0.82049   0.68006   0.76412   0.00000  Uiso   1.00
C1157  C     0.82267   0.72313   0.75941   0.00000  Uiso   1.00
C1158  C     0.84337   0.94430   0.74112   0.00000  Uiso   1.00
C1159  C     0.85476   0.81227   0.64398   0.00000  Uiso   1.00
C1160  C     0.81206   0.85406   0.85631   0.00000  Uiso   1.00
C1161  C     0.79869   0.85719   0.89987   0.00000  Uiso   1.00
C1162  C     0.86526   0.80210   0.60117   0.00000  Uiso   1.00
C1163  C     0.74464   0.86965   0.96202   0.00000  Uiso   1.00
C1164  C     0.87520   0.66916   0.69787   0.00000  Uiso   1.00
C1165  C     0.82211   0.83935   0.91949   0.00000  Uiso   1.00
C1166  C     0.79699   0.66965   0.80496   0.00000  Uiso   1.00
C1167  C     0.92879   0.76829   0.60284   0.00000  Uiso   1.00
C1168  C     0.74793   0.80407   0.57913   0.00000  Uiso   1.00
C1169  C     0.80601   0.83355   0.96008   0.00000  Uiso   1.00
C1170  C     0.76632   0.84887   0.98169   0.00000  Uiso   1.00
C1171  C     0.82881   0.81348   0.97958   0.00000  Uiso   1.00
C1172  C     0.81429   0.81294   0.52125   0.00000  Uiso   1.00
C1173  C     0.77119   0.82196   0.54120   0.00000  Uiso   1.00
C1174  C     0.74808   0.84145   0.52175   0.00000  Uiso   1.00
H1175  H     0.98490   0.80545   0.78391   0.00000  Uiso   1.00
H1176  H     0.91542   0.76343   0.63389   0.00000  Uiso   1.00
H1177  H     0.75474   0.77404   0.58405   0.00000  Uiso   1.00
H1178  H     0.81369   0.83327   0.59849   0.00000  Uiso   1.00
H1179  H     0.91720   0.76193   0.96001   0.00000  Uiso   1.00
H1180  H     0.71472   0.88244   0.97723   0.00000  Uiso   1.00
H1181  H     0.74185   0.88762   0.90708   0.00000  Uiso   1.00
H1182  H     0.85299   0.83016   0.90208   0.00000  Uiso   1.00
H1183  H     0.87519   0.78752   0.92686   0.00000  Uiso   1.00
H1184  H     0.88702   0.97977   0.67333   0.00000  Uiso   1.00
H1185  H     0.76503   0.67931   0.81874   0.00000  Uiso   1.00
O1186  O     0.83333   0.83333   0.75000   0.00000  Uiso   1.00
O1187  O     0.82360   0.79060   0.66625   0.00000  Uiso   1.00
O1188  O     0.79354   0.87313   0.83749   0.00000  Uiso   1.00
O1189  O     0.87755   0.84159   0.65877   0.00000  Uiso   1.00
O1190  O     0.83865   0.82802   0.83749   0.00000  Uiso   1.00
O1191  O     0.88765   0.70567   0.69359   0.00000  Uiso   1.00
O1192  O     0.81440   0.98684   0.82450   0.00000  Uiso   1.00
O1193  O     0.96714   0.76500   0.58776   0.00000  Uiso   1.00
O1194  O     0.72295   0.82311   0.60577   0.00000  Uiso   1.00
O1195  O     0.84515   0.74768   0.77820   0.00000  Uiso   1.00
O1196  O     0.81247   0.92803   0.76767   0.00000  Uiso   1.00
O1197  O     0.74119   0.79917   0.73607   0.00000  Uiso   1.00
O1198  O     0.93452   0.85845   0.71805   0.00000  Uiso   1.00
O1199  O     0.73656   0.85627   0.77820   0.00000  Uiso   1.00
O1200  O     0.92106   0.81944   0.76767   0.00000  Uiso   1.00
O1201  O     0.80467   0.73570   0.73607   0.00000  Uiso   1.00
O1202  O     0.87104   0.92193   0.71805   0.00000  Uiso   1.00
Zn1203 Zn    0.85910   0.80756   0.78277   0.00000  Uiso   1.00
Zn1204 Zn    0.80125   0.79044   0.72257   0.00000  Uiso   1.00
Zn1205 Zn    0.87833   0.86331   0.71188   0.00000  Uiso   1.00
Zn1206 Zn    0.79465   0.87202   0.78277   0.00000  Uiso   1.00
loop_
_geom_bond_atom_site_label_1
_geom_bond_atom_site_label_2
_geom_bond_distance
_geom_bond_site_symmetry_2
_ccdc_geom_bond_type
Br1    C35     1.942   .     S
Br2    C10     1.939   .     S
Br3    C147    1.930   1_455 S
C4     O60     1.275   .     A
C4     C14     1.436   .     S
C4     O58     1.274   .     A
C5     C32     1.412   .     A
C5     C6      1.385   .     A
C5     H44     1.077   .     S
C6     H40     1.080   .     S
C6     C611    1.398   .     S
C7     C13     1.455   .     S
C7     O61     1.277   .     A
C7     O59     1.275   .     A
C8     C9      1.421   .     A
C8     C10     1.421   .     A
C8     C609    1.398   1_554 S
C9     C33     1.434   .     A
C9     C12     1.402   .     A
C10    C11     1.417   .     A
C11    C28     1.492   .     S
C11    C23     1.410   .     A
C12    H39     1.081   .     S
C12    C23     1.390   .     A
C13    Br70    1.930   .     S
C13    C81     1.337   .     S
C14    C147    1.337   1_455 S
C14    H170    1.086   1_455 S
C15    C24     1.393   .     A
C15    C22     1.396   .     A
C15    H42     1.083   .     S
C16    C19     1.464   .     S
C16    C218    1.362   .     S
C16    C226    1.499   .     S
C17    C18     1.433   .     S
C17    C27     1.488   .     S
C17    C418    1.362   1_545 S
C18    O56     1.264   .     A
C18    O62     1.280   .     A
C19    O57     1.269   .     A
C19    O63     1.273   .     A
C20    C23     1.461   .     S
C20    O48     1.277   .     A
C20    O50     1.278   .     A
C21    O49     1.285   .     A
C21    O51     1.284   .     A
C21    C22     1.474   .     S
C22    C26     1.396   .     A
C24    C31     1.413   .     A
C24    H41     1.080   .     S
C25    O52     1.221   .     D
C25    C418    1.499   1_545 S
C25    H447    1.085   1_545 S
C26    C30     1.412   .     A
C26    H43     1.076   .     S
C27    H46     1.085   .     S
C27    O455    1.222   1_545 S
C28    H37     1.085   .     S
C28    O54     1.220   .     D
C29    H38     1.086   .     S
C29    O55     1.220   .     D
C29    C34     1.489   .     S
C30    C32     1.421   .     A
C30    C31     1.420   .     A
C31    C638    1.412   .     S
C32    C636    1.418   .     S
C33    C34     1.428   .     A
C33    C635    1.418   1_554 S
C34    C35     1.416   .     A
C35    C634    1.412   1_554 S
H36    C81     1.086   .     S
H45    C226    1.085   .     S
O47    Zn64    1.949   .     S
O47    Zn66    1.929   .     S
O47    Zn67    1.940   .     S
O47    Zn65    1.953   .     S
O48    Zn65    1.919   .     S
O49    Zn67    1.928   .     S
O50    Zn66    1.931   .     S
O51    Zn64    1.923   .     S
O53    C228    1.222   .     S
O56    Zn64    1.945   .     S
O57    Zn67    1.940   .     S
O58    Zn65    1.925   .     S
O59    Zn66    1.932   .     S
O60    Zn67    1.931   .     S
O61    Zn64    1.923   .     S
O62    Zn65    1.943   .     S
O63    Zn66    1.946   .     S
Br68   C102    1.942   .     S
Br69   C77     1.939   .     S
C71    O127    1.275   .     A
C71    C81     1.436   .     S
C71    O125    1.274   .     A
C72    C99     1.412   .     A
C72    C73     1.385   .     A
C72    H111    1.077   .     S
C73    H107    1.080   .     S
C73    C678    1.398   .     S
C74    C80     1.455   .     S
C74    O128    1.277   .     A
C74    O126    1.275   .     A
C75    C76     1.421   .     A
C75    C77     1.421   .     A
C75    C676    1.398   1_554 S
C76    C100    1.434   .     A
C76    C79     1.402   .     A
C77    C78     1.417   .     A
C78    C95     1.492   .     S
C78    C90     1.410   .     A
C79    H106    1.081   .     S
C79    C90     1.390   .     A
C80    Br137   1.930   .     S
C80    C148    1.337   .     S
C82    C91     1.393   .     A
C82    C89     1.396   .     A
C82    H109    1.083   .     S
C83    C86     1.464   .     S
C83    C285    1.362   .     S
C83    C293    1.499   .     S
C84    C85     1.433   .     S
C84    C94     1.488   .     S
C84    C485    1.362   1_545 S
C85    O123    1.264   .     A
C85    O129    1.280   .     A
C86    O124    1.269   .     A
C86    O130    1.273   .     A
C87    C90     1.461   .     S
C87    O115    1.277   .     A
C87    O117    1.278   .     A
C88    O116    1.285   .     A
C88    O118    1.284   .     A
C88    C89     1.474   .     S
C89    C93     1.396   .     A
C91    C98     1.413   .     A
C91    H108    1.080   .     S
C92    O119    1.221   .     D
C92    C485    1.499   1_545 S
C92    H514    1.085   1_545 S
C93    C97     1.412   .     A
C93    H110    1.076   .     S
C94    H113    1.085   .     S
C94    O522    1.222   1_545 S
C95    H104    1.085   .     S
C95    O121    1.220   .     D
C96    H105    1.086   .     S
C96    O122    1.220   .     D
C96    C101    1.489   .     S
C97    C99     1.421   .     A
C97    C98     1.420   .     A
C98    C705    1.412   .     S
C99    C703    1.418   .     S
C100   C101    1.428   .     A
C100   C702    1.418   1_554 S
C101   C102    1.416   .     A
C102   C701    1.412   1_554 S
H103   C148    1.086   .     S
H112   C293    1.085   .     S
O114   Zn131   1.949   .     S
O114   Zn133   1.929   .     S
O114   Zn134   1.940   .     S
O114   Zn132   1.953   .     S
O115   Zn132   1.919   .     S
O116   Zn134   1.928   .     S
O117   Zn133   1.931   .     S
O118   Zn131   1.923   .     S
O120   C295    1.222   .     S
O123   Zn131   1.945   .     S
O124   Zn134   1.940   .     S
O125   Zn132   1.925   .     S
O126   Zn133   1.932   .     S
O127   Zn134   1.931   .     S
O128   Zn131   1.923   .     S
O129   Zn132   1.943   .     S
O130   Zn133   1.946   .     S
Br135  C169    1.942   .     S
Br136  C144    1.939   .     S
C138   O194    1.275   .     A
C138   C148    1.436   .     S
C138   O192    1.274   .     A
C139   C166    1.412   .     A
C139   C140    1.385   .     A
C139   H178    1.077   .     S
C140   H174    1.080   .     S
C140   C745    1.398   .     S
C141   C147    1.455   .     S
C141   O195    1.277   .     A
C141   O193    1.275   .     A
C142   C143    1.421   .     A
C142   C144    1.421   .     A
C142   C743    1.398   1_554 S
C143   C167    1.434   .     A
C143   C146    1.402   .     A
C144   C145    1.417   .     A
C145   C162    1.492   .     S
C145   C157    1.410   .     A
C146   H173    1.081   .     S
C146   C157    1.390   .     A
C147   Br3     1.930   1_655 S
C147   C14     1.337   1_655 S
C149   C158    1.393   .     A
C149   C156    1.396   .     A
C149   H176    1.083   .     S
C150   C153    1.464   .     S
C150   C352    1.362   .     S
C150   C360    1.499   .     S
C151   C152    1.433   .     S
C151   C161    1.488   .     S
C151   C552    1.362   1_545 S
C152   O190    1.264   .     A
C152   O196    1.280   .     A
C153   O191    1.269   .     A
C153   O197    1.273   .     A
C154   C157    1.461   .     S
C154   O182    1.277   .     A
C154   O184    1.278   .     A
C155   O183    1.285   .     A
C155   O185    1.284   .     A
C155   C156    1.474   .     S
C156   C160    1.396   .     A
C158   C165    1.413   .     A
C158   H175    1.080   .     S
C159   O186    1.221   .     D
C159   C552    1.499   1_545 S
C159   H581    1.085   1_545 S
C160   C164    1.412   .     A
C160   H177    1.076   .     S
C161   H180    1.085   .     S
C161   O589    1.222   1_545 S
C162   H171    1.085   .     S
C162   O188    1.220   .     D
C163   H172    1.086   .     S
C163   O189    1.220   .     D
C163   C168    1.489   .     S
C164   C166    1.421   .     A
C164   C165    1.420   .     A
C165   C772    1.412   .     S
C166   C770    1.418   .     S
C167   C168    1.428   .     A
C167   C769    1.418   1_554 S
C168   C169    1.416   .     A
C169   C768    1.412   1_554 S
H170   C14     1.086   1_655 S
H179   C360    1.085   .     S
O181   Zn198   1.949   .     S
O181   Zn200   1.929   .     S
O181   Zn201   1.940   .     S
O181   Zn199   1.953   .     S
O182   Zn199   1.919   .     S
O183   Zn201   1.928   .     S
O184   Zn200   1.931   .     S
O185   Zn198   1.923   .     S
O187   C362    1.222   .     S
O190   Zn198   1.945   .     S
O191   Zn201   1.940   .     S
O192   Zn199   1.925   .     S
O193   Zn200   1.932   .     S
O194   Zn201   1.931   .     S
O195   Zn198   1.923   .     S
O196   Zn199   1.943   .     S
O197   Zn200   1.946   .     S
Br202  C236    1.942   .     S
Br203  C211    1.939   .     S
Br204  C348    1.930   1_455 S
C205   O261    1.275   .     A
C205   C215    1.436   .     S
C205   O259    1.274   .     A
C206   C233    1.412   .     A
C206   C207    1.385   .     A
C206   H245    1.077   .     S
C207   H241    1.080   .     S
C207   C812    1.398   .     S
C208   C214    1.455   .     S
C208   O262    1.277   .     A
C208   O260    1.275   .     A
C209   C210    1.421   .     A
C209   C211    1.421   .     A
C209   C810    1.398   1_554 S
C210   C234    1.434   .     A
C210   C213    1.402   .     A
C211   C212    1.417   .     A
C212   C229    1.492   .     S
C212   C224    1.410   .     A
C213   H240    1.081   .     S
C213   C224    1.390   .     A
C214   Br271   1.930   .     S
C214   C282    1.337   .     S
C215   C348    1.337   1_455 S
C215   H371    1.086   1_455 S
C216   C225    1.393   .     A
C216   C223    1.396   .     A
C216   H243    1.083   .     S
C217   C220    1.464   .     S
C217   C419    1.362   .     S
C217   C427    1.499   .     S
C218   C219    1.433   .     S
C218   C228    1.488   .     S
C219   O257    1.264   .     A
C219   O263    1.280   .     A
C220   O258    1.269   .     A
C220   O264    1.273   .     A
C221   C224    1.461   .     S
C221   O249    1.277   .     A
C221   O251    1.278   .     A
C222   O250    1.285   .     A
C222   O252    1.284   .     A
C222   C223    1.474   .     S
C223   C227    1.396   .     A
C225   C232    1.413   .     A
C225   H242    1.080   .     S
C226   O253    1.221   .     D
C227   C231    1.412   .     A
C227   H244    1.076   .     S
C228   H247    1.085   .     S
C229   H238    1.085   .     S
C229   O255    1.220   .     D
C230   H239    1.086   .     S
C230   O256    1.220   .     D
C230   C235    1.489   .     S
C231   C233    1.421   .     A
C231   C232    1.420   .     A
C232   C839    1.412   .     S
C233   C837    1.418   .     S
C234   C235    1.428   .     A
C234   C836    1.418   1_554 S
C235   C236    1.416   .     A
C236   C835    1.412   1_554 S
H237   C282    1.086   .     S
H246   C427    1.085   .     S
O248   Zn265   1.949   .     S
O248   Zn267   1.929   .     S
O248   Zn268   1.940   .     S
O248   Zn266   1.953   .     S
O249   Zn266   1.919   .     S
O250   Zn268   1.928   .     S
O251   Zn267   1.931   .     S
O252   Zn265   1.923   .     S
O254   C429    1.222   .     S
O257   Zn265   1.945   .     S
O258   Zn268   1.940   .     S
O259   Zn266   1.925   .     S
O260   Zn267   1.932   .     S
O261   Zn268   1.931   .     S
O262   Zn265   1.923   .     S
O263   Zn266   1.943   .     S
O264   Zn267   1.946   .     S
Br269  C303    1.942   .     S
Br270  C278    1.939   .     S
C272   O328    1.275   .     A
C272   C282    1.436   .     S
C272   O326    1.274   .     A
C273   C300    1.412   .     A
C273   C274    1.385   .     A
C273   H312    1.077   .     S
C274   H308    1.080   .     S
C274   C879    1.398   .     S
C275   C281    1.455   .     S
C275   O329    1.277   .     A
C275   O327    1.275   .     A
C276   C277    1.421   .     A
C276   C278    1.421   .     A
C276   C877    1.398   1_554 S
C277   C301    1.434   .     A
C277   C280    1.402   .     A
C278   C279    1.417   .     A
C279   C296    1.492   .     S
C279   C291    1.410   .     A
C280   H307    1.081   .     S
C280   C291    1.390   .     A
C281   Br338   1.930   .     S
C281   C349    1.337   .     S
C283   C292    1.393   .     A
C283   C290    1.396   .     A
C283   H310    1.083   .     S
C284   C287    1.464   .     S
C284   C486    1.362   .     S
C284   C494    1.499   .     S
C285   C286    1.433   .     S
C285   C295    1.488   .     S
C286   O324    1.264   .     A
C286   O330    1.280   .     A
C287   O325    1.269   .     A
C287   O331    1.273   .     A
C288   C291    1.461   .     S
C288   O316    1.277   .     A
C288   O318    1.278   .     A
C289   O317    1.285   .     A
C289   O319    1.284   .     A
C289   C290    1.474   .     S
C290   C294    1.396   .     A
C292   C299    1.413   .     A
C292   H309    1.080   .     S
C293   O320    1.221   .     D
C294   C298    1.412   .     A
C294   H311    1.076   .     S
C295   H314    1.085   .     S
C296   H305    1.085   .     S
C296   O322    1.220   .     D
C297   H306    1.086   .     S
C297   O323    1.220   .     D
C297   C302    1.489   .     S
C298   C300    1.421   .     A
C298   C299    1.420   .     A
C299   C906    1.412   .     S
C300   C904    1.418   .     S
C301   C302    1.428   .     A
C301   C903    1.418   1_554 S
C302   C303    1.416   .     A
C303   C902    1.412   1_554 S
H304   C349    1.086   .     S
H313   C494    1.085   .     S
O315   Zn332   1.949   .     S
O315   Zn334   1.929   .     S
O315   Zn335   1.940   .     S
O315   Zn333   1.953   .     S
O316   Zn333   1.919   .     S
O317   Zn335   1.928   .     S
O318   Zn334   1.931   .     S
O319   Zn332   1.923   .     S
O321   C496    1.222   .     S
O324   Zn332   1.945   .     S
O325   Zn335   1.940   .     S
O326   Zn333   1.925   .     S
O327   Zn334   1.932   .     S
O328   Zn335   1.931   .     S
O329   Zn332   1.923   .     S
O330   Zn333   1.943   .     S
O331   Zn334   1.946   .     S
Br336  C370    1.942   .     S
Br337  C345    1.939   .     S
C339   O395    1.275   .     A
C339   C349    1.436   .     S
C339   O393    1.274   .     A
C340   C367    1.412   .     A
C340   C341    1.385   .     A
C340   H379    1.077   .     S
C341   H375    1.080   .     S
C341   C946    1.398   .     S
C342   C348    1.455   .     S
C342   O396    1.277   .     A
C342   O394    1.275   .     A
C343   C344    1.421   .     A
C343   C345    1.421   .     A
C343   C944    1.398   1_554 S
C344   C368    1.434   .     A
C344   C347    1.402   .     A
C345   C346    1.417   .     A
C346   C363    1.492   .     S
C346   C358    1.410   .     A
C347   H374    1.081   .     S
C347   C358    1.390   .     A
C348   Br204   1.930   1_655 S
C348   C215    1.337   1_655 S
C350   C359    1.393   .     A
C350   C357    1.396   .     A
C350   H377    1.083   .     S
C351   C354    1.464   .     S
C351   C553    1.362   .     S
C351   C561    1.499   .     S
C352   C353    1.433   .     S
C352   C362    1.488   .     S
C353   O391    1.264   .     A
C353   O397    1.280   .     A
C354   O392    1.269   .     A
C354   O398    1.273   .     A
C355   C358    1.461   .     S
C355   O383    1.277   .     A
C355   O385    1.278   .     A
C356   O384    1.285   .     A
C356   O386    1.284   .     A
C356   C357    1.474   .     S
C357   C361    1.396   .     A
C359   C366    1.413   .     A
C359   H376    1.080   .     S
C360   O387    1.221   .     D
C361   C365    1.412   .     A
C361   H378    1.076   .     S
C362   H381    1.085   .     S
C363   H372    1.085   .     S
C363   O389    1.220   .     D
C364   H373    1.086   .     S
C364   O390    1.220   .     D
C364   C369    1.489   .     S
C365   C367    1.421   .     A
C365   C366    1.420   .     A
C366   C973    1.412   .     S
C367   C971    1.418   .     S
C368   C369    1.428   .     A
C368   C970    1.418   1_554 S
C369   C370    1.416   .     A
C370   C969    1.412   1_554 S
H371   C215    1.086   1_655 S
H380   C561    1.085   .     S
O382   Zn399   1.949   .     S
O382   Zn401   1.929   .     S
O382   Zn402   1.940   .     S
O382   Zn400   1.953   .     S
O383   Zn400   1.919   .     S
O384   Zn402   1.928   .     S
O385   Zn401   1.931   .     S
O386   Zn399   1.923   .     S
O388   C563    1.222   .     S
O391   Zn399   1.945   .     S
O392   Zn402   1.940   .     S
O393   Zn400   1.925   .     S
O394   Zn401   1.932   .     S
O395   Zn402   1.931   .     S
O396   Zn399   1.923   .     S
O397   Zn400   1.943   .     S
O398   Zn401   1.946   .     S
Br403  C437    1.942   .     S
Br404  C412    1.939   .     S
Br405  C549    1.930   1_455 S
C406   O462    1.275   .     A
C406   C416    1.436   .     S
C406   O460    1.274   .     A
C407   C434    1.412   .     A
C407   C408    1.385   .     A
C407   H446    1.077   .     S
C408   H442    1.080   .     S
C408   C1013   1.398   .     S
C409   C415    1.455   .     S
C409   O463    1.277   .     A
C409   O461    1.275   .     A
C410   C411    1.421   .     A
C410   C412    1.421   .     A
C410   C1011   1.398   1_554 S
C411   C435    1.434   .     A
C411   C414    1.402   .     A
C412   C413    1.417   .     A
C413   C430    1.492   .     S
C413   C425    1.410   .     A
C414   H441    1.081   .     S
C414   C425    1.390   .     A
C415   Br472   1.930   .     S
C415   C483    1.337   .     S
C416   C549    1.337   1_455 S
C416   H572    1.086   1_455 S
C417   C426    1.393   .     A
C417   C424    1.396   .     A
C417   H444    1.083   .     S
C418   C421    1.464   .     S
C418   C17     1.362   1_565 S
C418   C25     1.499   1_565 S
C419   C420    1.433   .     S
C419   C429    1.488   .     S
C420   O458    1.264   .     A
C420   O464    1.280   .     A
C421   O459    1.269   .     A
C421   O465    1.273   .     A
C422   C425    1.461   .     S
C422   O450    1.277   .     A
C422   O452    1.278   .     A
C423   O451    1.285   .     A
C423   O453    1.284   .     A
C423   C424    1.474   .     S
C424   C428    1.396   .     A
C426   C433    1.413   .     A
C426   H443    1.080   .     S
C427   O454    1.221   .     D
C428   C432    1.412   .     A
C428   H445    1.076   .     S
C429   H448    1.085   .     S
C430   H439    1.085   .     S
C430   O456    1.220   .     D
C431   H440    1.086   .     S
C431   O457    1.220   .     D
C431   C436    1.489   .     S
C432   C434    1.421   .     A
C432   C433    1.420   .     A
C433   C1040   1.412   .     S
C434   C1038   1.418   .     S
C435   C436    1.428   .     A
C435   C1037   1.418   1_554 S
C436   C437    1.416   .     A
C437   C1036   1.412   1_554 S
H438   C483    1.086   .     S
H447   C25     1.085   1_565 S
O449   Zn466   1.949   .     S
O449   Zn468   1.929   .     S
O449   Zn469   1.940   .     S
O449   Zn467   1.953   .     S
O450   Zn467   1.919   .     S
O451   Zn469   1.928   .     S
O452   Zn468   1.931   .     S
O453   Zn466   1.923   .     S
O455   C27     1.222   1_565 S
O458   Zn466   1.945   .     S
O459   Zn469   1.940   .     S
O460   Zn467   1.925   .     S
O461   Zn468   1.932   .     S
O462   Zn469   1.931   .     S
O463   Zn466   1.923   .     S
O464   Zn467   1.943   .     S
O465   Zn468   1.946   .     S
Br470  C504    1.942   .     S
Br471  C479    1.939   .     S
C473   O529    1.275   .     A
C473   C483    1.436   .     S
C473   O527    1.274   .     A
C474   C501    1.412   .     A
C474   C475    1.385   .     A
C474   H513    1.077   .     S
C475   H509    1.080   .     S
C475   C1080   1.398   .     S
C476   C482    1.455   .     S
C476   O530    1.277   .     A
C476   O528    1.275   .     A
C477   C478    1.421   .     A
C477   C479    1.421   .     A
C477   C1078   1.398   1_554 S
C478   C502    1.434   .     A
C478   C481    1.402   .     A
C479   C480    1.417   .     A
C480   C497    1.492   .     S
C480   C492    1.410   .     A
C481   H508    1.081   .     S
C481   C492    1.390   .     A
C482   Br539   1.930   .     S
C482   C550    1.337   .     S
C484   C493    1.393   .     A
C484   C491    1.396   .     A
C484   H511    1.083   .     S
C485   C488    1.464   .     S
C485   C84     1.362   1_565 S
C485   C92     1.499   1_565 S
C486   C487    1.433   .     S
C486   C496    1.488   .     S
C487   O525    1.264   .     A
C487   O531    1.280   .     A
C488   O526    1.269   .     A
C488   O532    1.273   .     A
C489   C492    1.461   .     S
C489   O517    1.277   .     A
C489   O519    1.278   .     A
C490   O518    1.285   .     A
C490   O520    1.284   .     A
C490   C491    1.474   .     S
C491   C495    1.396   .     A
C493   C500    1.413   .     A
C493   H510    1.080   .     S
C494   O521    1.221   .     D
C495   C499    1.412   .     A
C495   H512    1.076   .     S
C496   H515    1.085   .     S
C497   H506    1.085   .     S
C497   O523    1.220   .     D
C498   H507    1.086   .     S
C498   O524    1.220   .     D
C498   C503    1.489   .     S
C499   C501    1.421   .     A
C499   C500    1.420   .     A
C500   C1107   1.412   .     S
C501   C1105   1.418   .     S
C502   C503    1.428   .     A
C502   C1104   1.418   1_554 S
C503   C504    1.416   .     A
C504   C1103   1.412   1_554 S
H505   C550    1.086   .     S
H514   C92     1.085   1_565 S
O516   Zn533   1.949   .     S
O516   Zn535   1.929   .     S
O516   Zn536   1.940   .     S
O516   Zn534   1.953   .     S
O517   Zn534   1.919   .     S
O518   Zn536   1.928   .     S
O519   Zn535   1.931   .     S
O520   Zn533   1.923   .     S
O522   C94     1.222   1_565 S
O525   Zn533   1.945   .     S
O526   Zn536   1.940   .     S
O527   Zn534   1.925   .     S
O528   Zn535   1.932   .     S
O529   Zn536   1.931   .     S
O530   Zn533   1.923   .     S
O531   Zn534   1.943   .     S
O532   Zn535   1.946   .     S
Br537  C571    1.942   .     S
Br538  C546    1.939   .     S
C540   O596    1.275   .     A
C540   C550    1.436   .     S
C540   O594    1.274   .     A
C541   C568    1.412   .     A
C541   C542    1.385   .     A
C541   H580    1.077   .     S
C542   H576    1.080   .     S
C542   C1147   1.398   .     S
C543   C549    1.455   .     S
C543   O597    1.277   .     A
C543   O595    1.275   .     A
C544   C545    1.421   .     A
C544   C546    1.421   .     A
C544   C1145   1.398   1_554 S
C545   C569    1.434   .     A
C545   C548    1.402   .     A
C546   C547    1.417   .     A
C547   C564    1.492   .     S
C547   C559    1.410   .     A
C548   H575    1.081   .     S
C548   C559    1.390   .     A
C549   Br405   1.930   1_655 S
C549   C416    1.337   1_655 S
C551   C560    1.393   .     A
C551   C558    1.396   .     A
C551   H578    1.083   .     S
C552   C555    1.464   .     S
C552   C151    1.362   1_565 S
C552   C159    1.499   1_565 S
C553   C554    1.433   .     S
C553   C563    1.488   .     S
C554   O592    1.264   .     A
C554   O598    1.280   .     A
C555   O593    1.269   .     A
C555   O599    1.273   .     A
C556   C559    1.461   .     S
C556   O584    1.277   .     A
C556   O586    1.278   .     A
C557   O585    1.285   .     A
C557   O587    1.284   .     A
C557   C558    1.474   .     S
C558   C562    1.396   .     A
C560   C567    1.413   .     A
C560   H577    1.080   .     S
C561   O588    1.221   .     D
C562   C566    1.412   .     A
C562   H579    1.076   .     S
C563   H582    1.085   .     S
C564   H573    1.085   .     S
C564   O590    1.220   .     D
C565   H574    1.086   .     S
C565   O591    1.220   .     D
C565   C570    1.489   .     S
C566   C568    1.421   .     A
C566   C567    1.420   .     A
C567   C1174   1.412   .     S
C568   C1172   1.418   .     S
C569   C570    1.428   .     A
C569   C1171   1.418   1_554 S
C570   C571    1.416   .     A
C571   C1170   1.412   1_554 S
H572   C416    1.086   1_655 S
H581   C159    1.085   1_565 S
O583   Zn600   1.949   .     S
O583   Zn602   1.929   .     S
O583   Zn603   1.940   .     S
O583   Zn601   1.953   .     S
O584   Zn601   1.919   .     S
O585   Zn603   1.928   .     S
O586   Zn602   1.931   .     S
O587   Zn600   1.923   .     S
O589   C161    1.222   1_565 S
O592   Zn600   1.945   .     S
O593   Zn603   1.940   .     S
O594   Zn601   1.925   .     S
O595   Zn602   1.932   .     S
O596   Zn603   1.931   .     S
O597   Zn600   1.923   .     S
O598   Zn601   1.943   .     S
O599   Zn602   1.946   .     S
Br604  C638    1.942   .     S
Br605  C613    1.939   .     S
Br606  C750    1.930   1_455 S
C607   O663    1.275   .     A
C607   C617    1.436   .     S
C607   O661    1.274   .     A
C608   C635    1.412   .     A
C608   C609    1.385   .     A
C608   H647    1.077   .     S
C609   H643    1.080   .     S
C609   C8      1.398   1_556 S
C610   C616    1.455   .     S
C610   O664    1.277   .     A
C610   O662    1.275   .     A
C611   C612    1.421   .     A
C611   C613    1.421   .     A
C612   C636    1.434   .     A
C612   C615    1.402   .     A
C613   C614    1.417   .     A
C614   C631    1.492   .     S
C614   C626    1.410   .     A
C615   H642    1.081   .     S
C615   C626    1.390   .     A
C616   Br673   1.930   .     S
C616   C684    1.337   .     S
C617   C750    1.337   1_455 S
C617   H773    1.086   1_455 S
C618   C627    1.393   .     A
C618   C625    1.396   .     A
C618   H645    1.083   .     S
C619   C622    1.464   .     S
C619   C821    1.362   .     S
C619   C829    1.499   .     S
C620   C621    1.433   .     S
C620   C630    1.488   .     S
C620   C1021   1.362   1_545 S
C621   O659    1.264   .     A
C621   O665    1.280   .     A
C622   O660    1.269   .     A
C622   O666    1.273   .     A
C623   C626    1.461   .     S
C623   O651    1.277   .     A
C623   O653    1.278   .     A
C624   O652    1.285   .     A
C624   O654    1.284   .     A
C624   C625    1.474   .     S
C625   C629    1.396   .     A
C627   C634    1.413   .     A
C627   H644    1.080   .     S
C628   O655    1.221   .     D
C628   C1021   1.499   1_545 S
C628   H1050   1.085   1_545 S
C629   C633    1.412   .     A
C629   H646    1.076   .     S
C630   H649    1.085   .     S
C630   O1058   1.222   1_545 S
C631   H640    1.085   .     S
C631   O657    1.220   .     D
C632   H641    1.086   .     S
C632   O658    1.220   .     D
C632   C637    1.489   .     S
C633   C635    1.421   .     A
C633   C634    1.420   .     A
C634   C35     1.412   1_556 S
C635   C33     1.418   1_556 S
C636   C637    1.428   .     A
C637   C638    1.416   .     A
H639   C684    1.086   .     S
H648   C829    1.085   .     S
O650   Zn667   1.949   .     S
O650   Zn669   1.929   .     S
O650   Zn670   1.940   .     S
O650   Zn668   1.953   .     S
O651   Zn668   1.919   .     S
O652   Zn670   1.928   .     S
O653   Zn669   1.931   .     S
O654   Zn667   1.923   .     S
O656   C831    1.222   .     S
O659   Zn667   1.945   .     S
O660   Zn670   1.940   .     S
O661   Zn668   1.925   .     S
O662   Zn669   1.932   .     S
O663   Zn670   1.931   .     S
O664   Zn667   1.923   .     S
O665   Zn668   1.943   .     S
O666   Zn669   1.946   .     S
Br671  C705    1.942   .     S
Br672  C680    1.939   .     S
C674   O730    1.275   .     A
C674   C684    1.436   .     S
C674   O728    1.274   .     A
C675   C702    1.412   .     A
C675   C676    1.385   .     A
C675   H714    1.077   .     S
C676   H710    1.080   .     S
C676   C75     1.398   1_556 S
C677   C683    1.455   .     S
C677   O731    1.277   .     A
C677   O729    1.275   .     A
C678   C679    1.421   .     A
C678   C680    1.421   .     A
C679   C703    1.434   .     A
C679   C682    1.402   .     A
C680   C681    1.417   .     A
C681   C698    1.492   .     S
C681   C693    1.410   .     A
C682   H709    1.081   .     S
C682   C693    1.390   .     A
C683   Br740   1.930   .     S
C683   C751    1.337   .     S
C685   C694    1.393   .     A
C685   C692    1.396   .     A
C685   H712    1.083   .     S
C686   C689    1.464   .     S
C686   C888    1.362   .     S
C686   C896    1.499   .     S
C687   C688    1.433   .     S
C687   C697    1.488   .     S
C687   C1088   1.362   1_545 S
C688   O726    1.264   .     A
C688   O732    1.280   .     A
C689   O727    1.269   .     A
C689   O733    1.273   .     A
C690   C693    1.461   .     S
C690   O718    1.277   .     A
C690   O720    1.278   .     A
C691   O719    1.285   .     A
C691   O721    1.284   .     A
C691   C692    1.474   .     S
C692   C696    1.396   .     A
C694   C701    1.413   .     A
C694   H711    1.080   .     S
C695   O722    1.221   .     D
C695   C1088   1.499   1_545 S
C695   H1117   1.085   1_545 S
C696   C700    1.412   .     A
C696   H713    1.076   .     S
C697   H716    1.085   .     S
C697   O1125   1.222   1_545 S
C698   H707    1.085   .     S
C698   O724    1.220   .     D
C699   H708    1.086   .     S
C699   O725    1.220   .     D
C699   C704    1.489   .     S
C700   C702    1.421   .     A
C700   C701    1.420   .     A
C701   C102    1.412   1_556 S
C702   C100    1.418   1_556 S
C703   C704    1.428   .     A
C704   C705    1.416   .     A
H706   C751    1.086   .     S
H715   C896    1.085   .     S
O717   Zn734   1.949   .     S
O717   Zn736   1.929   .     S
O717   Zn737   1.940   .     S
O717   Zn735   1.953   .     S
O718   Zn735   1.919   .     S
O719   Zn737   1.928   .     S
O720   Zn736   1.931   .     S
O721   Zn734   1.923   .     S
O723   C898    1.222   .     S
O726   Zn734   1.945   .     S
O727   Zn737   1.940   .     S
O728   Zn735   1.925   .     S
O729   Zn736   1.932   .     S
O730   Zn737   1.931   .     S
O731   Zn734   1.923   .     S
O732   Zn735   1.943   .     S
O733   Zn736   1.946   .     S
Br738  C772    1.942   .     S
Br739  C747    1.939   .     S
C741   O797    1.275   .     A
C741   C751    1.436   .     S
C741   O795    1.274   .     A
C742   C769    1.412   .     A
C742   C743    1.385   .     A
C742   H781    1.077   .     S
C743   H777    1.080   .     S
C743   C142    1.398   1_556 S
C744   C750    1.455   .     S
C744   O798    1.277   .     A
C744   O796    1.275   .     A
C745   C746    1.421   .     A
C745   C747    1.421   .     A
C746   C770    1.434   .     A
C746   C749    1.402   .     A
C747   C748    1.417   .     A
C748   C765    1.492   .     S
C748   C760    1.410   .     A
C749   H776    1.081   .     S
C749   C760    1.390   .     A
C750   Br606   1.930   1_655 S
C750   C617    1.337   1_655 S
C752   C761    1.393   .     A
C752   C759    1.396   .     A
C752   H779    1.083   .     S
C753   C756    1.464   .     S
C753   C955    1.362   .     S
C753   C963    1.499   .     S
C754   C755    1.433   .     S
C754   C764    1.488   .     S
C754   C1155   1.362   1_545 S
C755   O793    1.264   .     A
C755   O799    1.280   .     A
C756   O794    1.269   .     A
C756   O800    1.273   .     A
C757   C760    1.461   .     S
C757   O785    1.277   .     A
C757   O787    1.278   .     A
C758   O786    1.285   .     A
C758   O788    1.284   .     A
C758   C759    1.474   .     S
C759   C763    1.396   .     A
C761   C768    1.413   .     A
C761   H778    1.080   .     S
C762   O789    1.221   .     D
C762   C1155   1.499   1_545 S
C762   H1184   1.085   1_545 S
C763   C767    1.412   .     A
C763   H780    1.076   .     S
C764   H783    1.085   .     S
C764   O1192   1.222   1_545 S
C765   H774    1.085   .     S
C765   O791    1.220   .     D
C766   H775    1.086   .     S
C766   O792    1.220   .     D
C766   C771    1.489   .     S
C767   C769    1.421   .     A
C767   C768    1.420   .     A
C768   C169    1.412   1_556 S
C769   C167    1.418   1_556 S
C770   C771    1.428   .     A
C771   C772    1.416   .     A
H773   C617    1.086   1_655 S
H782   C963    1.085   .     S
O784   Zn801   1.949   .     S
O784   Zn803   1.929   .     S
O784   Zn804   1.940   .     S
O784   Zn802   1.953   .     S
O785   Zn802   1.919   .     S
O786   Zn804   1.928   .     S
O787   Zn803   1.931   .     S
O788   Zn801   1.923   .     S
O790   C965    1.222   .     S
O793   Zn801   1.945   .     S
O794   Zn804   1.940   .     S
O795   Zn802   1.925   .     S
O796   Zn803   1.932   .     S
O797   Zn804   1.931   .     S
O798   Zn801   1.923   .     S
O799   Zn802   1.943   .     S
O800   Zn803   1.946   .     S
Br805  C839    1.942   .     S
Br806  C814    1.939   .     S
Br807  C951    1.930   1_455 S
C808   O864    1.275   .     A
C808   C818    1.436   .     S
C808   O862    1.274   .     A
C809   C836    1.412   .     A
C809   C810    1.385   .     A
C809   H848    1.077   .     S
C810   H844    1.080   .     S
C810   C209    1.398   1_556 S
C811   C817    1.455   .     S
C811   O865    1.277   .     A
C811   O863    1.275   .     A
C812   C813    1.421   .     A
C812   C814    1.421   .     A
C813   C837    1.434   .     A
C813   C816    1.402   .     A
C814   C815    1.417   .     A
C815   C832    1.492   .     S
C815   C827    1.410   .     A
C816   H843    1.081   .     S
C816   C827    1.390   .     A
C817   Br874   1.930   .     S
C817   C885    1.337   .     S
C818   C951    1.337   1_455 S
C818   H974    1.086   1_455 S
C819   C828    1.393   .     A
C819   C826    1.396   .     A
C819   H846    1.083   .     S
C820   C823    1.464   .     S
C820   C1022   1.362   .     S
C820   C1030   1.499   .     S
C821   C822    1.433   .     S
C821   C831    1.488   .     S
C822   O860    1.264   .     A
C822   O866    1.280   .     A
C823   O861    1.269   .     A
C823   O867    1.273   .     A
C824   C827    1.461   .     S
C824   O852    1.277   .     A
C824   O854    1.278   .     A
C825   O853    1.285   .     A
C825   O855    1.284   .     A
C825   C826    1.474   .     S
C826   C830    1.396   .     A
C828   C835    1.413   .     A
C828   H845    1.080   .     S
C829   O856    1.221   .     D
C830   C834    1.412   .     A
C830   H847    1.076   .     S
C831   H850    1.085   .     S
C832   H841    1.085   .     S
C832   O858    1.220   .     D
C833   H842    1.086   .     S
C833   O859    1.220   .     D
C833   C838    1.489   .     S
C834   C836    1.421   .     A
C834   C835    1.420   .     A
C835   C236    1.412   1_556 S
C836   C234    1.418   1_556 S
C837   C838    1.428   .     A
C838   C839    1.416   .     A
H840   C885    1.086   .     S
H849   C1030   1.085   .     S
O851   Zn868   1.949   .     S
O851   Zn870   1.929   .     S
O851   Zn871   1.940   .     S
O851   Zn869   1.953   .     S
O852   Zn869   1.919   .     S
O853   Zn871   1.928   .     S
O854   Zn870   1.931   .     S
O855   Zn868   1.923   .     S
O857   C1032   1.222   .     S
O860   Zn868   1.945   .     S
O861   Zn871   1.940   .     S
O862   Zn869   1.925   .     S
O863   Zn870   1.932   .     S
O864   Zn871   1.931   .     S
O865   Zn868   1.923   .     S
O866   Zn869   1.943   .     S
O867   Zn870   1.946   .     S
Br872  C906    1.942   .     S
Br873  C881    1.939   .     S
C875   O931    1.275   .     A
C875   C885    1.436   .     S
C875   O929    1.274   .     A
C876   C903    1.412   .     A
C876   C877    1.385   .     A
C876   H915    1.077   .     S
C877   H911    1.080   .     S
C877   C276    1.398   1_556 S
C878   C884    1.455   .     S
C878   O932    1.277   .     A
C878   O930    1.275   .     A
C879   C880    1.421   .     A
C879   C881    1.421   .     A
C880   C904    1.434   .     A
C880   C883    1.402   .     A
C881   C882    1.417   .     A
C882   C899    1.492   .     S
C882   C894    1.410   .     A
C883   H910    1.081   .     S
C883   C894    1.390   .     A
C884   Br941   1.930   .     S
C884   C952    1.337   .     S
C886   C895    1.393   .     A
C886   C893    1.396   .     A
C886   H913    1.083   .     S
C887   C890    1.464   .     S
C887   C1089   1.362   .     S
C887   C1097   1.499   .     S
C888   C889    1.433   .     S
C888   C898    1.488   .     S
C889   O927    1.264   .     A
C889   O933    1.280   .     A
C890   O928    1.269   .     A
C890   O934    1.273   .     A
C891   C894    1.461   .     S
C891   O919    1.277   .     A
C891   O921    1.278   .     A
C892   O920    1.285   .     A
C892   O922    1.284   .     A
C892   C893    1.474   .     S
C893   C897    1.396   .     A
C895   C902    1.413   .     A
C895   H912    1.080   .     S
C896   O923    1.221   .     D
C897   C901    1.412   .     A
C897   H914    1.076   .     S
C898   H917    1.085   .     S
C899   H908    1.085   .     S
C899   O925    1.220   .     D
C900   H909    1.086   .     S
C900   O926    1.220   .     D
C900   C905    1.489   .     S
C901   C903    1.421   .     A
C901   C902    1.420   .     A
C902   C303    1.412   1_556 S
C903   C301    1.418   1_556 S
C904   C905    1.428   .     A
C905   C906    1.416   .     A
H907   C952    1.086   .     S
H916   C1097   1.085   .     S
O918   Zn935   1.949   .     S
O918   Zn937   1.929   .     S
O918   Zn938   1.940   .     S
O918   Zn936   1.953   .     S
O919   Zn936   1.919   .     S
O920   Zn938   1.928   .     S
O921   Zn937   1.931   .     S
O922   Zn935   1.923   .     S
O924   C1099   1.222   .     S
O927   Zn935   1.945   .     S
O928   Zn938   1.940   .     S
O929   Zn936   1.925   .     S
O930   Zn937   1.932   .     S
O931   Zn938   1.931   .     S
O932   Zn935   1.923   .     S
O933   Zn936   1.943   .     S
O934   Zn937   1.946   .     S
Br939  C973    1.942   .     S
Br940  C948    1.939   .     S
C942   O998    1.275   .     A
C942   C952    1.436   .     S
C942   O996    1.274   .     A
C943   C970    1.412   .     A
C943   C944    1.385   .     A
C943   H982    1.077   .     S
C944   H978    1.080   .     S
C944   C343    1.398   1_556 S
C945   C951    1.455   .     S
C945   O999    1.277   .     A
C945   O997    1.275   .     A
C946   C947    1.421   .     A
C946   C948    1.421   .     A
C947   C971    1.434   .     A
C947   C950    1.402   .     A
C948   C949    1.417   .     A
C949   C966    1.492   .     S
C949   C961    1.410   .     A
C950   H977    1.081   .     S
C950   C961    1.390   .     A
C951   Br807   1.930   1_655 S
C951   C818    1.337   1_655 S
C953   C962    1.393   .     A
C953   C960    1.396   .     A
C953   H980    1.083   .     S
C954   C957    1.464   .     S
C954   C1156   1.362   .     S
C954   C1164   1.499   .     S
C955   C956    1.433   .     S
C955   C965    1.488   .     S
C956   O994    1.264   .     A
C956   O1000   1.280   .     A
C957   O995    1.269   .     A
C957   O1001   1.273   .     A
C958   C961    1.461   .     S
C958   O986    1.277   .     A
C958   O988    1.278   .     A
C959   O987    1.285   .     A
C959   O989    1.284   .     A
C959   C960    1.474   .     S
C960   C964    1.396   .     A
C962   C969    1.413   .     A
C962   H979    1.080   .     S
C963   O990    1.221   .     D
C964   C968    1.412   .     A
C964   H981    1.076   .     S
C965   H984    1.085   .     S
C966   H975    1.085   .     S
C966   O992    1.220   .     D
C967   H976    1.086   .     S
C967   O993    1.220   .     D
C967   C972    1.489   .     S
C968   C970    1.421   .     A
C968   C969    1.420   .     A
C969   C370    1.412   1_556 S
C970   C368    1.418   1_556 S
C971   C972    1.428   .     A
C972   C973    1.416   .     A
H974   C818    1.086   1_655 S
H983   C1164   1.085   .     S
O985   Zn1002  1.949   .     S
O985   Zn1004  1.929   .     S
O985   Zn1005  1.940   .     S
O985   Zn1003  1.953   .     S
O986   Zn1003  1.919   .     S
O987   Zn1005  1.928   .     S
O988   Zn1004  1.931   .     S
O989   Zn1002  1.923   .     S
O991   C1166   1.222   .     S
O994   Zn1002  1.945   .     S
O995   Zn1005  1.940   .     S
O996   Zn1003  1.925   .     S
O997   Zn1004  1.932   .     S
O998   Zn1005  1.931   .     S
O999   Zn1002  1.923   .     S
O1000  Zn1003  1.943   .     S
O1001  Zn1004  1.946   .     S
Br1006 C1040   1.942   .     S
Br1007 C1015   1.939   .     S
Br1008 C1152   1.930   1_455 S
C1009  O1065   1.275   .     A
C1009  C1019   1.436   .     S
C1009  O1063   1.274   .     A
C1010  C1037   1.412   .     A
C1010  C1011   1.385   .     A
C1010  H1049   1.077   .     S
C1011  H1045   1.080   .     S
C1011  C410    1.398   1_556 S
C1012  C1018   1.455   .     S
C1012  O1066   1.277   .     A
C1012  O1064   1.275   .     A
C1013  C1014   1.421   .     A
C1013  C1015   1.421   .     A
C1014  C1038   1.434   .     A
C1014  C1017   1.402   .     A
C1015  C1016   1.417   .     A
C1016  C1033   1.492   .     S
C1016  C1028   1.410   .     A
C1017  H1044   1.081   .     S
C1017  C1028   1.390   .     A
C1018  Br1075  1.930   .     S
C1018  C1086   1.337   .     S
C1019  C1152   1.337   1_455 S
C1019  H1175   1.086   1_455 S
C1020  C1029   1.393   .     A
C1020  C1027   1.396   .     A
C1020  H1047   1.083   .     S
C1021  C1024   1.464   .     S
C1021  C620    1.362   1_565 S
C1021  C628    1.499   1_565 S
C1022  C1023   1.433   .     S
C1022  C1032   1.488   .     S
C1023  O1061   1.264   .     A
C1023  O1067   1.280   .     A
C1024  O1062   1.269   .     A
C1024  O1068   1.273   .     A
C1025  C1028   1.461   .     S
C1025  O1053   1.277   .     A
C1025  O1055   1.278   .     A
C1026  O1054   1.285   .     A
C1026  O1056   1.284   .     A
C1026  C1027   1.474   .     S
C1027  C1031   1.396   .     A
C1029  C1036   1.413   .     A
C1029  H1046   1.080   .     S
C1030  O1057   1.221   .     D
C1031  C1035   1.412   .     A
C1031  H1048   1.076   .     S
C1032  H1051   1.085   .     S
C1033  H1042   1.085   .     S
C1033  O1059   1.220   .     D
C1034  H1043   1.086   .     S
C1034  O1060   1.220   .     D
C1034  C1039   1.489   .     S
C1035  C1037   1.421   .     A
C1035  C1036   1.420   .     A
C1036  C437    1.412   1_556 S
C1037  C435    1.418   1_556 S
C1038  C1039   1.428   .     A
C1039  C1040   1.416   .     A
H1041  C1086   1.086   .     S
H1050  C628    1.085   1_565 S
O1052  Zn1069  1.949   .     S
O1052  Zn1071  1.929   .     S
O1052  Zn1072  1.940   .     S
O1052  Zn1070  1.953   .     S
O1053  Zn1070  1.919   .     S
O1054  Zn1072  1.928   .     S
O1055  Zn1071  1.931   .     S
O1056  Zn1069  1.923   .     S
O1058  C630    1.222   1_565 S
O1061  Zn1069  1.945   .     S
O1062  Zn1072  1.940   .     S
O1063  Zn1070  1.925   .     S
O1064  Zn1071  1.932   .     S
O1065  Zn1072  1.931   .     S
O1066  Zn1069  1.923   .     S
O1067  Zn1070  1.943   .     S
O1068  Zn1071  1.946   .     S
Br1073 C1107   1.942   .     S
Br1074 C1082   1.939   .     S
C1076  O1132   1.275   .     A
C1076  C1086   1.436   .     S
C1076  O1130   1.274   .     A
C1077  C1104   1.412   .     A
C1077  C1078   1.385   .     A
C1077  H1116   1.077   .     S
C1078  H1112   1.080   .     S
C1078  C477    1.398   1_556 S
C1079  C1085   1.455   .     S
C1079  O1133   1.277   .     A
C1079  O1131   1.275   .     A
C1080  C1081   1.421   .     A
C1080  C1082   1.421   .     A
C1081  C1105   1.434   .     A
C1081  C1084   1.402   .     A
C1082  C1083   1.417   .     A
C1083  C1100   1.492   .     S
C1083  C1095   1.410   .     A
C1084  H1111   1.081   .     S
C1084  C1095   1.390   .     A
C1085  Br1142  1.930   .     S
C1085  C1153   1.337   .     S
C1087  C1096   1.393   .     A
C1087  C1094   1.396   .     A
C1087  H1114   1.083   .     S
C1088  C1091   1.464   .     S
C1088  C687    1.362   1_565 S
C1088  C695    1.499   1_565 S
C1089  C1090   1.433   .     S
C1089  C1099   1.488   .     S
C1090  O1128   1.264   .     A
C1090  O1134   1.280   .     A
C1091  O1129   1.269   .     A
C1091  O1135   1.273   .     A
C1092  C1095   1.461   .     S
C1092  O1120   1.277   .     A
C1092  O1122   1.278   .     A
C1093  O1121   1.285   .     A
C1093  O1123   1.284   .     A
C1093  C1094   1.474   .     S
C1094  C1098   1.396   .     A
C1096  C1103   1.413   .     A
C1096  H1113   1.080   .     S
C1097  O1124   1.221   .     D
C1098  C1102   1.412   .     A
C1098  H1115   1.076   .     S
C1099  H1118   1.085   .     S
C1100  H1109   1.085   .     S
C1100  O1126   1.220   .     D
C1101  H1110   1.086   .     S
C1101  O1127   1.220   .     D
C1101  C1106   1.489   .     S
C1102  C1104   1.421   .     A
C1102  C1103   1.420   .     A
C1103  C504    1.412   1_556 S
C1104  C502    1.418   1_556 S
C1105  C1106   1.428   .     A
C1106  C1107   1.416   .     A
H1108  C1153   1.086   .     S
H1117  C695    1.085   1_565 S
O1119  Zn1136  1.949   .     S
O1119  Zn1138  1.929   .     S
O1119  Zn1139  1.940   .     S
O1119  Zn1137  1.953   .     S
O1120  Zn1137  1.919   .     S
O1121  Zn1139  1.928   .     S
O1122  Zn1138  1.931   .     S
O1123  Zn1136  1.923   .     S
O1125  C697    1.222   1_565 S
O1128  Zn1136  1.945   .     S
O1129  Zn1139  1.940   .     S
O1130  Zn1137  1.925   .     S
O1131  Zn1138  1.932   .     S
O1132  Zn1139  1.931   .     S
O1133  Zn1136  1.923   .     S
O1134  Zn1137  1.943   .     S
O1135  Zn1138  1.946   .     S
Br1140 C1174   1.942   .     S
Br1141 C1149   1.939   .     S
C1143  O1199   1.275   .     A
C1143  C1153   1.436   .     S
C1143  O1197   1.274   .     A
C1144  C1171   1.412   .     A
C1144  C1145   1.385   .     A
C1144  H1183   1.077   .     S
C1145  H1179   1.080   .     S
C1145  C544    1.398   1_556 S
C1146  C1152   1.455   .     S
C1146  O1200   1.277   .     A
C1146  O1198   1.275   .     A
C1147  C1148   1.421   .     A
C1147  C1149   1.421   .     A
C1148  C1172   1.434   .     A
C1148  C1151   1.402   .     A
C1149  C1150   1.417   .     A
C1150  C1167   1.492   .     S
C1150  C1162   1.410   .     A
C1151  H1178   1.081   .     S
C1151  C1162   1.390   .     A
C1152  Br1008  1.930   1_655 S
C1152  C1019   1.337   1_655 S
C1154  C1163   1.393   .     A
C1154  C1161   1.396   .     A
C1154  H1181   1.083   .     S
C1155  C1158   1.464   .     S
C1155  C754    1.362   1_565 S
C1155  C762    1.499   1_565 S
C1156  C1157   1.433   .     S
C1156  C1166   1.488   .     S
C1157  O1195   1.264   .     A
C1157  O1201   1.280   .     A
C1158  O1196   1.269   .     A
C1158  O1202   1.273   .     A
C1159  C1162   1.461   .     S
C1159  O1187   1.277   .     A
C1159  O1189   1.278   .     A
C1160  O1188   1.285   .     A
C1160  O1190   1.284   .     A
C1160  C1161   1.474   .     S
C1161  C1165   1.396   .     A
C1163  C1170   1.413   .     A
C1163  H1180   1.080   .     S
C1164  O1191   1.221   .     D
C1165  C1169   1.412   .     A
C1165  H1182   1.076   .     S
C1166  H1185   1.085   .     S
C1167  H1176   1.085   .     S
C1167  O1193   1.220   .     D
C1168  H1177   1.086   .     S
C1168  O1194   1.220   .     D
C1168  C1173   1.489   .     S
C1169  C1171   1.421   .     A
C1169  C1170   1.420   .     A
C1170  C571    1.412   1_556 S
C1171  C569    1.418   1_556 S
C1172  C1173   1.428   .     A
C1173  C1174   1.416   .     A
H1175  C1019   1.086   1_655 S
H1184  C762    1.085   1_565 S
O1186  Zn1203  1.949   .     S
O1186  Zn1205  1.929   .     S
O1186  Zn1206  1.940   .     S
O1186  Zn1204  1.953   .     S
O1187  Zn1204  1.919   .     S
O1188  Zn1206  1.928   .     S
O1189  Zn1205  1.931   .     S
O1190  Zn1203  1.923   .     S
O1192  C764    1.222   1_565 S
O1195  Zn1203  1.945   .     S
O1196  Zn1206  1.940   .     S
O1197  Zn1204  1.925   .     S
O1198  Zn1205  1.932   .     S
O1199  Zn1206  1.931   .     S
O1200  Zn1203  1.923   .     S
O1201  Zn1204  1.943   .     S
O1202  Zn1205  1.946   .     S
