data_str_m2_o1_o1_pcu_sym.44
_audit_creation_date              2020-01-03
_audit_creation_method            'Materials Studio'
_symmetry_space_group_name_H-M    'P1'
_symmetry_Int_Tables_number       1
_symmetry_cell_setting            triclinic
loop_
_symmetry_equiv_pos_as_xyz
  x,y,z
_cell_length_a                    30.8410
_cell_length_b                    30.6670
_cell_length_c                    28.5208
_cell_angle_alpha                 89.9410
_cell_angle_beta                  90.8035
_cell_angle_gamma                 90.1039
loop_
_atom_site_label
_atom_site_type_symbol
_atom_site_fract_x
_atom_site_fract_y
_atom_site_fract_z
_atom_site_U_iso_or_equiv
_atom_site_adp_type
_atom_site_occupancy
O1     O     0.04509   0.20491   0.20625   0.00000  Uiso   1.00
O2     O     0.45492   0.29509   0.12709   0.00000  Uiso   1.00
O3     O     0.45492   0.29509   0.20625   0.00000  Uiso   1.00
O4     O     0.04509   0.20491   0.12709   0.00000  Uiso   1.00
O5     O     0.45492   0.20491   0.12709   0.00000  Uiso   1.00
O6     O     0.04509   0.29509   0.20625   0.00000  Uiso   1.00
O7     O     0.04509   0.29509   0.12709   0.00000  Uiso   1.00
O8     O     0.45492   0.20491   0.20625   0.00000  Uiso   1.00
O9     O     0.29509   0.45491   0.20625   0.00000  Uiso   1.00
O10    O     0.20492   0.04509   0.12709   0.00000  Uiso   1.00
O11    O     0.20492   0.04509   0.20625   0.00000  Uiso   1.00
O12    O     0.29509   0.45491   0.12709   0.00000  Uiso   1.00
O13    O     0.20492   0.45491   0.12709   0.00000  Uiso   1.00
O14    O     0.29509   0.04509   0.20625   0.00000  Uiso   1.00
O15    O     0.29509   0.04509   0.12709   0.00000  Uiso   1.00
O16    O     0.20492   0.45491   0.20625   0.00000  Uiso   1.00
C17    C     0.05898   0.19005   0.16692   0.00000  Uiso   1.00
C18    C     0.44101   0.30995   0.16640   0.00000  Uiso   1.00
C19    C     0.44072   0.19036   0.16647   0.00000  Uiso   1.00
C20    C     0.05902   0.30989   0.16693   0.00000  Uiso   1.00
C21    C     0.30899   0.44005   0.16694   0.00000  Uiso   1.00
C22    C     0.19102   0.05995   0.16641   0.00000  Uiso   1.00
C23    C     0.19098   0.44011   0.16641   0.00000  Uiso   1.00
C24    C     0.30928   0.05964   0.16687   0.00000  Uiso   1.00
H25    H     0.49715   0.18117   0.04357   0.00000  Uiso   1.00
H26    H     0.00147   0.31882   0.28979   0.00000  Uiso   1.00
H27    H     0.00282   0.31883   0.04344   0.00000  Uiso   1.00
H28    H     0.49666   0.18115   0.28988   0.00000  Uiso   1.00
H29    H     0.24855   0.43117   0.04354   0.00000  Uiso   1.00
H30    H     0.25283   0.06883   0.28977   0.00000  Uiso   1.00
H31    H     0.25333   0.06885   0.04346   0.00000  Uiso   1.00
H32    H     0.24722   0.43117   0.28990   0.00000  Uiso   1.00
N33    N     0.00000   0.25000   0.28402   0.00000  Uiso   1.00
N34    N     0.00000   0.25000   0.04931   0.00000  Uiso   1.00
N35    N     0.25000  -0.00000   0.28402   0.00000  Uiso   1.00
N36    N     0.25000  -0.00000   0.04931   0.00000  Uiso   1.00
Cu37   Cu    0.00000   0.25000   0.21355   0.00000  Uiso   1.00
Cu38   Cu    0.00000   0.25000   0.11978   0.00000  Uiso   1.00
Cu39   Cu    0.25000  -0.00000   0.21355   0.00000  Uiso   1.00
Cu40   Cu    0.25000  -0.00000   0.11978   0.00000  Uiso   1.00
C41    C     0.49843   0.21175   0.02483   0.00000  Uiso   1.00
C42    C     0.00105   0.28824   0.30851   0.00000  Uiso   1.00
C43    C     0.00146   0.28823   0.02478   0.00000  Uiso   1.00
C44    C     0.49828   0.21176   0.30855   0.00000  Uiso   1.00
C45    C     0.24896   0.46176   0.02483   0.00000  Uiso   1.00
C46    C     0.25156   0.03825   0.30850   0.00000  Uiso   1.00
C47    C     0.25171   0.03824   0.02479   0.00000  Uiso   1.00
C48    C     0.24855   0.46176   0.30855   0.00000  Uiso   1.00
C49    C     0.37718   0.15462   0.12888   0.00000  Uiso   1.00
C50    C     0.12021   0.34833   0.20645   0.00000  Uiso   1.00
C51    C     0.09550   0.37205   0.12872   0.00000  Uiso   1.00
C52    C     0.40639   0.12599   0.20297   0.00000  Uiso   1.00
C53    C     0.11854   0.14987   0.20745   0.00000  Uiso   1.00
C54    C     0.38078   0.34945   0.12625   0.00000  Uiso   1.00
C55    C     0.40356   0.37109   0.20534   0.00000  Uiso   1.00
C56    C     0.09713   0.12960   0.12749   0.00000  Uiso   1.00
C57    C     0.12979   0.40167   0.12689   0.00000  Uiso   1.00
C58    C     0.37283   0.09538   0.20445   0.00000  Uiso   1.00
C59    C     0.34361   0.12401   0.13037   0.00000  Uiso   1.00
C60    C     0.15450   0.37795   0.20461   0.00000  Uiso   1.00
C61    C     0.36922   0.40055   0.20708   0.00000  Uiso   1.00
C62    C     0.13146   0.10013   0.12588   0.00000  Uiso   1.00
C63    C     0.15287   0.12040   0.20585   0.00000  Uiso   1.00
C64    C     0.34644   0.37891   0.12800   0.00000  Uiso   1.00
C65    C     0.09193   0.34393   0.16749   0.00000  Uiso   1.00
C66    C     0.40761   0.15653   0.16608   0.00000  Uiso   1.00
C67    C     0.40813   0.34402   0.16585   0.00000  Uiso   1.00
C68    C     0.09187   0.15598   0.16742   0.00000  Uiso   1.00
C69    C     0.34239   0.09346   0.16726   0.00000  Uiso   1.00
C70    C     0.15807   0.40607   0.16584   0.00000  Uiso   1.00
C71    C     0.15813   0.09402   0.16591   0.00000  Uiso   1.00
C72    C     0.34187   0.40598   0.16748   0.00000  Uiso   1.00
O73    O     0.37763   0.18569   0.09357   0.00000  Uiso   1.00
C74    C     0.39308   0.16643   0.05210   0.00000  Uiso   1.00
H75    H     0.42335   0.14735   0.05833   0.00000  Uiso   1.00
H76    H     0.40078   0.19275   0.02683   0.00000  Uiso   1.00
H77    H     0.36787   0.14548   0.03550   0.00000  Uiso   1.00
O78    O     0.11630   0.32164   0.24532   0.00000  Uiso   1.00
C79    C     0.09650   0.34580   0.28124   0.00000  Uiso   1.00
H80    H     0.09134   0.32402   0.31174   0.00000  Uiso   1.00
H81    H     0.06439   0.35876   0.26973   0.00000  Uiso   1.00
H82    H     0.11736   0.37327   0.29314   0.00000  Uiso   1.00
O83    O     0.06649   0.36981   0.09131   0.00000  Uiso   1.00
C84    C     0.03234   0.39926   0.09935   0.00000  Uiso   1.00
H85    H     0.01211   0.38804   0.12897   0.00000  Uiso   1.00
H86    H     0.01128   0.40039   0.06754   0.00000  Uiso   1.00
H87    H     0.04439   0.43301   0.10583   0.00000  Uiso   1.00
O88    O     0.43711   0.12673   0.23881   0.00000  Uiso   1.00
C89    C     0.47155   0.09889   0.22692   0.00000  Uiso   1.00
H90    H     0.49279   0.09464   0.25827   0.00000  Uiso   1.00
H91    H     0.49140   0.11374   0.19892   0.00000  Uiso   1.00
H92    H     0.46010   0.06584   0.21621   0.00000  Uiso   1.00
O93    O     0.11347   0.17516   0.24719   0.00000  Uiso   1.00
C94    C     0.09180   0.15010   0.28120   0.00000  Uiso   1.00
H95    H     0.05970   0.13864   0.26789   0.00000  Uiso   1.00
H96    H     0.08622   0.17083   0.31238   0.00000  Uiso   1.00
H97    H     0.11142   0.12166   0.29284   0.00000  Uiso   1.00
O98    O     0.38538   0.32368   0.08681   0.00000  Uiso   1.00
C99    C     0.40665   0.34840   0.05221   0.00000  Uiso   1.00
H100   H     0.41201   0.32734   0.02124   0.00000  Uiso   1.00
H101   H     0.43885   0.36017   0.06498   0.00000  Uiso   1.00
H102   H     0.38679   0.37666   0.04050   0.00000  Uiso   1.00
O103   O     0.43159   0.36792   0.24353   0.00000  Uiso   1.00
C104   C     0.46576   0.39795   0.23758   0.00000  Uiso   1.00
H105   H     0.48653   0.38827   0.20782   0.00000  Uiso   1.00
H106   H     0.48635   0.39783   0.26979   0.00000  Uiso   1.00
H107   H     0.45364   0.43186   0.23256   0.00000  Uiso   1.00
O108   O     0.07001   0.13366   0.08862   0.00000  Uiso   1.00
C109   C     0.03596   0.10316   0.09239   0.00000  Uiso   1.00
H110   H     0.01708   0.10310   0.05900   0.00000  Uiso   1.00
H111   H     0.01356   0.11263   0.12073   0.00000  Uiso   1.00
H112   H     0.04810   0.06936   0.09815   0.00000  Uiso   1.00
O113   O     0.13370   0.42837   0.08801   0.00000  Uiso   1.00
C114   C     0.15350   0.40420   0.05209   0.00000  Uiso   1.00
H115   H     0.18561   0.39126   0.06360   0.00000  Uiso   1.00
H116   H     0.15865   0.42599   0.02159   0.00000  Uiso   1.00
H117   H     0.13264   0.37673   0.04020   0.00000  Uiso   1.00
O118   O     0.37238   0.06431   0.23976   0.00000  Uiso   1.00
C119   C     0.35692   0.08356   0.28123   0.00000  Uiso   1.00
H120   H     0.34922   0.05723   0.30650   0.00000  Uiso   1.00
H121   H     0.32666   0.10264   0.27501   0.00000  Uiso   1.00
H122   H     0.38214   0.10450   0.29784   0.00000  Uiso   1.00
O123   O     0.31290   0.12326   0.09452   0.00000  Uiso   1.00
C124   C     0.27846   0.15113   0.10640   0.00000  Uiso   1.00
H125   H     0.25862   0.13631   0.13442   0.00000  Uiso   1.00
H126   H     0.25721   0.15535   0.07505   0.00000  Uiso   1.00
H127   H     0.28993   0.18418   0.11706   0.00000  Uiso   1.00
O128   O     0.18350   0.38019   0.24203   0.00000  Uiso   1.00
C129   C     0.21764   0.35073   0.23401   0.00000  Uiso   1.00
H130   H     0.23868   0.34959   0.26583   0.00000  Uiso   1.00
H131   H     0.23790   0.36194   0.20441   0.00000  Uiso   1.00
H132   H     0.20558   0.31699   0.22751   0.00000  Uiso   1.00
O133   O     0.36457   0.42628   0.24655   0.00000  Uiso   1.00
C134   C     0.34328   0.40151   0.28110   0.00000  Uiso   1.00
H135   H     0.31118   0.38956   0.26822   0.00000  Uiso   1.00
H136   H     0.33771   0.42260   0.31202   0.00000  Uiso   1.00
H137   H     0.36326   0.37338   0.29294   0.00000  Uiso   1.00
O138   O     0.13653   0.07485   0.08614   0.00000  Uiso   1.00
C139   C     0.15820   0.09991   0.05214   0.00000  Uiso   1.00
H140   H     0.16376   0.07920   0.02095   0.00000  Uiso   1.00
H141   H     0.19030   0.11135   0.06543   0.00000  Uiso   1.00
H142   H     0.13858   0.12836   0.04051   0.00000  Uiso   1.00
O143   O     0.17999   0.11634   0.24471   0.00000  Uiso   1.00
C144   C     0.21403   0.14684   0.24095   0.00000  Uiso   1.00
H145   H     0.23644   0.13737   0.21261   0.00000  Uiso   1.00
H146   H     0.23291   0.14690   0.27434   0.00000  Uiso   1.00
H147   H     0.20189   0.18063   0.23519   0.00000  Uiso   1.00
O148   O     0.31840   0.38206   0.08981   0.00000  Uiso   1.00
C149   C     0.28415   0.35213   0.09586   0.00000  Uiso   1.00
H150   H     0.26363   0.35212   0.06362   0.00000  Uiso   1.00
H151   H     0.26335   0.36203   0.12551   0.00000  Uiso   1.00
H152   H     0.29619   0.31823   0.10113   0.00000  Uiso   1.00
O153   O     0.54509   0.20491   0.20625   0.00000  Uiso   1.00
O154   O     0.95492   0.29509   0.12709   0.00000  Uiso   1.00
O155   O     0.95492   0.29509   0.20625   0.00000  Uiso   1.00
O156   O     0.54509   0.20491   0.12709   0.00000  Uiso   1.00
O157   O     0.95492   0.20491   0.12709   0.00000  Uiso   1.00
O158   O     0.54509   0.29509   0.20625   0.00000  Uiso   1.00
O159   O     0.54509   0.29509   0.12709   0.00000  Uiso   1.00
O160   O     0.95492   0.20491   0.20625   0.00000  Uiso   1.00
O161   O     0.79509   0.45491   0.20625   0.00000  Uiso   1.00
O162   O     0.70492   0.04509   0.12709   0.00000  Uiso   1.00
O163   O     0.70492   0.04509   0.20625   0.00000  Uiso   1.00
O164   O     0.79509   0.45491   0.12709   0.00000  Uiso   1.00
O165   O     0.70492   0.45491   0.12709   0.00000  Uiso   1.00
O166   O     0.79509   0.04509   0.20625   0.00000  Uiso   1.00
O167   O     0.79509   0.04509   0.12709   0.00000  Uiso   1.00
O168   O     0.70492   0.45491   0.20625   0.00000  Uiso   1.00
C169   C     0.55898   0.19005   0.16692   0.00000  Uiso   1.00
C170   C     0.94101   0.30995   0.16640   0.00000  Uiso   1.00
C171   C     0.94072   0.19036   0.16647   0.00000  Uiso   1.00
C172   C     0.55902   0.30989   0.16693   0.00000  Uiso   1.00
C173   C     0.80899   0.44005   0.16694   0.00000  Uiso   1.00
C174   C     0.69102   0.05995   0.16641   0.00000  Uiso   1.00
C175   C     0.69098   0.44011   0.16641   0.00000  Uiso   1.00
C176   C     0.80928   0.05964   0.16687   0.00000  Uiso   1.00
H177   H     0.99715   0.18117   0.04357   0.00000  Uiso   1.00
H178   H     0.50147   0.31882   0.28979   0.00000  Uiso   1.00
H179   H     0.50282   0.31883   0.04344   0.00000  Uiso   1.00
H180   H     0.99666   0.18115   0.28988   0.00000  Uiso   1.00
H181   H     0.74855   0.43117   0.04354   0.00000  Uiso   1.00
H182   H     0.75283   0.06883   0.28977   0.00000  Uiso   1.00
H183   H     0.75333   0.06885   0.04346   0.00000  Uiso   1.00
H184   H     0.74722   0.43117   0.28990   0.00000  Uiso   1.00
N185   N     0.50000   0.25000   0.28402   0.00000  Uiso   1.00
N186   N     0.50000   0.25000   0.04931   0.00000  Uiso   1.00
N187   N     0.75000  -0.00000   0.28402   0.00000  Uiso   1.00
N188   N     0.75000  -0.00000   0.04931   0.00000  Uiso   1.00
Cu189  Cu    0.50000   0.25000   0.21355   0.00000  Uiso   1.00
Cu190  Cu    0.50000   0.25000   0.11978   0.00000  Uiso   1.00
Cu191  Cu    0.75000  -0.00000   0.21355   0.00000  Uiso   1.00
Cu192  Cu    0.75000  -0.00000   0.11978   0.00000  Uiso   1.00
C193   C     0.99843   0.21175   0.02483   0.00000  Uiso   1.00
C194   C     0.50105   0.28824   0.30851   0.00000  Uiso   1.00
C195   C     0.50146   0.28823   0.02478   0.00000  Uiso   1.00
C196   C     0.99828   0.21176   0.30855   0.00000  Uiso   1.00
C197   C     0.74896   0.46176   0.02483   0.00000  Uiso   1.00
C198   C     0.75156   0.03825   0.30850   0.00000  Uiso   1.00
C199   C     0.75171   0.03824   0.02479   0.00000  Uiso   1.00
C200   C     0.74855   0.46176   0.30855   0.00000  Uiso   1.00
C201   C     0.87718   0.15462   0.12888   0.00000  Uiso   1.00
C202   C     0.62021   0.34833   0.20645   0.00000  Uiso   1.00
C203   C     0.59550   0.37205   0.12872   0.00000  Uiso   1.00
C204   C     0.90639   0.12599   0.20297   0.00000  Uiso   1.00
C205   C     0.61854   0.14987   0.20745   0.00000  Uiso   1.00
C206   C     0.88078   0.34945   0.12625   0.00000  Uiso   1.00
C207   C     0.90356   0.37109   0.20534   0.00000  Uiso   1.00
C208   C     0.59713   0.12960   0.12749   0.00000  Uiso   1.00
C209   C     0.62979   0.40167   0.12689   0.00000  Uiso   1.00
C210   C     0.87283   0.09538   0.20445   0.00000  Uiso   1.00
C211   C     0.84361   0.12401   0.13037   0.00000  Uiso   1.00
C212   C     0.65450   0.37795   0.20461   0.00000  Uiso   1.00
C213   C     0.86922   0.40055   0.20708   0.00000  Uiso   1.00
C214   C     0.63146   0.10013   0.12588   0.00000  Uiso   1.00
C215   C     0.65287   0.12040   0.20585   0.00000  Uiso   1.00
C216   C     0.84644   0.37891   0.12800   0.00000  Uiso   1.00
C217   C     0.59193   0.34393   0.16749   0.00000  Uiso   1.00
C218   C     0.90761   0.15653   0.16608   0.00000  Uiso   1.00
C219   C     0.90813   0.34402   0.16585   0.00000  Uiso   1.00
C220   C     0.59187   0.15598   0.16742   0.00000  Uiso   1.00
C221   C     0.84239   0.09346   0.16726   0.00000  Uiso   1.00
C222   C     0.65807   0.40607   0.16584   0.00000  Uiso   1.00
C223   C     0.65813   0.09402   0.16591   0.00000  Uiso   1.00
C224   C     0.84187   0.40598   0.16748   0.00000  Uiso   1.00
O225   O     0.87763   0.18569   0.09357   0.00000  Uiso   1.00
C226   C     0.89308   0.16643   0.05210   0.00000  Uiso   1.00
H227   H     0.92335   0.14735   0.05833   0.00000  Uiso   1.00
H228   H     0.90078   0.19275   0.02683   0.00000  Uiso   1.00
H229   H     0.86787   0.14548   0.03550   0.00000  Uiso   1.00
O230   O     0.61630   0.32164   0.24532   0.00000  Uiso   1.00
C231   C     0.59650   0.34580   0.28124   0.00000  Uiso   1.00
H232   H     0.59134   0.32402   0.31174   0.00000  Uiso   1.00
H233   H     0.56439   0.35876   0.26973   0.00000  Uiso   1.00
H234   H     0.61736   0.37327   0.29314   0.00000  Uiso   1.00
O235   O     0.56649   0.36981   0.09131   0.00000  Uiso   1.00
C236   C     0.53234   0.39926   0.09935   0.00000  Uiso   1.00
H237   H     0.51211   0.38804   0.12897   0.00000  Uiso   1.00
H238   H     0.51128   0.40039   0.06754   0.00000  Uiso   1.00
H239   H     0.54439   0.43301   0.10583   0.00000  Uiso   1.00
O240   O     0.93711   0.12673   0.23881   0.00000  Uiso   1.00
C241   C     0.97155   0.09889   0.22692   0.00000  Uiso   1.00
H242   H     0.99279   0.09464   0.25827   0.00000  Uiso   1.00
H243   H     0.99140   0.11374   0.19892   0.00000  Uiso   1.00
H244   H     0.96010   0.06584   0.21621   0.00000  Uiso   1.00
O245   O     0.61347   0.17516   0.24719   0.00000  Uiso   1.00
C246   C     0.59180   0.15010   0.28120   0.00000  Uiso   1.00
H247   H     0.55970   0.13864   0.26789   0.00000  Uiso   1.00
H248   H     0.58622   0.17083   0.31238   0.00000  Uiso   1.00
H249   H     0.61142   0.12166   0.29284   0.00000  Uiso   1.00
O250   O     0.88538   0.32368   0.08681   0.00000  Uiso   1.00
C251   C     0.90665   0.34840   0.05221   0.00000  Uiso   1.00
H252   H     0.91201   0.32734   0.02124   0.00000  Uiso   1.00
H253   H     0.93885   0.36017   0.06498   0.00000  Uiso   1.00
H254   H     0.88679   0.37666   0.04050   0.00000  Uiso   1.00
O255   O     0.93159   0.36792   0.24353   0.00000  Uiso   1.00
C256   C     0.96576   0.39795   0.23758   0.00000  Uiso   1.00
H257   H     0.98653   0.38827   0.20782   0.00000  Uiso   1.00
H258   H     0.98635   0.39783   0.26979   0.00000  Uiso   1.00
H259   H     0.95364   0.43186   0.23256   0.00000  Uiso   1.00
O260   O     0.57001   0.13366   0.08862   0.00000  Uiso   1.00
C261   C     0.53596   0.10316   0.09239   0.00000  Uiso   1.00
H262   H     0.51708   0.10310   0.05900   0.00000  Uiso   1.00
H263   H     0.51356   0.11263   0.12073   0.00000  Uiso   1.00
H264   H     0.54810   0.06936   0.09815   0.00000  Uiso   1.00
O265   O     0.63370   0.42837   0.08801   0.00000  Uiso   1.00
C266   C     0.65350   0.40420   0.05209   0.00000  Uiso   1.00
H267   H     0.68561   0.39126   0.06360   0.00000  Uiso   1.00
H268   H     0.65865   0.42599   0.02159   0.00000  Uiso   1.00
H269   H     0.63264   0.37673   0.04020   0.00000  Uiso   1.00
O270   O     0.87238   0.06431   0.23976   0.00000  Uiso   1.00
C271   C     0.85692   0.08356   0.28123   0.00000  Uiso   1.00
H272   H     0.84922   0.05723   0.30650   0.00000  Uiso   1.00
H273   H     0.82666   0.10264   0.27501   0.00000  Uiso   1.00
H274   H     0.88214   0.10450   0.29784   0.00000  Uiso   1.00
O275   O     0.81290   0.12326   0.09452   0.00000  Uiso   1.00
C276   C     0.77846   0.15113   0.10640   0.00000  Uiso   1.00
H277   H     0.75862   0.13631   0.13442   0.00000  Uiso   1.00
H278   H     0.75721   0.15535   0.07505   0.00000  Uiso   1.00
H279   H     0.78993   0.18418   0.11706   0.00000  Uiso   1.00
O280   O     0.68350   0.38019   0.24203   0.00000  Uiso   1.00
C281   C     0.71764   0.35073   0.23401   0.00000  Uiso   1.00
H282   H     0.73868   0.34959   0.26583   0.00000  Uiso   1.00
H283   H     0.73790   0.36194   0.20441   0.00000  Uiso   1.00
H284   H     0.70558   0.31699   0.22751   0.00000  Uiso   1.00
O285   O     0.86457   0.42628   0.24655   0.00000  Uiso   1.00
C286   C     0.84328   0.40151   0.28110   0.00000  Uiso   1.00
H287   H     0.81118   0.38956   0.26822   0.00000  Uiso   1.00
H288   H     0.83771   0.42260   0.31202   0.00000  Uiso   1.00
H289   H     0.86326   0.37338   0.29294   0.00000  Uiso   1.00
O290   O     0.63653   0.07485   0.08614   0.00000  Uiso   1.00
C291   C     0.65820   0.09991   0.05214   0.00000  Uiso   1.00
H292   H     0.66376   0.07920   0.02095   0.00000  Uiso   1.00
H293   H     0.69030   0.11135   0.06543   0.00000  Uiso   1.00
H294   H     0.63858   0.12836   0.04051   0.00000  Uiso   1.00
O295   O     0.67999   0.11634   0.24471   0.00000  Uiso   1.00
C296   C     0.71403   0.14684   0.24095   0.00000  Uiso   1.00
H297   H     0.73644   0.13737   0.21261   0.00000  Uiso   1.00
H298   H     0.73291   0.14690   0.27434   0.00000  Uiso   1.00
H299   H     0.70189   0.18063   0.23519   0.00000  Uiso   1.00
O300   O     0.81840   0.38206   0.08981   0.00000  Uiso   1.00
C301   C     0.78415   0.35213   0.09586   0.00000  Uiso   1.00
H302   H     0.76363   0.35212   0.06362   0.00000  Uiso   1.00
H303   H     0.76335   0.36203   0.12551   0.00000  Uiso   1.00
H304   H     0.79619   0.31823   0.10113   0.00000  Uiso   1.00
O305   O     0.04509   0.70491   0.20625   0.00000  Uiso   1.00
O306   O     0.45492   0.79509   0.12709   0.00000  Uiso   1.00
O307   O     0.45492   0.79509   0.20625   0.00000  Uiso   1.00
O308   O     0.04509   0.70491   0.12709   0.00000  Uiso   1.00
O309   O     0.45492   0.70491   0.12709   0.00000  Uiso   1.00
O310   O     0.04509   0.79509   0.20625   0.00000  Uiso   1.00
O311   O     0.04509   0.79509   0.12709   0.00000  Uiso   1.00
O312   O     0.45492   0.70491   0.20625   0.00000  Uiso   1.00
O313   O     0.29509   0.95491   0.20625   0.00000  Uiso   1.00
O314   O     0.20492   0.54509   0.12709   0.00000  Uiso   1.00
O315   O     0.20492   0.54509   0.20625   0.00000  Uiso   1.00
O316   O     0.29509   0.95491   0.12709   0.00000  Uiso   1.00
O317   O     0.20492   0.95491   0.12709   0.00000  Uiso   1.00
O318   O     0.29509   0.54509   0.20625   0.00000  Uiso   1.00
O319   O     0.29509   0.54509   0.12709   0.00000  Uiso   1.00
O320   O     0.20492   0.95491   0.20625   0.00000  Uiso   1.00
C321   C     0.05898   0.69005   0.16692   0.00000  Uiso   1.00
C322   C     0.44101   0.80995   0.16640   0.00000  Uiso   1.00
C323   C     0.44072   0.69036   0.16647   0.00000  Uiso   1.00
C324   C     0.05902   0.80989   0.16693   0.00000  Uiso   1.00
C325   C     0.30899   0.94005   0.16694   0.00000  Uiso   1.00
C326   C     0.19102   0.55995   0.16641   0.00000  Uiso   1.00
C327   C     0.19098   0.94011   0.16641   0.00000  Uiso   1.00
C328   C     0.30928   0.55964   0.16687   0.00000  Uiso   1.00
H329   H     0.49715   0.68117   0.04357   0.00000  Uiso   1.00
H330   H     0.00147   0.81882   0.28979   0.00000  Uiso   1.00
H331   H     0.00282   0.81883   0.04344   0.00000  Uiso   1.00
H332   H     0.49666   0.68115   0.28988   0.00000  Uiso   1.00
H333   H     0.24855   0.93117   0.04354   0.00000  Uiso   1.00
H334   H     0.25283   0.56883   0.28977   0.00000  Uiso   1.00
H335   H     0.25333   0.56885   0.04346   0.00000  Uiso   1.00
H336   H     0.24722   0.93117   0.28990   0.00000  Uiso   1.00
N337   N     0.00000   0.75000   0.28402   0.00000  Uiso   1.00
N338   N     0.00000   0.75000   0.04931   0.00000  Uiso   1.00
N339   N     0.25000   0.50000   0.28402   0.00000  Uiso   1.00
N340   N     0.25000   0.50000   0.04931   0.00000  Uiso   1.00
Cu341  Cu    0.00000   0.75000   0.21355   0.00000  Uiso   1.00
Cu342  Cu    0.00000   0.75000   0.11978   0.00000  Uiso   1.00
Cu343  Cu    0.25000   0.50000   0.21355   0.00000  Uiso   1.00
Cu344  Cu    0.25000   0.50000   0.11978   0.00000  Uiso   1.00
C345   C     0.49843   0.71175   0.02483   0.00000  Uiso   1.00
C346   C     0.00105   0.78824   0.30851   0.00000  Uiso   1.00
C347   C     0.00146   0.78823   0.02478   0.00000  Uiso   1.00
C348   C     0.49828   0.71176   0.30855   0.00000  Uiso   1.00
C349   C     0.24896   0.96176   0.02483   0.00000  Uiso   1.00
C350   C     0.25156   0.53825   0.30850   0.00000  Uiso   1.00
C351   C     0.25171   0.53824   0.02479   0.00000  Uiso   1.00
C352   C     0.24855   0.96176   0.30855   0.00000  Uiso   1.00
C353   C     0.37718   0.65462   0.12888   0.00000  Uiso   1.00
C354   C     0.12021   0.84833   0.20645   0.00000  Uiso   1.00
C355   C     0.09550   0.87205   0.12872   0.00000  Uiso   1.00
C356   C     0.40639   0.62599   0.20297   0.00000  Uiso   1.00
C357   C     0.11854   0.64987   0.20745   0.00000  Uiso   1.00
C358   C     0.38078   0.84945   0.12625   0.00000  Uiso   1.00
C359   C     0.40356   0.87109   0.20534   0.00000  Uiso   1.00
C360   C     0.09713   0.62960   0.12749   0.00000  Uiso   1.00
C361   C     0.12979   0.90167   0.12689   0.00000  Uiso   1.00
C362   C     0.37283   0.59538   0.20445   0.00000  Uiso   1.00
C363   C     0.34361   0.62401   0.13037   0.00000  Uiso   1.00
C364   C     0.15450   0.87795   0.20461   0.00000  Uiso   1.00
C365   C     0.36922   0.90055   0.20708   0.00000  Uiso   1.00
C366   C     0.13146   0.60013   0.12588   0.00000  Uiso   1.00
C367   C     0.15287   0.62040   0.20585   0.00000  Uiso   1.00
C368   C     0.34644   0.87891   0.12800   0.00000  Uiso   1.00
C369   C     0.09193   0.84393   0.16749   0.00000  Uiso   1.00
C370   C     0.40761   0.65653   0.16608   0.00000  Uiso   1.00
C371   C     0.40813   0.84402   0.16585   0.00000  Uiso   1.00
C372   C     0.09187   0.65598   0.16742   0.00000  Uiso   1.00
C373   C     0.34239   0.59346   0.16726   0.00000  Uiso   1.00
C374   C     0.15807   0.90607   0.16584   0.00000  Uiso   1.00
C375   C     0.15813   0.59402   0.16591   0.00000  Uiso   1.00
C376   C     0.34187   0.90598   0.16748   0.00000  Uiso   1.00
O377   O     0.37763   0.68569   0.09357   0.00000  Uiso   1.00
C378   C     0.39308   0.66643   0.05210   0.00000  Uiso   1.00
H379   H     0.42335   0.64735   0.05833   0.00000  Uiso   1.00
H380   H     0.40078   0.69275   0.02683   0.00000  Uiso   1.00
H381   H     0.36787   0.64548   0.03550   0.00000  Uiso   1.00
O382   O     0.11630   0.82164   0.24532   0.00000  Uiso   1.00
C383   C     0.09650   0.84580   0.28124   0.00000  Uiso   1.00
H384   H     0.09134   0.82402   0.31174   0.00000  Uiso   1.00
H385   H     0.06439   0.85876   0.26973   0.00000  Uiso   1.00
H386   H     0.11736   0.87327   0.29314   0.00000  Uiso   1.00
O387   O     0.06649   0.86981   0.09131   0.00000  Uiso   1.00
C388   C     0.03234   0.89926   0.09935   0.00000  Uiso   1.00
H389   H     0.01211   0.88804   0.12897   0.00000  Uiso   1.00
H390   H     0.01128   0.90039   0.06754   0.00000  Uiso   1.00
H391   H     0.04439   0.93301   0.10583   0.00000  Uiso   1.00
O392   O     0.43711   0.62673   0.23881   0.00000  Uiso   1.00
C393   C     0.47155   0.59889   0.22692   0.00000  Uiso   1.00
H394   H     0.49279   0.59464   0.25827   0.00000  Uiso   1.00
H395   H     0.49140   0.61374   0.19892   0.00000  Uiso   1.00
H396   H     0.46010   0.56584   0.21621   0.00000  Uiso   1.00
O397   O     0.11347   0.67516   0.24719   0.00000  Uiso   1.00
C398   C     0.09180   0.65010   0.28120   0.00000  Uiso   1.00
H399   H     0.05970   0.63864   0.26789   0.00000  Uiso   1.00
H400   H     0.08622   0.67083   0.31238   0.00000  Uiso   1.00
H401   H     0.11142   0.62166   0.29284   0.00000  Uiso   1.00
O402   O     0.38538   0.82368   0.08681   0.00000  Uiso   1.00
C403   C     0.40665   0.84840   0.05221   0.00000  Uiso   1.00
H404   H     0.41201   0.82734   0.02124   0.00000  Uiso   1.00
H405   H     0.43885   0.86017   0.06498   0.00000  Uiso   1.00
H406   H     0.38679   0.87666   0.04050   0.00000  Uiso   1.00
O407   O     0.43159   0.86792   0.24353   0.00000  Uiso   1.00
C408   C     0.46576   0.89795   0.23758   0.00000  Uiso   1.00
H409   H     0.48653   0.88827   0.20782   0.00000  Uiso   1.00
H410   H     0.48635   0.89783   0.26979   0.00000  Uiso   1.00
H411   H     0.45364   0.93186   0.23256   0.00000  Uiso   1.00
O412   O     0.07001   0.63366   0.08862   0.00000  Uiso   1.00
C413   C     0.03596   0.60316   0.09239   0.00000  Uiso   1.00
H414   H     0.01708   0.60310   0.05900   0.00000  Uiso   1.00
H415   H     0.01356   0.61263   0.12073   0.00000  Uiso   1.00
H416   H     0.04810   0.56936   0.09815   0.00000  Uiso   1.00
O417   O     0.13370   0.92837   0.08801   0.00000  Uiso   1.00
C418   C     0.15350   0.90420   0.05209   0.00000  Uiso   1.00
H419   H     0.18561   0.89126   0.06360   0.00000  Uiso   1.00
H420   H     0.15865   0.92599   0.02159   0.00000  Uiso   1.00
H421   H     0.13264   0.87673   0.04020   0.00000  Uiso   1.00
O422   O     0.37238   0.56431   0.23976   0.00000  Uiso   1.00
C423   C     0.35692   0.58356   0.28123   0.00000  Uiso   1.00
H424   H     0.34922   0.55723   0.30650   0.00000  Uiso   1.00
H425   H     0.32666   0.60264   0.27501   0.00000  Uiso   1.00
H426   H     0.38214   0.60450   0.29784   0.00000  Uiso   1.00
O427   O     0.31290   0.62326   0.09452   0.00000  Uiso   1.00
C428   C     0.27846   0.65113   0.10640   0.00000  Uiso   1.00
H429   H     0.25862   0.63631   0.13442   0.00000  Uiso   1.00
H430   H     0.25721   0.65535   0.07505   0.00000  Uiso   1.00
H431   H     0.28993   0.68418   0.11706   0.00000  Uiso   1.00
O432   O     0.18350   0.88019   0.24203   0.00000  Uiso   1.00
C433   C     0.21764   0.85073   0.23401   0.00000  Uiso   1.00
H434   H     0.23868   0.84959   0.26583   0.00000  Uiso   1.00
H435   H     0.23790   0.86194   0.20441   0.00000  Uiso   1.00
H436   H     0.20558   0.81699   0.22751   0.00000  Uiso   1.00
O437   O     0.36457   0.92628   0.24655   0.00000  Uiso   1.00
C438   C     0.34328   0.90151   0.28110   0.00000  Uiso   1.00
H439   H     0.31118   0.88956   0.26822   0.00000  Uiso   1.00
H440   H     0.33771   0.92260   0.31202   0.00000  Uiso   1.00
H441   H     0.36326   0.87338   0.29294   0.00000  Uiso   1.00
O442   O     0.13653   0.57485   0.08614   0.00000  Uiso   1.00
C443   C     0.15820   0.59991   0.05214   0.00000  Uiso   1.00
H444   H     0.16376   0.57920   0.02095   0.00000  Uiso   1.00
H445   H     0.19030   0.61135   0.06543   0.00000  Uiso   1.00
H446   H     0.13858   0.62836   0.04051   0.00000  Uiso   1.00
O447   O     0.17999   0.61634   0.24471   0.00000  Uiso   1.00
C448   C     0.21403   0.64684   0.24095   0.00000  Uiso   1.00
H449   H     0.23644   0.63737   0.21261   0.00000  Uiso   1.00
H450   H     0.23291   0.64690   0.27434   0.00000  Uiso   1.00
H451   H     0.20189   0.68063   0.23519   0.00000  Uiso   1.00
O452   O     0.31840   0.88206   0.08981   0.00000  Uiso   1.00
C453   C     0.28415   0.85213   0.09586   0.00000  Uiso   1.00
H454   H     0.26363   0.85212   0.06362   0.00000  Uiso   1.00
H455   H     0.26335   0.86203   0.12551   0.00000  Uiso   1.00
H456   H     0.29619   0.81823   0.10113   0.00000  Uiso   1.00
O457   O     0.54509   0.70491   0.20625   0.00000  Uiso   1.00
O458   O     0.95492   0.79509   0.12709   0.00000  Uiso   1.00
O459   O     0.95492   0.79509   0.20625   0.00000  Uiso   1.00
O460   O     0.54509   0.70491   0.12709   0.00000  Uiso   1.00
O461   O     0.95492   0.70491   0.12709   0.00000  Uiso   1.00
O462   O     0.54509   0.79509   0.20625   0.00000  Uiso   1.00
O463   O     0.54509   0.79509   0.12709   0.00000  Uiso   1.00
O464   O     0.95492   0.70491   0.20625   0.00000  Uiso   1.00
O465   O     0.79509   0.95491   0.20625   0.00000  Uiso   1.00
O466   O     0.70492   0.54509   0.12709   0.00000  Uiso   1.00
O467   O     0.70492   0.54509   0.20625   0.00000  Uiso   1.00
O468   O     0.79509   0.95491   0.12709   0.00000  Uiso   1.00
O469   O     0.70492   0.95491   0.12709   0.00000  Uiso   1.00
O470   O     0.79509   0.54509   0.20625   0.00000  Uiso   1.00
O471   O     0.79509   0.54509   0.12709   0.00000  Uiso   1.00
O472   O     0.70492   0.95491   0.20625   0.00000  Uiso   1.00
C473   C     0.55898   0.69005   0.16692   0.00000  Uiso   1.00
C474   C     0.94101   0.80995   0.16640   0.00000  Uiso   1.00
C475   C     0.94072   0.69036   0.16647   0.00000  Uiso   1.00
C476   C     0.55902   0.80989   0.16693   0.00000  Uiso   1.00
C477   C     0.80899   0.94005   0.16694   0.00000  Uiso   1.00
C478   C     0.69102   0.55995   0.16641   0.00000  Uiso   1.00
C479   C     0.69098   0.94011   0.16641   0.00000  Uiso   1.00
C480   C     0.80928   0.55964   0.16687   0.00000  Uiso   1.00
H481   H     0.99715   0.68117   0.04357   0.00000  Uiso   1.00
H482   H     0.50147   0.81882   0.28979   0.00000  Uiso   1.00
H483   H     0.50282   0.81883   0.04344   0.00000  Uiso   1.00
H484   H     0.99666   0.68115   0.28988   0.00000  Uiso   1.00
H485   H     0.74855   0.93117   0.04354   0.00000  Uiso   1.00
H486   H     0.75283   0.56883   0.28977   0.00000  Uiso   1.00
H487   H     0.75333   0.56885   0.04346   0.00000  Uiso   1.00
H488   H     0.74722   0.93117   0.28990   0.00000  Uiso   1.00
N489   N     0.50000   0.75000   0.28402   0.00000  Uiso   1.00
N490   N     0.50000   0.75000   0.04931   0.00000  Uiso   1.00
N491   N     0.75000   0.50000   0.28402   0.00000  Uiso   1.00
N492   N     0.75000   0.50000   0.04931   0.00000  Uiso   1.00
Cu493  Cu    0.50000   0.75000   0.21355   0.00000  Uiso   1.00
Cu494  Cu    0.50000   0.75000   0.11978   0.00000  Uiso   1.00
Cu495  Cu    0.75000   0.50000   0.21355   0.00000  Uiso   1.00
Cu496  Cu    0.75000   0.50000   0.11978   0.00000  Uiso   1.00
C497   C     0.99843   0.71175   0.02483   0.00000  Uiso   1.00
C498   C     0.50105   0.78824   0.30851   0.00000  Uiso   1.00
C499   C     0.50146   0.78823   0.02478   0.00000  Uiso   1.00
C500   C     0.99828   0.71176   0.30855   0.00000  Uiso   1.00
C501   C     0.74896   0.96176   0.02483   0.00000  Uiso   1.00
C502   C     0.75156   0.53825   0.30850   0.00000  Uiso   1.00
C503   C     0.75171   0.53824   0.02479   0.00000  Uiso   1.00
C504   C     0.74855   0.96176   0.30855   0.00000  Uiso   1.00
C505   C     0.87718   0.65462   0.12888   0.00000  Uiso   1.00
C506   C     0.62021   0.84833   0.20645   0.00000  Uiso   1.00
C507   C     0.59550   0.87205   0.12872   0.00000  Uiso   1.00
C508   C     0.90639   0.62599   0.20297   0.00000  Uiso   1.00
C509   C     0.61854   0.64987   0.20745   0.00000  Uiso   1.00
C510   C     0.88078   0.84945   0.12625   0.00000  Uiso   1.00
C511   C     0.90356   0.87109   0.20534   0.00000  Uiso   1.00
C512   C     0.59713   0.62960   0.12749   0.00000  Uiso   1.00
C513   C     0.62979   0.90167   0.12689   0.00000  Uiso   1.00
C514   C     0.87283   0.59538   0.20445   0.00000  Uiso   1.00
C515   C     0.84361   0.62401   0.13037   0.00000  Uiso   1.00
C516   C     0.65450   0.87795   0.20461   0.00000  Uiso   1.00
C517   C     0.86922   0.90055   0.20708   0.00000  Uiso   1.00
C518   C     0.63146   0.60013   0.12588   0.00000  Uiso   1.00
C519   C     0.65287   0.62040   0.20585   0.00000  Uiso   1.00
C520   C     0.84644   0.87891   0.12800   0.00000  Uiso   1.00
C521   C     0.59193   0.84393   0.16749   0.00000  Uiso   1.00
C522   C     0.90761   0.65653   0.16608   0.00000  Uiso   1.00
C523   C     0.90813   0.84402   0.16585   0.00000  Uiso   1.00
C524   C     0.59187   0.65598   0.16742   0.00000  Uiso   1.00
C525   C     0.84239   0.59346   0.16726   0.00000  Uiso   1.00
C526   C     0.65807   0.90607   0.16584   0.00000  Uiso   1.00
C527   C     0.65813   0.59402   0.16591   0.00000  Uiso   1.00
C528   C     0.84187   0.90598   0.16748   0.00000  Uiso   1.00
O529   O     0.87763   0.68569   0.09357   0.00000  Uiso   1.00
C530   C     0.89308   0.66643   0.05210   0.00000  Uiso   1.00
H531   H     0.92335   0.64735   0.05833   0.00000  Uiso   1.00
H532   H     0.90078   0.69275   0.02683   0.00000  Uiso   1.00
H533   H     0.86787   0.64548   0.03550   0.00000  Uiso   1.00
O534   O     0.61630   0.82164   0.24532   0.00000  Uiso   1.00
C535   C     0.59650   0.84580   0.28124   0.00000  Uiso   1.00
H536   H     0.59134   0.82402   0.31174   0.00000  Uiso   1.00
H537   H     0.56439   0.85876   0.26973   0.00000  Uiso   1.00
H538   H     0.61736   0.87327   0.29314   0.00000  Uiso   1.00
O539   O     0.56649   0.86981   0.09131   0.00000  Uiso   1.00
C540   C     0.53234   0.89926   0.09935   0.00000  Uiso   1.00
H541   H     0.51211   0.88804   0.12897   0.00000  Uiso   1.00
H542   H     0.51128   0.90039   0.06754   0.00000  Uiso   1.00
H543   H     0.54439   0.93301   0.10583   0.00000  Uiso   1.00
O544   O     0.93711   0.62673   0.23881   0.00000  Uiso   1.00
C545   C     0.97155   0.59889   0.22692   0.00000  Uiso   1.00
H546   H     0.99279   0.59464   0.25827   0.00000  Uiso   1.00
H547   H     0.99140   0.61374   0.19892   0.00000  Uiso   1.00
H548   H     0.96010   0.56584   0.21621   0.00000  Uiso   1.00
O549   O     0.61347   0.67516   0.24719   0.00000  Uiso   1.00
C550   C     0.59180   0.65010   0.28120   0.00000  Uiso   1.00
H551   H     0.55970   0.63864   0.26789   0.00000  Uiso   1.00
H552   H     0.58622   0.67083   0.31238   0.00000  Uiso   1.00
H553   H     0.61142   0.62166   0.29284   0.00000  Uiso   1.00
O554   O     0.88538   0.82368   0.08681   0.00000  Uiso   1.00
C555   C     0.90665   0.84840   0.05221   0.00000  Uiso   1.00
H556   H     0.91201   0.82734   0.02124   0.00000  Uiso   1.00
H557   H     0.93885   0.86017   0.06498   0.00000  Uiso   1.00
H558   H     0.88679   0.87666   0.04050   0.00000  Uiso   1.00
O559   O     0.93159   0.86792   0.24353   0.00000  Uiso   1.00
C560   C     0.96576   0.89795   0.23758   0.00000  Uiso   1.00
H561   H     0.98653   0.88827   0.20782   0.00000  Uiso   1.00
H562   H     0.98635   0.89783   0.26979   0.00000  Uiso   1.00
H563   H     0.95364   0.93186   0.23256   0.00000  Uiso   1.00
O564   O     0.57001   0.63366   0.08862   0.00000  Uiso   1.00
C565   C     0.53596   0.60316   0.09239   0.00000  Uiso   1.00
H566   H     0.51708   0.60310   0.05900   0.00000  Uiso   1.00
H567   H     0.51356   0.61263   0.12073   0.00000  Uiso   1.00
H568   H     0.54810   0.56936   0.09815   0.00000  Uiso   1.00
O569   O     0.63370   0.92837   0.08801   0.00000  Uiso   1.00
C570   C     0.65350   0.90420   0.05209   0.00000  Uiso   1.00
H571   H     0.68561   0.89126   0.06360   0.00000  Uiso   1.00
H572   H     0.65865   0.92599   0.02159   0.00000  Uiso   1.00
H573   H     0.63264   0.87673   0.04020   0.00000  Uiso   1.00
O574   O     0.87238   0.56431   0.23976   0.00000  Uiso   1.00
C575   C     0.85692   0.58356   0.28123   0.00000  Uiso   1.00
H576   H     0.84922   0.55723   0.30650   0.00000  Uiso   1.00
H577   H     0.82666   0.60264   0.27501   0.00000  Uiso   1.00
H578   H     0.88214   0.60450   0.29784   0.00000  Uiso   1.00
O579   O     0.81290   0.62326   0.09452   0.00000  Uiso   1.00
C580   C     0.77846   0.65113   0.10640   0.00000  Uiso   1.00
H581   H     0.75862   0.63631   0.13442   0.00000  Uiso   1.00
H582   H     0.75721   0.65535   0.07505   0.00000  Uiso   1.00
H583   H     0.78993   0.68418   0.11706   0.00000  Uiso   1.00
O584   O     0.68350   0.88019   0.24203   0.00000  Uiso   1.00
C585   C     0.71764   0.85073   0.23401   0.00000  Uiso   1.00
H586   H     0.73868   0.84959   0.26583   0.00000  Uiso   1.00
H587   H     0.73790   0.86194   0.20441   0.00000  Uiso   1.00
H588   H     0.70558   0.81699   0.22751   0.00000  Uiso   1.00
O589   O     0.86457   0.92628   0.24655   0.00000  Uiso   1.00
C590   C     0.84328   0.90151   0.28110   0.00000  Uiso   1.00
H591   H     0.81118   0.88956   0.26822   0.00000  Uiso   1.00
H592   H     0.83771   0.92260   0.31202   0.00000  Uiso   1.00
H593   H     0.86326   0.87338   0.29294   0.00000  Uiso   1.00
O594   O     0.63653   0.57485   0.08614   0.00000  Uiso   1.00
C595   C     0.65820   0.59991   0.05214   0.00000  Uiso   1.00
H596   H     0.66376   0.57920   0.02095   0.00000  Uiso   1.00
H597   H     0.69030   0.61135   0.06543   0.00000  Uiso   1.00
H598   H     0.63858   0.62836   0.04051   0.00000  Uiso   1.00
O599   O     0.67999   0.61634   0.24471   0.00000  Uiso   1.00
C600   C     0.71403   0.64684   0.24095   0.00000  Uiso   1.00
H601   H     0.73644   0.63737   0.21261   0.00000  Uiso   1.00
H602   H     0.73291   0.64690   0.27434   0.00000  Uiso   1.00
H603   H     0.70189   0.68063   0.23519   0.00000  Uiso   1.00
O604   O     0.81840   0.88206   0.08981   0.00000  Uiso   1.00
C605   C     0.78415   0.85213   0.09586   0.00000  Uiso   1.00
H606   H     0.76363   0.85212   0.06362   0.00000  Uiso   1.00
H607   H     0.76335   0.86203   0.12551   0.00000  Uiso   1.00
H608   H     0.79619   0.81823   0.10113   0.00000  Uiso   1.00
O609   O     0.04509   0.20491   0.53958   0.00000  Uiso   1.00
O610   O     0.45492   0.29509   0.46042   0.00000  Uiso   1.00
O611   O     0.45492   0.29509   0.53958   0.00000  Uiso   1.00
O612   O     0.04509   0.20491   0.46042   0.00000  Uiso   1.00
O613   O     0.45492   0.20491   0.46042   0.00000  Uiso   1.00
O614   O     0.04509   0.29509   0.53958   0.00000  Uiso   1.00
O615   O     0.04509   0.29509   0.46042   0.00000  Uiso   1.00
O616   O     0.45492   0.20491   0.53958   0.00000  Uiso   1.00
O617   O     0.29509   0.45491   0.53958   0.00000  Uiso   1.00
O618   O     0.20492   0.04509   0.46042   0.00000  Uiso   1.00
O619   O     0.20492   0.04509   0.53958   0.00000  Uiso   1.00
O620   O     0.29509   0.45491   0.46042   0.00000  Uiso   1.00
O621   O     0.20492   0.45491   0.46042   0.00000  Uiso   1.00
O622   O     0.29509   0.04509   0.53958   0.00000  Uiso   1.00
O623   O     0.29509   0.04509   0.46042   0.00000  Uiso   1.00
O624   O     0.20492   0.45491   0.53958   0.00000  Uiso   1.00
C625   C     0.05898   0.19005   0.50026   0.00000  Uiso   1.00
C626   C     0.44101   0.30995   0.49973   0.00000  Uiso   1.00
C627   C     0.44072   0.19036   0.49980   0.00000  Uiso   1.00
C628   C     0.05902   0.30989   0.50026   0.00000  Uiso   1.00
C629   C     0.30899   0.44005   0.50027   0.00000  Uiso   1.00
C630   C     0.19102   0.05995   0.49974   0.00000  Uiso   1.00
C631   C     0.19098   0.44011   0.49974   0.00000  Uiso   1.00
C632   C     0.30928   0.05964   0.50020   0.00000  Uiso   1.00
H633   H     0.49715   0.18117   0.37690   0.00000  Uiso   1.00
H634   H     0.00147   0.31882   0.62312   0.00000  Uiso   1.00
H635   H     0.00282   0.31883   0.37677   0.00000  Uiso   1.00
H636   H     0.49666   0.18115   0.62321   0.00000  Uiso   1.00
H637   H     0.24855   0.43117   0.37688   0.00000  Uiso   1.00
H638   H     0.25283   0.06883   0.62310   0.00000  Uiso   1.00
H639   H     0.25333   0.06885   0.37679   0.00000  Uiso   1.00
H640   H     0.24722   0.43117   0.62323   0.00000  Uiso   1.00
N641   N     0.00000   0.25000   0.61736   0.00000  Uiso   1.00
N642   N     0.00000   0.25000   0.38264   0.00000  Uiso   1.00
N643   N     0.25000  -0.00000   0.61736   0.00000  Uiso   1.00
N644   N     0.25000  -0.00000   0.38264   0.00000  Uiso   1.00
Cu645  Cu    0.00000   0.25000   0.54689   0.00000  Uiso   1.00
Cu646  Cu    0.00000   0.25000   0.45311   0.00000  Uiso   1.00
Cu647  Cu    0.25000  -0.00000   0.54689   0.00000  Uiso   1.00
Cu648  Cu    0.25000  -0.00000   0.45311   0.00000  Uiso   1.00
C649   C     0.49843   0.21175   0.35817   0.00000  Uiso   1.00
C650   C     0.00105   0.28824   0.64184   0.00000  Uiso   1.00
C651   C     0.00146   0.28823   0.35811   0.00000  Uiso   1.00
C652   C     0.49828   0.21176   0.64188   0.00000  Uiso   1.00
C653   C     0.24896   0.46176   0.35816   0.00000  Uiso   1.00
C654   C     0.25156   0.03825   0.64183   0.00000  Uiso   1.00
C655   C     0.25171   0.03824   0.35812   0.00000  Uiso   1.00
C656   C     0.24855   0.46176   0.64189   0.00000  Uiso   1.00
C657   C     0.37718   0.15462   0.46221   0.00000  Uiso   1.00
C658   C     0.12021   0.34833   0.53978   0.00000  Uiso   1.00
C659   C     0.09550   0.37205   0.46205   0.00000  Uiso   1.00
C660   C     0.40639   0.12599   0.53630   0.00000  Uiso   1.00
C661   C     0.11854   0.14987   0.54079   0.00000  Uiso   1.00
C662   C     0.38078   0.34945   0.45959   0.00000  Uiso   1.00
C663   C     0.40356   0.37109   0.53867   0.00000  Uiso   1.00
C664   C     0.09713   0.12960   0.46082   0.00000  Uiso   1.00
C665   C     0.12979   0.40167   0.46022   0.00000  Uiso   1.00
C666   C     0.37283   0.09538   0.53779   0.00000  Uiso   1.00
C667   C     0.34361   0.12401   0.46370   0.00000  Uiso   1.00
C668   C     0.15450   0.37795   0.53795   0.00000  Uiso   1.00
C669   C     0.36922   0.40055   0.54042   0.00000  Uiso   1.00
C670   C     0.13146   0.10013   0.45921   0.00000  Uiso   1.00
C671   C     0.15287   0.12040   0.53918   0.00000  Uiso   1.00
C672   C     0.34644   0.37891   0.46133   0.00000  Uiso   1.00
C673   C     0.09193   0.34393   0.50083   0.00000  Uiso   1.00
C674   C     0.40761   0.15653   0.49941   0.00000  Uiso   1.00
C675   C     0.40813   0.34402   0.49918   0.00000  Uiso   1.00
C676   C     0.09187   0.15598   0.50076   0.00000  Uiso   1.00
C677   C     0.34239   0.09346   0.50059   0.00000  Uiso   1.00
C678   C     0.15807   0.40607   0.49917   0.00000  Uiso   1.00
C679   C     0.15813   0.09402   0.49924   0.00000  Uiso   1.00
C680   C     0.34187   0.40598   0.50082   0.00000  Uiso   1.00
O681   O     0.37763   0.18569   0.42690   0.00000  Uiso   1.00
C682   C     0.39308   0.16643   0.38544   0.00000  Uiso   1.00
H683   H     0.42335   0.14735   0.39166   0.00000  Uiso   1.00
H684   H     0.40078   0.19275   0.36016   0.00000  Uiso   1.00
H685   H     0.36787   0.14548   0.36883   0.00000  Uiso   1.00
O686   O     0.11630   0.32164   0.57865   0.00000  Uiso   1.00
C687   C     0.09650   0.34580   0.61458   0.00000  Uiso   1.00
H688   H     0.09134   0.32402   0.64507   0.00000  Uiso   1.00
H689   H     0.06439   0.35876   0.60307   0.00000  Uiso   1.00
H690   H     0.11736   0.37327   0.62647   0.00000  Uiso   1.00
O691   O     0.06649   0.36981   0.42464   0.00000  Uiso   1.00
C692   C     0.03234   0.39926   0.43269   0.00000  Uiso   1.00
H693   H     0.01211   0.38804   0.46230   0.00000  Uiso   1.00
H694   H     0.01128   0.40039   0.40088   0.00000  Uiso   1.00
H695   H     0.04439   0.43301   0.43916   0.00000  Uiso   1.00
O696   O     0.43711   0.12673   0.57214   0.00000  Uiso   1.00
C697   C     0.47155   0.09889   0.56025   0.00000  Uiso   1.00
H698   H     0.49279   0.09464   0.59161   0.00000  Uiso   1.00
H699   H     0.49140   0.11374   0.53226   0.00000  Uiso   1.00
H700   H     0.46010   0.06584   0.54954   0.00000  Uiso   1.00
O701   O     0.11347   0.17516   0.58052   0.00000  Uiso   1.00
C702   C     0.09180   0.15010   0.61453   0.00000  Uiso   1.00
H703   H     0.05970   0.13864   0.60122   0.00000  Uiso   1.00
H704   H     0.08622   0.17083   0.64571   0.00000  Uiso   1.00
H705   H     0.11142   0.12166   0.62618   0.00000  Uiso   1.00
O706   O     0.38538   0.32368   0.42014   0.00000  Uiso   1.00
C707   C     0.40665   0.34840   0.38555   0.00000  Uiso   1.00
H708   H     0.41201   0.32734   0.35457   0.00000  Uiso   1.00
H709   H     0.43885   0.36017   0.39831   0.00000  Uiso   1.00
H710   H     0.38679   0.37666   0.37384   0.00000  Uiso   1.00
O711   O     0.43159   0.36792   0.57686   0.00000  Uiso   1.00
C712   C     0.46576   0.39795   0.57092   0.00000  Uiso   1.00
H713   H     0.48653   0.38827   0.54116   0.00000  Uiso   1.00
H714   H     0.48635   0.39783   0.60312   0.00000  Uiso   1.00
H715   H     0.45364   0.43186   0.56589   0.00000  Uiso   1.00
O716   O     0.07001   0.13366   0.42196   0.00000  Uiso   1.00
C717   C     0.03596   0.10316   0.42572   0.00000  Uiso   1.00
H718   H     0.01708   0.10310   0.39233   0.00000  Uiso   1.00
H719   H     0.01356   0.11263   0.45407   0.00000  Uiso   1.00
H720   H     0.04810   0.06936   0.43148   0.00000  Uiso   1.00
O721   O     0.13370   0.42837   0.42135   0.00000  Uiso   1.00
C722   C     0.15350   0.40420   0.38542   0.00000  Uiso   1.00
H723   H     0.18561   0.39126   0.39693   0.00000  Uiso   1.00
H724   H     0.15865   0.42599   0.35492   0.00000  Uiso   1.00
H725   H     0.13264   0.37673   0.37353   0.00000  Uiso   1.00
O726   O     0.37238   0.06431   0.57309   0.00000  Uiso   1.00
C727   C     0.35692   0.08356   0.61456   0.00000  Uiso   1.00
H728   H     0.34922   0.05723   0.63983   0.00000  Uiso   1.00
H729   H     0.32666   0.10264   0.60834   0.00000  Uiso   1.00
H730   H     0.38214   0.10450   0.63117   0.00000  Uiso   1.00
O731   O     0.31290   0.12326   0.42785   0.00000  Uiso   1.00
C732   C     0.27846   0.15113   0.43973   0.00000  Uiso   1.00
H733   H     0.25862   0.13631   0.46776   0.00000  Uiso   1.00
H734   H     0.25721   0.15535   0.40838   0.00000  Uiso   1.00
H735   H     0.28993   0.18418   0.45040   0.00000  Uiso   1.00
O736   O     0.18350   0.38019   0.57536   0.00000  Uiso   1.00
C737   C     0.21764   0.35073   0.56734   0.00000  Uiso   1.00
H738   H     0.23868   0.34959   0.59917   0.00000  Uiso   1.00
H739   H     0.23790   0.36194   0.53774   0.00000  Uiso   1.00
H740   H     0.20558   0.31699   0.56085   0.00000  Uiso   1.00
O741   O     0.36457   0.42628   0.57988   0.00000  Uiso   1.00
C742   C     0.34328   0.40151   0.61443   0.00000  Uiso   1.00
H743   H     0.31118   0.38956   0.60156   0.00000  Uiso   1.00
H744   H     0.33771   0.42260   0.64535   0.00000  Uiso   1.00
H745   H     0.36326   0.37338   0.62627   0.00000  Uiso   1.00
O746   O     0.13653   0.07485   0.41948   0.00000  Uiso   1.00
C747   C     0.15820   0.09991   0.38547   0.00000  Uiso   1.00
H748   H     0.16376   0.07920   0.35428   0.00000  Uiso   1.00
H749   H     0.19030   0.11135   0.39877   0.00000  Uiso   1.00
H750   H     0.13858   0.12836   0.37384   0.00000  Uiso   1.00
O751   O     0.17999   0.11634   0.57804   0.00000  Uiso   1.00
C752   C     0.21403   0.14684   0.57428   0.00000  Uiso   1.00
H753   H     0.23644   0.13737   0.54594   0.00000  Uiso   1.00
H754   H     0.23291   0.14690   0.60767   0.00000  Uiso   1.00
H755   H     0.20189   0.18063   0.56852   0.00000  Uiso   1.00
O756   O     0.31840   0.38206   0.42314   0.00000  Uiso   1.00
C757   C     0.28415   0.35213   0.42920   0.00000  Uiso   1.00
H758   H     0.26363   0.35212   0.39695   0.00000  Uiso   1.00
H759   H     0.26335   0.36203   0.45885   0.00000  Uiso   1.00
H760   H     0.29619   0.31823   0.43447   0.00000  Uiso   1.00
O761   O     0.54509   0.20491   0.53958   0.00000  Uiso   1.00
O762   O     0.95492   0.29509   0.46042   0.00000  Uiso   1.00
O763   O     0.95492   0.29509   0.53958   0.00000  Uiso   1.00
O764   O     0.54509   0.20491   0.46042   0.00000  Uiso   1.00
O765   O     0.95492   0.20491   0.46042   0.00000  Uiso   1.00
O766   O     0.54509   0.29509   0.53958   0.00000  Uiso   1.00
O767   O     0.54509   0.29509   0.46042   0.00000  Uiso   1.00
O768   O     0.95492   0.20491   0.53958   0.00000  Uiso   1.00
O769   O     0.79509   0.45491   0.53958   0.00000  Uiso   1.00
O770   O     0.70492   0.04509   0.46042   0.00000  Uiso   1.00
O771   O     0.70492   0.04509   0.53958   0.00000  Uiso   1.00
O772   O     0.79509   0.45491   0.46042   0.00000  Uiso   1.00
O773   O     0.70492   0.45491   0.46042   0.00000  Uiso   1.00
O774   O     0.79509   0.04509   0.53958   0.00000  Uiso   1.00
O775   O     0.79509   0.04509   0.46042   0.00000  Uiso   1.00
O776   O     0.70492   0.45491   0.53958   0.00000  Uiso   1.00
C777   C     0.55898   0.19005   0.50026   0.00000  Uiso   1.00
C778   C     0.94101   0.30995   0.49973   0.00000  Uiso   1.00
C779   C     0.94072   0.19036   0.49980   0.00000  Uiso   1.00
C780   C     0.55902   0.30989   0.50026   0.00000  Uiso   1.00
C781   C     0.80899   0.44005   0.50027   0.00000  Uiso   1.00
C782   C     0.69102   0.05995   0.49974   0.00000  Uiso   1.00
C783   C     0.69098   0.44011   0.49974   0.00000  Uiso   1.00
C784   C     0.80928   0.05964   0.50020   0.00000  Uiso   1.00
H785   H     0.99715   0.18117   0.37690   0.00000  Uiso   1.00
H786   H     0.50147   0.31882   0.62312   0.00000  Uiso   1.00
H787   H     0.50282   0.31883   0.37677   0.00000  Uiso   1.00
H788   H     0.99666   0.18115   0.62321   0.00000  Uiso   1.00
H789   H     0.74855   0.43117   0.37688   0.00000  Uiso   1.00
H790   H     0.75283   0.06883   0.62310   0.00000  Uiso   1.00
H791   H     0.75333   0.06885   0.37679   0.00000  Uiso   1.00
H792   H     0.74722   0.43117   0.62323   0.00000  Uiso   1.00
N793   N     0.50000   0.25000   0.61736   0.00000  Uiso   1.00
N794   N     0.50000   0.25000   0.38264   0.00000  Uiso   1.00
N795   N     0.75000  -0.00000   0.61736   0.00000  Uiso   1.00
N796   N     0.75000  -0.00000   0.38264   0.00000  Uiso   1.00
Cu797  Cu    0.50000   0.25000   0.54689   0.00000  Uiso   1.00
Cu798  Cu    0.50000   0.25000   0.45311   0.00000  Uiso   1.00
Cu799  Cu    0.75000  -0.00000   0.54689   0.00000  Uiso   1.00
Cu800  Cu    0.75000  -0.00000   0.45311   0.00000  Uiso   1.00
C801   C     0.99843   0.21175   0.35817   0.00000  Uiso   1.00
C802   C     0.50105   0.28824   0.64184   0.00000  Uiso   1.00
C803   C     0.50146   0.28823   0.35811   0.00000  Uiso   1.00
C804   C     0.99828   0.21176   0.64188   0.00000  Uiso   1.00
C805   C     0.74896   0.46176   0.35816   0.00000  Uiso   1.00
C806   C     0.75156   0.03825   0.64183   0.00000  Uiso   1.00
C807   C     0.75171   0.03824   0.35812   0.00000  Uiso   1.00
C808   C     0.74855   0.46176   0.64189   0.00000  Uiso   1.00
C809   C     0.87718   0.15462   0.46221   0.00000  Uiso   1.00
C810   C     0.62021   0.34833   0.53978   0.00000  Uiso   1.00
C811   C     0.59550   0.37205   0.46205   0.00000  Uiso   1.00
C812   C     0.90639   0.12599   0.53630   0.00000  Uiso   1.00
C813   C     0.61854   0.14987   0.54079   0.00000  Uiso   1.00
C814   C     0.88078   0.34945   0.45959   0.00000  Uiso   1.00
C815   C     0.90356   0.37109   0.53867   0.00000  Uiso   1.00
C816   C     0.59713   0.12960   0.46082   0.00000  Uiso   1.00
C817   C     0.62979   0.40167   0.46022   0.00000  Uiso   1.00
C818   C     0.87283   0.09538   0.53779   0.00000  Uiso   1.00
C819   C     0.84361   0.12401   0.46370   0.00000  Uiso   1.00
C820   C     0.65450   0.37795   0.53795   0.00000  Uiso   1.00
C821   C     0.86922   0.40055   0.54042   0.00000  Uiso   1.00
C822   C     0.63146   0.10013   0.45921   0.00000  Uiso   1.00
C823   C     0.65287   0.12040   0.53918   0.00000  Uiso   1.00
C824   C     0.84644   0.37891   0.46133   0.00000  Uiso   1.00
C825   C     0.59193   0.34393   0.50083   0.00000  Uiso   1.00
C826   C     0.90761   0.15653   0.49941   0.00000  Uiso   1.00
C827   C     0.90813   0.34402   0.49918   0.00000  Uiso   1.00
C828   C     0.59187   0.15598   0.50076   0.00000  Uiso   1.00
C829   C     0.84239   0.09346   0.50059   0.00000  Uiso   1.00
C830   C     0.65807   0.40607   0.49917   0.00000  Uiso   1.00
C831   C     0.65813   0.09402   0.49924   0.00000  Uiso   1.00
C832   C     0.84187   0.40598   0.50082   0.00000  Uiso   1.00
O833   O     0.87763   0.18569   0.42690   0.00000  Uiso   1.00
C834   C     0.89308   0.16643   0.38544   0.00000  Uiso   1.00
H835   H     0.92335   0.14735   0.39166   0.00000  Uiso   1.00
H836   H     0.90078   0.19275   0.36016   0.00000  Uiso   1.00
H837   H     0.86787   0.14548   0.36883   0.00000  Uiso   1.00
O838   O     0.61630   0.32164   0.57865   0.00000  Uiso   1.00
C839   C     0.59650   0.34580   0.61458   0.00000  Uiso   1.00
H840   H     0.59134   0.32402   0.64507   0.00000  Uiso   1.00
H841   H     0.56439   0.35876   0.60307   0.00000  Uiso   1.00
H842   H     0.61736   0.37327   0.62647   0.00000  Uiso   1.00
O843   O     0.56649   0.36981   0.42464   0.00000  Uiso   1.00
C844   C     0.53234   0.39926   0.43269   0.00000  Uiso   1.00
H845   H     0.51211   0.38804   0.46230   0.00000  Uiso   1.00
H846   H     0.51128   0.40039   0.40088   0.00000  Uiso   1.00
H847   H     0.54439   0.43301   0.43916   0.00000  Uiso   1.00
O848   O     0.93711   0.12673   0.57214   0.00000  Uiso   1.00
C849   C     0.97155   0.09889   0.56025   0.00000  Uiso   1.00
H850   H     0.99279   0.09464   0.59161   0.00000  Uiso   1.00
H851   H     0.99140   0.11374   0.53226   0.00000  Uiso   1.00
H852   H     0.96010   0.06584   0.54954   0.00000  Uiso   1.00
O853   O     0.61347   0.17516   0.58052   0.00000  Uiso   1.00
C854   C     0.59180   0.15010   0.61453   0.00000  Uiso   1.00
H855   H     0.55970   0.13864   0.60122   0.00000  Uiso   1.00
H856   H     0.58622   0.17083   0.64571   0.00000  Uiso   1.00
H857   H     0.61142   0.12166   0.62618   0.00000  Uiso   1.00
O858   O     0.88538   0.32368   0.42014   0.00000  Uiso   1.00
C859   C     0.90665   0.34840   0.38555   0.00000  Uiso   1.00
H860   H     0.91201   0.32734   0.35457   0.00000  Uiso   1.00
H861   H     0.93885   0.36017   0.39831   0.00000  Uiso   1.00
H862   H     0.88679   0.37666   0.37384   0.00000  Uiso   1.00
O863   O     0.93159   0.36792   0.57686   0.00000  Uiso   1.00
C864   C     0.96576   0.39795   0.57092   0.00000  Uiso   1.00
H865   H     0.98653   0.38827   0.54116   0.00000  Uiso   1.00
H866   H     0.98635   0.39783   0.60312   0.00000  Uiso   1.00
H867   H     0.95364   0.43186   0.56589   0.00000  Uiso   1.00
O868   O     0.57001   0.13366   0.42196   0.00000  Uiso   1.00
C869   C     0.53596   0.10316   0.42572   0.00000  Uiso   1.00
H870   H     0.51708   0.10310   0.39233   0.00000  Uiso   1.00
H871   H     0.51356   0.11263   0.45407   0.00000  Uiso   1.00
H872   H     0.54810   0.06936   0.43148   0.00000  Uiso   1.00
O873   O     0.63370   0.42837   0.42135   0.00000  Uiso   1.00
C874   C     0.65350   0.40420   0.38542   0.00000  Uiso   1.00
H875   H     0.68561   0.39126   0.39693   0.00000  Uiso   1.00
H876   H     0.65865   0.42599   0.35492   0.00000  Uiso   1.00
H877   H     0.63264   0.37673   0.37353   0.00000  Uiso   1.00
O878   O     0.87238   0.06431   0.57309   0.00000  Uiso   1.00
C879   C     0.85692   0.08356   0.61456   0.00000  Uiso   1.00
H880   H     0.84922   0.05723   0.63983   0.00000  Uiso   1.00
H881   H     0.82666   0.10264   0.60834   0.00000  Uiso   1.00
H882   H     0.88214   0.10450   0.63117   0.00000  Uiso   1.00
O883   O     0.81290   0.12326   0.42785   0.00000  Uiso   1.00
C884   C     0.77846   0.15113   0.43973   0.00000  Uiso   1.00
H885   H     0.75862   0.13631   0.46776   0.00000  Uiso   1.00
H886   H     0.75721   0.15535   0.40838   0.00000  Uiso   1.00
H887   H     0.78993   0.18418   0.45040   0.00000  Uiso   1.00
O888   O     0.68350   0.38019   0.57536   0.00000  Uiso   1.00
C889   C     0.71764   0.35073   0.56734   0.00000  Uiso   1.00
H890   H     0.73868   0.34959   0.59917   0.00000  Uiso   1.00
H891   H     0.73790   0.36194   0.53774   0.00000  Uiso   1.00
H892   H     0.70558   0.31699   0.56085   0.00000  Uiso   1.00
O893   O     0.86457   0.42628   0.57988   0.00000  Uiso   1.00
C894   C     0.84328   0.40151   0.61443   0.00000  Uiso   1.00
H895   H     0.81118   0.38956   0.60156   0.00000  Uiso   1.00
H896   H     0.83771   0.42260   0.64535   0.00000  Uiso   1.00
H897   H     0.86326   0.37338   0.62627   0.00000  Uiso   1.00
O898   O     0.63653   0.07485   0.41948   0.00000  Uiso   1.00
C899   C     0.65820   0.09991   0.38547   0.00000  Uiso   1.00
H900   H     0.66376   0.07920   0.35428   0.00000  Uiso   1.00
H901   H     0.69030   0.11135   0.39877   0.00000  Uiso   1.00
H902   H     0.63858   0.12836   0.37384   0.00000  Uiso   1.00
O903   O     0.67999   0.11634   0.57804   0.00000  Uiso   1.00
C904   C     0.71403   0.14684   0.57428   0.00000  Uiso   1.00
H905   H     0.73644   0.13737   0.54594   0.00000  Uiso   1.00
H906   H     0.73291   0.14690   0.60767   0.00000  Uiso   1.00
H907   H     0.70189   0.18063   0.56852   0.00000  Uiso   1.00
O908   O     0.81840   0.38206   0.42314   0.00000  Uiso   1.00
C909   C     0.78415   0.35213   0.42920   0.00000  Uiso   1.00
H910   H     0.76363   0.35212   0.39695   0.00000  Uiso   1.00
H911   H     0.76335   0.36203   0.45885   0.00000  Uiso   1.00
H912   H     0.79619   0.31823   0.43447   0.00000  Uiso   1.00
O913   O     0.04509   0.70491   0.53958   0.00000  Uiso   1.00
O914   O     0.45492   0.79509   0.46042   0.00000  Uiso   1.00
O915   O     0.45492   0.79509   0.53958   0.00000  Uiso   1.00
O916   O     0.04509   0.70491   0.46042   0.00000  Uiso   1.00
O917   O     0.45492   0.70491   0.46042   0.00000  Uiso   1.00
O918   O     0.04509   0.79509   0.53958   0.00000  Uiso   1.00
O919   O     0.04509   0.79509   0.46042   0.00000  Uiso   1.00
O920   O     0.45492   0.70491   0.53958   0.00000  Uiso   1.00
O921   O     0.29509   0.95491   0.53958   0.00000  Uiso   1.00
O922   O     0.20492   0.54509   0.46042   0.00000  Uiso   1.00
O923   O     0.20492   0.54509   0.53958   0.00000  Uiso   1.00
O924   O     0.29509   0.95491   0.46042   0.00000  Uiso   1.00
O925   O     0.20492   0.95491   0.46042   0.00000  Uiso   1.00
O926   O     0.29509   0.54509   0.53958   0.00000  Uiso   1.00
O927   O     0.29509   0.54509   0.46042   0.00000  Uiso   1.00
O928   O     0.20492   0.95491   0.53958   0.00000  Uiso   1.00
C929   C     0.05898   0.69005   0.50026   0.00000  Uiso   1.00
C930   C     0.44101   0.80995   0.49973   0.00000  Uiso   1.00
C931   C     0.44072   0.69036   0.49980   0.00000  Uiso   1.00
C932   C     0.05902   0.80989   0.50026   0.00000  Uiso   1.00
C933   C     0.30899   0.94005   0.50027   0.00000  Uiso   1.00
C934   C     0.19102   0.55995   0.49974   0.00000  Uiso   1.00
C935   C     0.19098   0.94011   0.49974   0.00000  Uiso   1.00
C936   C     0.30928   0.55964   0.50020   0.00000  Uiso   1.00
H937   H     0.49715   0.68117   0.37690   0.00000  Uiso   1.00
H938   H     0.00147   0.81882   0.62312   0.00000  Uiso   1.00
H939   H     0.00282   0.81883   0.37677   0.00000  Uiso   1.00
H940   H     0.49666   0.68115   0.62321   0.00000  Uiso   1.00
H941   H     0.24855   0.93117   0.37688   0.00000  Uiso   1.00
H942   H     0.25283   0.56883   0.62310   0.00000  Uiso   1.00
H943   H     0.25333   0.56885   0.37679   0.00000  Uiso   1.00
H944   H     0.24722   0.93117   0.62323   0.00000  Uiso   1.00
N945   N     0.00000   0.75000   0.61736   0.00000  Uiso   1.00
N946   N     0.00000   0.75000   0.38264   0.00000  Uiso   1.00
N947   N     0.25000   0.50000   0.61736   0.00000  Uiso   1.00
N948   N     0.25000   0.50000   0.38264   0.00000  Uiso   1.00
Cu949  Cu    0.00000   0.75000   0.54689   0.00000  Uiso   1.00
Cu950  Cu    0.00000   0.75000   0.45311   0.00000  Uiso   1.00
Cu951  Cu    0.25000   0.50000   0.54689   0.00000  Uiso   1.00
Cu952  Cu    0.25000   0.50000   0.45311   0.00000  Uiso   1.00
C953   C     0.49843   0.71175   0.35817   0.00000  Uiso   1.00
C954   C     0.00105   0.78824   0.64184   0.00000  Uiso   1.00
C955   C     0.00146   0.78823   0.35811   0.00000  Uiso   1.00
C956   C     0.49828   0.71176   0.64188   0.00000  Uiso   1.00
C957   C     0.24896   0.96176   0.35816   0.00000  Uiso   1.00
C958   C     0.25156   0.53825   0.64183   0.00000  Uiso   1.00
C959   C     0.25171   0.53824   0.35812   0.00000  Uiso   1.00
C960   C     0.24855   0.96176   0.64189   0.00000  Uiso   1.00
C961   C     0.37718   0.65462   0.46221   0.00000  Uiso   1.00
C962   C     0.12021   0.84833   0.53978   0.00000  Uiso   1.00
C963   C     0.09550   0.87205   0.46205   0.00000  Uiso   1.00
C964   C     0.40639   0.62599   0.53630   0.00000  Uiso   1.00
C965   C     0.11854   0.64987   0.54079   0.00000  Uiso   1.00
C966   C     0.38078   0.84945   0.45959   0.00000  Uiso   1.00
C967   C     0.40356   0.87109   0.53867   0.00000  Uiso   1.00
C968   C     0.09713   0.62960   0.46082   0.00000  Uiso   1.00
C969   C     0.12979   0.90167   0.46022   0.00000  Uiso   1.00
C970   C     0.37283   0.59538   0.53779   0.00000  Uiso   1.00
C971   C     0.34361   0.62401   0.46370   0.00000  Uiso   1.00
C972   C     0.15450   0.87795   0.53795   0.00000  Uiso   1.00
C973   C     0.36922   0.90055   0.54042   0.00000  Uiso   1.00
C974   C     0.13146   0.60013   0.45921   0.00000  Uiso   1.00
C975   C     0.15287   0.62040   0.53918   0.00000  Uiso   1.00
C976   C     0.34644   0.87891   0.46133   0.00000  Uiso   1.00
C977   C     0.09193   0.84393   0.50083   0.00000  Uiso   1.00
C978   C     0.40761   0.65653   0.49941   0.00000  Uiso   1.00
C979   C     0.40813   0.84402   0.49918   0.00000  Uiso   1.00
C980   C     0.09187   0.65598   0.50076   0.00000  Uiso   1.00
C981   C     0.34239   0.59346   0.50059   0.00000  Uiso   1.00
C982   C     0.15807   0.90607   0.49917   0.00000  Uiso   1.00
C983   C     0.15813   0.59402   0.49924   0.00000  Uiso   1.00
C984   C     0.34187   0.90598   0.50082   0.00000  Uiso   1.00
O985   O     0.37763   0.68569   0.42690   0.00000  Uiso   1.00
C986   C     0.39308   0.66643   0.38544   0.00000  Uiso   1.00
H987   H     0.42335   0.64735   0.39166   0.00000  Uiso   1.00
H988   H     0.40078   0.69275   0.36016   0.00000  Uiso   1.00
H989   H     0.36787   0.64548   0.36883   0.00000  Uiso   1.00
O990   O     0.11630   0.82164   0.57865   0.00000  Uiso   1.00
C991   C     0.09650   0.84580   0.61458   0.00000  Uiso   1.00
H992   H     0.09134   0.82402   0.64507   0.00000  Uiso   1.00
H993   H     0.06439   0.85876   0.60307   0.00000  Uiso   1.00
H994   H     0.11736   0.87327   0.62647   0.00000  Uiso   1.00
O995   O     0.06649   0.86981   0.42464   0.00000  Uiso   1.00
C996   C     0.03234   0.89926   0.43269   0.00000  Uiso   1.00
H997   H     0.01211   0.88804   0.46230   0.00000  Uiso   1.00
H998   H     0.01128   0.90039   0.40088   0.00000  Uiso   1.00
H999   H     0.04439   0.93301   0.43916   0.00000  Uiso   1.00
O1000  O     0.43711   0.62673   0.57214   0.00000  Uiso   1.00
C1001  C     0.47155   0.59889   0.56025   0.00000  Uiso   1.00
H1002  H     0.49279   0.59464   0.59161   0.00000  Uiso   1.00
H1003  H     0.49140   0.61374   0.53226   0.00000  Uiso   1.00
H1004  H     0.46010   0.56584   0.54954   0.00000  Uiso   1.00
O1005  O     0.11347   0.67516   0.58052   0.00000  Uiso   1.00
C1006  C     0.09180   0.65010   0.61453   0.00000  Uiso   1.00
H1007  H     0.05970   0.63864   0.60122   0.00000  Uiso   1.00
H1008  H     0.08622   0.67083   0.64571   0.00000  Uiso   1.00
H1009  H     0.11142   0.62166   0.62618   0.00000  Uiso   1.00
O1010  O     0.38538   0.82368   0.42014   0.00000  Uiso   1.00
C1011  C     0.40665   0.84840   0.38555   0.00000  Uiso   1.00
H1012  H     0.41201   0.82734   0.35457   0.00000  Uiso   1.00
H1013  H     0.43885   0.86017   0.39831   0.00000  Uiso   1.00
H1014  H     0.38679   0.87666   0.37384   0.00000  Uiso   1.00
O1015  O     0.43159   0.86792   0.57686   0.00000  Uiso   1.00
C1016  C     0.46576   0.89795   0.57092   0.00000  Uiso   1.00
H1017  H     0.48653   0.88827   0.54116   0.00000  Uiso   1.00
H1018  H     0.48635   0.89783   0.60312   0.00000  Uiso   1.00
H1019  H     0.45364   0.93186   0.56589   0.00000  Uiso   1.00
O1020  O     0.07001   0.63366   0.42196   0.00000  Uiso   1.00
C1021  C     0.03596   0.60316   0.42572   0.00000  Uiso   1.00
H1022  H     0.01708   0.60310   0.39233   0.00000  Uiso   1.00
H1023  H     0.01356   0.61263   0.45407   0.00000  Uiso   1.00
H1024  H     0.04810   0.56936   0.43148   0.00000  Uiso   1.00
O1025  O     0.13370   0.92837   0.42135   0.00000  Uiso   1.00
C1026  C     0.15350   0.90420   0.38542   0.00000  Uiso   1.00
H1027  H     0.18561   0.89126   0.39693   0.00000  Uiso   1.00
H1028  H     0.15865   0.92599   0.35492   0.00000  Uiso   1.00
H1029  H     0.13264   0.87673   0.37353   0.00000  Uiso   1.00
O1030  O     0.37238   0.56431   0.57309   0.00000  Uiso   1.00
C1031  C     0.35692   0.58356   0.61456   0.00000  Uiso   1.00
H1032  H     0.34922   0.55723   0.63983   0.00000  Uiso   1.00
H1033  H     0.32666   0.60264   0.60834   0.00000  Uiso   1.00
H1034  H     0.38214   0.60450   0.63117   0.00000  Uiso   1.00
O1035  O     0.31290   0.62326   0.42785   0.00000  Uiso   1.00
C1036  C     0.27846   0.65113   0.43973   0.00000  Uiso   1.00
H1037  H     0.25862   0.63631   0.46776   0.00000  Uiso   1.00
H1038  H     0.25721   0.65535   0.40838   0.00000  Uiso   1.00
H1039  H     0.28993   0.68418   0.45040   0.00000  Uiso   1.00
O1040  O     0.18350   0.88019   0.57536   0.00000  Uiso   1.00
C1041  C     0.21764   0.85073   0.56734   0.00000  Uiso   1.00
H1042  H     0.23868   0.84959   0.59917   0.00000  Uiso   1.00
H1043  H     0.23790   0.86194   0.53774   0.00000  Uiso   1.00
H1044  H     0.20558   0.81699   0.56085   0.00000  Uiso   1.00
O1045  O     0.36457   0.92628   0.57988   0.00000  Uiso   1.00
C1046  C     0.34328   0.90151   0.61443   0.00000  Uiso   1.00
H1047  H     0.31118   0.88956   0.60156   0.00000  Uiso   1.00
H1048  H     0.33771   0.92260   0.64535   0.00000  Uiso   1.00
H1049  H     0.36326   0.87338   0.62627   0.00000  Uiso   1.00
O1050  O     0.13653   0.57485   0.41948   0.00000  Uiso   1.00
C1051  C     0.15820   0.59991   0.38547   0.00000  Uiso   1.00
H1052  H     0.16376   0.57920   0.35428   0.00000  Uiso   1.00
H1053  H     0.19030   0.61135   0.39877   0.00000  Uiso   1.00
H1054  H     0.13858   0.62836   0.37384   0.00000  Uiso   1.00
O1055  O     0.17999   0.61634   0.57804   0.00000  Uiso   1.00
C1056  C     0.21403   0.64684   0.57428   0.00000  Uiso   1.00
H1057  H     0.23644   0.63737   0.54594   0.00000  Uiso   1.00
H1058  H     0.23291   0.64690   0.60767   0.00000  Uiso   1.00
H1059  H     0.20189   0.68063   0.56852   0.00000  Uiso   1.00
O1060  O     0.31840   0.88206   0.42314   0.00000  Uiso   1.00
C1061  C     0.28415   0.85213   0.42920   0.00000  Uiso   1.00
H1062  H     0.26363   0.85212   0.39695   0.00000  Uiso   1.00
H1063  H     0.26335   0.86203   0.45885   0.00000  Uiso   1.00
H1064  H     0.29619   0.81823   0.43447   0.00000  Uiso   1.00
O1065  O     0.54509   0.70491   0.53958   0.00000  Uiso   1.00
O1066  O     0.95492   0.79509   0.46042   0.00000  Uiso   1.00
O1067  O     0.95492   0.79509   0.53958   0.00000  Uiso   1.00
O1068  O     0.54509   0.70491   0.46042   0.00000  Uiso   1.00
O1069  O     0.95492   0.70491   0.46042   0.00000  Uiso   1.00
O1070  O     0.54509   0.79509   0.53958   0.00000  Uiso   1.00
O1071  O     0.54509   0.79509   0.46042   0.00000  Uiso   1.00
O1072  O     0.95492   0.70491   0.53958   0.00000  Uiso   1.00
O1073  O     0.79509   0.95491   0.53958   0.00000  Uiso   1.00
O1074  O     0.70492   0.54509   0.46042   0.00000  Uiso   1.00
O1075  O     0.70492   0.54509   0.53958   0.00000  Uiso   1.00
O1076  O     0.79509   0.95491   0.46042   0.00000  Uiso   1.00
O1077  O     0.70492   0.95491   0.46042   0.00000  Uiso   1.00
O1078  O     0.79509   0.54509   0.53958   0.00000  Uiso   1.00
O1079  O     0.79509   0.54509   0.46042   0.00000  Uiso   1.00
O1080  O     0.70492   0.95491   0.53958   0.00000  Uiso   1.00
C1081  C     0.55898   0.69005   0.50026   0.00000  Uiso   1.00
C1082  C     0.94101   0.80995   0.49973   0.00000  Uiso   1.00
C1083  C     0.94072   0.69036   0.49980   0.00000  Uiso   1.00
C1084  C     0.55902   0.80989   0.50026   0.00000  Uiso   1.00
C1085  C     0.80899   0.94005   0.50027   0.00000  Uiso   1.00
C1086  C     0.69102   0.55995   0.49974   0.00000  Uiso   1.00
C1087  C     0.69098   0.94011   0.49974   0.00000  Uiso   1.00
C1088  C     0.80928   0.55964   0.50020   0.00000  Uiso   1.00
H1089  H     0.99715   0.68117   0.37690   0.00000  Uiso   1.00
H1090  H     0.50147   0.81882   0.62312   0.00000  Uiso   1.00
H1091  H     0.50282   0.81883   0.37677   0.00000  Uiso   1.00
H1092  H     0.99666   0.68115   0.62321   0.00000  Uiso   1.00
H1093  H     0.74855   0.93117   0.37688   0.00000  Uiso   1.00
H1094  H     0.75283   0.56883   0.62310   0.00000  Uiso   1.00
H1095  H     0.75333   0.56885   0.37679   0.00000  Uiso   1.00
H1096  H     0.74722   0.93117   0.62323   0.00000  Uiso   1.00
N1097  N     0.50000   0.75000   0.61736   0.00000  Uiso   1.00
N1098  N     0.50000   0.75000   0.38264   0.00000  Uiso   1.00
N1099  N     0.75000   0.50000   0.61736   0.00000  Uiso   1.00
N1100  N     0.75000   0.50000   0.38264   0.00000  Uiso   1.00
Cu1101 Cu    0.50000   0.75000   0.54689   0.00000  Uiso   1.00
Cu1102 Cu    0.50000   0.75000   0.45311   0.00000  Uiso   1.00
Cu1103 Cu    0.75000   0.50000   0.54689   0.00000  Uiso   1.00
Cu1104 Cu    0.75000   0.50000   0.45311   0.00000  Uiso   1.00
C1105  C     0.99843   0.71175   0.35817   0.00000  Uiso   1.00
C1106  C     0.50105   0.78824   0.64184   0.00000  Uiso   1.00
C1107  C     0.50146   0.78823   0.35811   0.00000  Uiso   1.00
C1108  C     0.99828   0.71176   0.64188   0.00000  Uiso   1.00
C1109  C     0.74896   0.96176   0.35816   0.00000  Uiso   1.00
C1110  C     0.75156   0.53825   0.64183   0.00000  Uiso   1.00
C1111  C     0.75171   0.53824   0.35812   0.00000  Uiso   1.00
C1112  C     0.74855   0.96176   0.64189   0.00000  Uiso   1.00
C1113  C     0.87718   0.65462   0.46221   0.00000  Uiso   1.00
C1114  C     0.62021   0.84833   0.53978   0.00000  Uiso   1.00
C1115  C     0.59550   0.87205   0.46205   0.00000  Uiso   1.00
C1116  C     0.90639   0.62599   0.53630   0.00000  Uiso   1.00
C1117  C     0.61854   0.64987   0.54079   0.00000  Uiso   1.00
C1118  C     0.88078   0.84945   0.45959   0.00000  Uiso   1.00
C1119  C     0.90356   0.87109   0.53867   0.00000  Uiso   1.00
C1120  C     0.59713   0.62960   0.46082   0.00000  Uiso   1.00
C1121  C     0.62979   0.90167   0.46022   0.00000  Uiso   1.00
C1122  C     0.87283   0.59538   0.53779   0.00000  Uiso   1.00
C1123  C     0.84361   0.62401   0.46370   0.00000  Uiso   1.00
C1124  C     0.65450   0.87795   0.53795   0.00000  Uiso   1.00
C1125  C     0.86922   0.90055   0.54042   0.00000  Uiso   1.00
C1126  C     0.63146   0.60013   0.45921   0.00000  Uiso   1.00
C1127  C     0.65287   0.62040   0.53918   0.00000  Uiso   1.00
C1128  C     0.84644   0.87891   0.46133   0.00000  Uiso   1.00
C1129  C     0.59193   0.84393   0.50083   0.00000  Uiso   1.00
C1130  C     0.90761   0.65653   0.49941   0.00000  Uiso   1.00
C1131  C     0.90813   0.84402   0.49918   0.00000  Uiso   1.00
C1132  C     0.59187   0.65598   0.50076   0.00000  Uiso   1.00
C1133  C     0.84239   0.59346   0.50059   0.00000  Uiso   1.00
C1134  C     0.65807   0.90607   0.49917   0.00000  Uiso   1.00
C1135  C     0.65813   0.59402   0.49924   0.00000  Uiso   1.00
C1136  C     0.84187   0.90598   0.50082   0.00000  Uiso   1.00
O1137  O     0.87763   0.68569   0.42690   0.00000  Uiso   1.00
C1138  C     0.89308   0.66643   0.38544   0.00000  Uiso   1.00
H1139  H     0.92335   0.64735   0.39166   0.00000  Uiso   1.00
H1140  H     0.90078   0.69275   0.36016   0.00000  Uiso   1.00
H1141  H     0.86787   0.64548   0.36883   0.00000  Uiso   1.00
O1142  O     0.61630   0.82164   0.57865   0.00000  Uiso   1.00
C1143  C     0.59650   0.84580   0.61458   0.00000  Uiso   1.00
H1144  H     0.59134   0.82402   0.64507   0.00000  Uiso   1.00
H1145  H     0.56439   0.85876   0.60307   0.00000  Uiso   1.00
H1146  H     0.61736   0.87327   0.62647   0.00000  Uiso   1.00
O1147  O     0.56649   0.86981   0.42464   0.00000  Uiso   1.00
C1148  C     0.53234   0.89926   0.43269   0.00000  Uiso   1.00
H1149  H     0.51211   0.88804   0.46230   0.00000  Uiso   1.00
H1150  H     0.51128   0.90039   0.40088   0.00000  Uiso   1.00
H1151  H     0.54439   0.93301   0.43916   0.00000  Uiso   1.00
O1152  O     0.93711   0.62673   0.57214   0.00000  Uiso   1.00
C1153  C     0.97155   0.59889   0.56025   0.00000  Uiso   1.00
H1154  H     0.99279   0.59464   0.59161   0.00000  Uiso   1.00
H1155  H     0.99140   0.61374   0.53226   0.00000  Uiso   1.00
H1156  H     0.96010   0.56584   0.54954   0.00000  Uiso   1.00
O1157  O     0.61347   0.67516   0.58052   0.00000  Uiso   1.00
C1158  C     0.59180   0.65010   0.61453   0.00000  Uiso   1.00
H1159  H     0.55970   0.63864   0.60122   0.00000  Uiso   1.00
H1160  H     0.58622   0.67083   0.64571   0.00000  Uiso   1.00
H1161  H     0.61142   0.62166   0.62618   0.00000  Uiso   1.00
O1162  O     0.88538   0.82368   0.42014   0.00000  Uiso   1.00
C1163  C     0.90665   0.84840   0.38555   0.00000  Uiso   1.00
H1164  H     0.91201   0.82734   0.35457   0.00000  Uiso   1.00
H1165  H     0.93885   0.86017   0.39831   0.00000  Uiso   1.00
H1166  H     0.88679   0.87666   0.37384   0.00000  Uiso   1.00
O1167  O     0.93159   0.86792   0.57686   0.00000  Uiso   1.00
C1168  C     0.96576   0.89795   0.57092   0.00000  Uiso   1.00
H1169  H     0.98653   0.88827   0.54116   0.00000  Uiso   1.00
H1170  H     0.98635   0.89783   0.60312   0.00000  Uiso   1.00
H1171  H     0.95364   0.93186   0.56589   0.00000  Uiso   1.00
O1172  O     0.57001   0.63366   0.42196   0.00000  Uiso   1.00
C1173  C     0.53596   0.60316   0.42572   0.00000  Uiso   1.00
H1174  H     0.51708   0.60310   0.39233   0.00000  Uiso   1.00
H1175  H     0.51356   0.61263   0.45407   0.00000  Uiso   1.00
H1176  H     0.54810   0.56936   0.43148   0.00000  Uiso   1.00
O1177  O     0.63370   0.92837   0.42135   0.00000  Uiso   1.00
C1178  C     0.65350   0.90420   0.38542   0.00000  Uiso   1.00
H1179  H     0.68561   0.89126   0.39693   0.00000  Uiso   1.00
H1180  H     0.65865   0.92599   0.35492   0.00000  Uiso   1.00
H1181  H     0.63264   0.87673   0.37353   0.00000  Uiso   1.00
O1182  O     0.87238   0.56431   0.57309   0.00000  Uiso   1.00
C1183  C     0.85692   0.58356   0.61456   0.00000  Uiso   1.00
H1184  H     0.84922   0.55723   0.63983   0.00000  Uiso   1.00
H1185  H     0.82666   0.60264   0.60834   0.00000  Uiso   1.00
H1186  H     0.88214   0.60450   0.63117   0.00000  Uiso   1.00
O1187  O     0.81290   0.62326   0.42785   0.00000  Uiso   1.00
C1188  C     0.77846   0.65113   0.43973   0.00000  Uiso   1.00
H1189  H     0.75862   0.63631   0.46776   0.00000  Uiso   1.00
H1190  H     0.75721   0.65535   0.40838   0.00000  Uiso   1.00
H1191  H     0.78993   0.68418   0.45040   0.00000  Uiso   1.00
O1192  O     0.68350   0.88019   0.57536   0.00000  Uiso   1.00
C1193  C     0.71764   0.85073   0.56734   0.00000  Uiso   1.00
H1194  H     0.73868   0.84959   0.59917   0.00000  Uiso   1.00
H1195  H     0.73790   0.86194   0.53774   0.00000  Uiso   1.00
H1196  H     0.70558   0.81699   0.56085   0.00000  Uiso   1.00
O1197  O     0.86457   0.92628   0.57988   0.00000  Uiso   1.00
C1198  C     0.84328   0.90151   0.61443   0.00000  Uiso   1.00
H1199  H     0.81118   0.88956   0.60156   0.00000  Uiso   1.00
H1200  H     0.83771   0.92260   0.64535   0.00000  Uiso   1.00
H1201  H     0.86326   0.87338   0.62627   0.00000  Uiso   1.00
O1202  O     0.63653   0.57485   0.41948   0.00000  Uiso   1.00
C1203  C     0.65820   0.59991   0.38547   0.00000  Uiso   1.00
H1204  H     0.66376   0.57920   0.35428   0.00000  Uiso   1.00
H1205  H     0.69030   0.61135   0.39877   0.00000  Uiso   1.00
H1206  H     0.63858   0.62836   0.37384   0.00000  Uiso   1.00
O1207  O     0.67999   0.61634   0.57804   0.00000  Uiso   1.00
C1208  C     0.71403   0.64684   0.57428   0.00000  Uiso   1.00
H1209  H     0.73644   0.63737   0.54594   0.00000  Uiso   1.00
H1210  H     0.73291   0.64690   0.60767   0.00000  Uiso   1.00
H1211  H     0.70189   0.68063   0.56852   0.00000  Uiso   1.00
O1212  O     0.81840   0.88206   0.42314   0.00000  Uiso   1.00
C1213  C     0.78415   0.85213   0.42920   0.00000  Uiso   1.00
H1214  H     0.76363   0.85212   0.39695   0.00000  Uiso   1.00
H1215  H     0.76335   0.86203   0.45885   0.00000  Uiso   1.00
H1216  H     0.79619   0.81823   0.43447   0.00000  Uiso   1.00
O1217  O     0.04509   0.20491   0.87291   0.00000  Uiso   1.00
O1218  O     0.45492   0.29509   0.79375   0.00000  Uiso   1.00
O1219  O     0.45492   0.29509   0.87291   0.00000  Uiso   1.00
O1220  O     0.04509   0.20491   0.79375   0.00000  Uiso   1.00
O1221  O     0.45492   0.20491   0.79375   0.00000  Uiso   1.00
O1222  O     0.04509   0.29509   0.87291   0.00000  Uiso   1.00
O1223  O     0.04509   0.29509   0.79375   0.00000  Uiso   1.00
O1224  O     0.45492   0.20491   0.87291   0.00000  Uiso   1.00
O1225  O     0.29509   0.45491   0.87291   0.00000  Uiso   1.00
O1226  O     0.20492   0.04509   0.79375   0.00000  Uiso   1.00
O1227  O     0.20492   0.04509   0.87291   0.00000  Uiso   1.00
O1228  O     0.29509   0.45491   0.79375   0.00000  Uiso   1.00
O1229  O     0.20492   0.45491   0.79375   0.00000  Uiso   1.00
O1230  O     0.29509   0.04509   0.87291   0.00000  Uiso   1.00
O1231  O     0.29509   0.04509   0.79375   0.00000  Uiso   1.00
O1232  O     0.20492   0.45491   0.87291   0.00000  Uiso   1.00
C1233  C     0.05898   0.19005   0.83359   0.00000  Uiso   1.00
C1234  C     0.44101   0.30995   0.83306   0.00000  Uiso   1.00
C1235  C     0.44072   0.19036   0.83313   0.00000  Uiso   1.00
C1236  C     0.05902   0.30989   0.83359   0.00000  Uiso   1.00
C1237  C     0.30899   0.44005   0.83361   0.00000  Uiso   1.00
C1238  C     0.19102   0.05995   0.83308   0.00000  Uiso   1.00
C1239  C     0.19098   0.44011   0.83307   0.00000  Uiso   1.00
C1240  C     0.30928   0.05964   0.83353   0.00000  Uiso   1.00
H1241  H     0.49715   0.18117   0.71023   0.00000  Uiso   1.00
H1242  H     0.00147   0.31882   0.95646   0.00000  Uiso   1.00
H1243  H     0.00282   0.31883   0.71010   0.00000  Uiso   1.00
H1244  H     0.49666   0.18115   0.95654   0.00000  Uiso   1.00
H1245  H     0.24855   0.43117   0.71021   0.00000  Uiso   1.00
H1246  H     0.25283   0.06883   0.95643   0.00000  Uiso   1.00
H1247  H     0.25333   0.06885   0.71012   0.00000  Uiso   1.00
H1248  H     0.24722   0.43117   0.95656   0.00000  Uiso   1.00
N1249  N     0.00000   0.25000   0.95069   0.00000  Uiso   1.00
N1250  N     0.00000   0.25000   0.71598   0.00000  Uiso   1.00
N1251  N     0.25000  -0.00000   0.95069   0.00000  Uiso   1.00
N1252  N     0.25000  -0.00000   0.71598   0.00000  Uiso   1.00
Cu1253 Cu    0.00000   0.25000   0.88022   0.00000  Uiso   1.00
Cu1254 Cu    0.00000   0.25000   0.78645   0.00000  Uiso   1.00
Cu1255 Cu    0.25000  -0.00000   0.88022   0.00000  Uiso   1.00
Cu1256 Cu    0.25000  -0.00000   0.78645   0.00000  Uiso   1.00
C1257  C     0.49843   0.21175   0.69150   0.00000  Uiso   1.00
C1258  C     0.00105   0.28824   0.97517   0.00000  Uiso   1.00
C1259  C     0.00146   0.28823   0.69145   0.00000  Uiso   1.00
C1260  C     0.49828   0.21176   0.97521   0.00000  Uiso   1.00
C1261  C     0.24896   0.46176   0.69149   0.00000  Uiso   1.00
C1262  C     0.25156   0.03825   0.97517   0.00000  Uiso   1.00
C1263  C     0.25171   0.03824   0.69145   0.00000  Uiso   1.00
C1264  C     0.24855   0.46176   0.97522   0.00000  Uiso   1.00
C1265  C     0.37718   0.15462   0.79555   0.00000  Uiso   1.00
C1266  C     0.12021   0.34833   0.87311   0.00000  Uiso   1.00
C1267  C     0.09550   0.37205   0.79539   0.00000  Uiso   1.00
C1268  C     0.40639   0.12599   0.86963   0.00000  Uiso   1.00
C1269  C     0.11854   0.14987   0.87412   0.00000  Uiso   1.00
C1270  C     0.38078   0.34945   0.79292   0.00000  Uiso   1.00
C1271  C     0.40356   0.37109   0.87201   0.00000  Uiso   1.00
C1272  C     0.09713   0.12960   0.79416   0.00000  Uiso   1.00
C1273  C     0.12979   0.40167   0.79355   0.00000  Uiso   1.00
C1274  C     0.37283   0.09538   0.87112   0.00000  Uiso   1.00
C1275  C     0.34361   0.12401   0.79703   0.00000  Uiso   1.00
C1276  C     0.15450   0.37795   0.87128   0.00000  Uiso   1.00
C1277  C     0.36922   0.40055   0.87375   0.00000  Uiso   1.00
C1278  C     0.13146   0.10013   0.79255   0.00000  Uiso   1.00
C1279  C     0.15287   0.12040   0.87251   0.00000  Uiso   1.00
C1280  C     0.34644   0.37891   0.79466   0.00000  Uiso   1.00
C1281  C     0.09193   0.34393   0.83416   0.00000  Uiso   1.00
C1282  C     0.40761   0.15653   0.83274   0.00000  Uiso   1.00
C1283  C     0.40813   0.34402   0.83252   0.00000  Uiso   1.00
C1284  C     0.09187   0.15598   0.83409   0.00000  Uiso   1.00
C1285  C     0.34239   0.09346   0.83392   0.00000  Uiso   1.00
C1286  C     0.15807   0.40607   0.83251   0.00000  Uiso   1.00
C1287  C     0.15813   0.09402   0.83258   0.00000  Uiso   1.00
C1288  C     0.34187   0.40598   0.83415   0.00000  Uiso   1.00
O1289  O     0.37763   0.18569   0.76024   0.00000  Uiso   1.00
C1290  C     0.39308   0.16643   0.71877   0.00000  Uiso   1.00
H1291  H     0.42335   0.14735   0.72500   0.00000  Uiso   1.00
H1292  H     0.40078   0.19275   0.69349   0.00000  Uiso   1.00
H1293  H     0.36787   0.14548   0.70217   0.00000  Uiso   1.00
O1294  O     0.11630   0.32164   0.91199   0.00000  Uiso   1.00
C1295  C     0.09650   0.34580   0.94791   0.00000  Uiso   1.00
H1296  H     0.09134   0.32402   0.97841   0.00000  Uiso   1.00
H1297  H     0.06439   0.35876   0.93640   0.00000  Uiso   1.00
H1298  H     0.11736   0.37327   0.95980   0.00000  Uiso   1.00
O1299  O     0.06649   0.36981   0.75798   0.00000  Uiso   1.00
C1300  C     0.03234   0.39926   0.76602   0.00000  Uiso   1.00
H1301  H     0.01211   0.38804   0.79564   0.00000  Uiso   1.00
H1302  H     0.01128   0.40039   0.73421   0.00000  Uiso   1.00
H1303  H     0.04439   0.43301   0.77250   0.00000  Uiso   1.00
O1304  O     0.43711   0.12673   0.90548   0.00000  Uiso   1.00
C1305  C     0.47155   0.09889   0.89359   0.00000  Uiso   1.00
H1306  H     0.49279   0.09464   0.92494   0.00000  Uiso   1.00
H1307  H     0.49140   0.11374   0.86559   0.00000  Uiso   1.00
H1308  H     0.46010   0.06584   0.88287   0.00000  Uiso   1.00
O1309  O     0.11347   0.17516   0.91385   0.00000  Uiso   1.00
C1310  C     0.09180   0.15010   0.94786   0.00000  Uiso   1.00
H1311  H     0.05970   0.13864   0.93456   0.00000  Uiso   1.00
H1312  H     0.08622   0.17083   0.97904   0.00000  Uiso   1.00
H1313  H     0.11142   0.12166   0.95951   0.00000  Uiso   1.00
O1314  O     0.38538   0.32368   0.75348   0.00000  Uiso   1.00
C1315  C     0.40665   0.34840   0.71888   0.00000  Uiso   1.00
H1316  H     0.41201   0.32734   0.68790   0.00000  Uiso   1.00
H1317  H     0.43885   0.36017   0.73165   0.00000  Uiso   1.00
H1318  H     0.38679   0.37666   0.70717   0.00000  Uiso   1.00
O1319  O     0.43159   0.36792   0.91020   0.00000  Uiso   1.00
C1320  C     0.46576   0.39795   0.90425   0.00000  Uiso   1.00
H1321  H     0.48653   0.38827   0.87449   0.00000  Uiso   1.00
H1322  H     0.48635   0.39783   0.93645   0.00000  Uiso   1.00
H1323  H     0.45364   0.43186   0.89923   0.00000  Uiso   1.00
O1324  O     0.07001   0.13366   0.75529   0.00000  Uiso   1.00
C1325  C     0.03596   0.10316   0.75905   0.00000  Uiso   1.00
H1326  H     0.01708   0.10310   0.72567   0.00000  Uiso   1.00
H1327  H     0.01356   0.11263   0.78740   0.00000  Uiso   1.00
H1328  H     0.04810   0.06936   0.76481   0.00000  Uiso   1.00
O1329  O     0.13370   0.42837   0.75468   0.00000  Uiso   1.00
C1330  C     0.15350   0.40420   0.71876   0.00000  Uiso   1.00
H1331  H     0.18561   0.39126   0.73026   0.00000  Uiso   1.00
H1332  H     0.15865   0.42599   0.68826   0.00000  Uiso   1.00
H1333  H     0.13264   0.37673   0.70686   0.00000  Uiso   1.00
O1334  O     0.37238   0.06431   0.90643   0.00000  Uiso   1.00
C1335  C     0.35692   0.08356   0.94790   0.00000  Uiso   1.00
H1336  H     0.34922   0.05723   0.97317   0.00000  Uiso   1.00
H1337  H     0.32666   0.10264   0.94167   0.00000  Uiso   1.00
H1338  H     0.38214   0.10450   0.96450   0.00000  Uiso   1.00
O1339  O     0.31290   0.12326   0.76119   0.00000  Uiso   1.00
C1340  C     0.27846   0.15113   0.77306   0.00000  Uiso   1.00
H1341  H     0.25862   0.13631   0.80109   0.00000  Uiso   1.00
H1342  H     0.25721   0.15535   0.74172   0.00000  Uiso   1.00
H1343  H     0.28993   0.18418   0.78373   0.00000  Uiso   1.00
O1344  O     0.18350   0.38019   0.90869   0.00000  Uiso   1.00
C1345  C     0.21764   0.35073   0.90067   0.00000  Uiso   1.00
H1346  H     0.23868   0.34959   0.93250   0.00000  Uiso   1.00
H1347  H     0.23790   0.36194   0.87108   0.00000  Uiso   1.00
H1348  H     0.20558   0.31699   0.89418   0.00000  Uiso   1.00
O1349  O     0.36457   0.42628   0.91322   0.00000  Uiso   1.00
C1350  C     0.34328   0.40151   0.94777   0.00000  Uiso   1.00
H1351  H     0.31118   0.38956   0.93489   0.00000  Uiso   1.00
H1352  H     0.33771   0.42260   0.97868   0.00000  Uiso   1.00
H1353  H     0.36326   0.37338   0.95960   0.00000  Uiso   1.00
O1354  O     0.13653   0.07485   0.75281   0.00000  Uiso   1.00
C1355  C     0.15820   0.09991   0.71880   0.00000  Uiso   1.00
H1356  H     0.16376   0.07920   0.68761   0.00000  Uiso   1.00
H1357  H     0.19030   0.11135   0.73210   0.00000  Uiso   1.00
H1358  H     0.13858   0.12836   0.70718   0.00000  Uiso   1.00
O1359  O     0.17999   0.11634   0.91138   0.00000  Uiso   1.00
C1360  C     0.21403   0.14684   0.90762   0.00000  Uiso   1.00
H1361  H     0.23644   0.13737   0.87928   0.00000  Uiso   1.00
H1362  H     0.23291   0.14690   0.94101   0.00000  Uiso   1.00
H1363  H     0.20189   0.18063   0.90186   0.00000  Uiso   1.00
O1364  O     0.31840   0.38206   0.75648   0.00000  Uiso   1.00
C1365  C     0.28415   0.35213   0.76253   0.00000  Uiso   1.00
H1366  H     0.26363   0.35212   0.73028   0.00000  Uiso   1.00
H1367  H     0.26335   0.36203   0.79218   0.00000  Uiso   1.00
H1368  H     0.29619   0.31823   0.76780   0.00000  Uiso   1.00
O1369  O     0.54509   0.20491   0.87291   0.00000  Uiso   1.00
O1370  O     0.95492   0.29509   0.79375   0.00000  Uiso   1.00
O1371  O     0.95492   0.29509   0.87291   0.00000  Uiso   1.00
O1372  O     0.54509   0.20491   0.79375   0.00000  Uiso   1.00
O1373  O     0.95492   0.20491   0.79375   0.00000  Uiso   1.00
O1374  O     0.54509   0.29509   0.87291   0.00000  Uiso   1.00
O1375  O     0.54509   0.29509   0.79375   0.00000  Uiso   1.00
O1376  O     0.95492   0.20491   0.87291   0.00000  Uiso   1.00
O1377  O     0.79509   0.45491   0.87291   0.00000  Uiso   1.00
O1378  O     0.70492   0.04509   0.79375   0.00000  Uiso   1.00
O1379  O     0.70492   0.04509   0.87291   0.00000  Uiso   1.00
O1380  O     0.79509   0.45491   0.79375   0.00000  Uiso   1.00
O1381  O     0.70492   0.45491   0.79375   0.00000  Uiso   1.00
O1382  O     0.79509   0.04509   0.87291   0.00000  Uiso   1.00
O1383  O     0.79509   0.04509   0.79375   0.00000  Uiso   1.00
O1384  O     0.70492   0.45491   0.87291   0.00000  Uiso   1.00
C1385  C     0.55898   0.19005   0.83359   0.00000  Uiso   1.00
C1386  C     0.94101   0.30995   0.83306   0.00000  Uiso   1.00
C1387  C     0.94072   0.19036   0.83313   0.00000  Uiso   1.00
C1388  C     0.55902   0.30989   0.83359   0.00000  Uiso   1.00
C1389  C     0.80899   0.44005   0.83361   0.00000  Uiso   1.00
C1390  C     0.69102   0.05995   0.83308   0.00000  Uiso   1.00
C1391  C     0.69098   0.44011   0.83307   0.00000  Uiso   1.00
C1392  C     0.80928   0.05964   0.83353   0.00000  Uiso   1.00
H1393  H     0.99715   0.18117   0.71023   0.00000  Uiso   1.00
H1394  H     0.50147   0.31882   0.95646   0.00000  Uiso   1.00
H1395  H     0.50282   0.31883   0.71010   0.00000  Uiso   1.00
H1396  H     0.99666   0.18115   0.95654   0.00000  Uiso   1.00
H1397  H     0.74855   0.43117   0.71021   0.00000  Uiso   1.00
H1398  H     0.75283   0.06883   0.95643   0.00000  Uiso   1.00
H1399  H     0.75333   0.06885   0.71012   0.00000  Uiso   1.00
H1400  H     0.74722   0.43117   0.95656   0.00000  Uiso   1.00
N1401  N     0.50000   0.25000   0.95069   0.00000  Uiso   1.00
N1402  N     0.50000   0.25000   0.71598   0.00000  Uiso   1.00
N1403  N     0.75000  -0.00000   0.95069   0.00000  Uiso   1.00
N1404  N     0.75000  -0.00000   0.71598   0.00000  Uiso   1.00
Cu1405 Cu    0.50000   0.25000   0.88022   0.00000  Uiso   1.00
Cu1406 Cu    0.50000   0.25000   0.78645   0.00000  Uiso   1.00
Cu1407 Cu    0.75000  -0.00000   0.88022   0.00000  Uiso   1.00
Cu1408 Cu    0.75000  -0.00000   0.78645   0.00000  Uiso   1.00
C1409  C     0.99843   0.21175   0.69150   0.00000  Uiso   1.00
C1410  C     0.50105   0.28824   0.97517   0.00000  Uiso   1.00
C1411  C     0.50146   0.28823   0.69145   0.00000  Uiso   1.00
C1412  C     0.99828   0.21176   0.97521   0.00000  Uiso   1.00
C1413  C     0.74896   0.46176   0.69149   0.00000  Uiso   1.00
C1414  C     0.75156   0.03825   0.97517   0.00000  Uiso   1.00
C1415  C     0.75171   0.03824   0.69145   0.00000  Uiso   1.00
C1416  C     0.74855   0.46176   0.97522   0.00000  Uiso   1.00
C1417  C     0.87718   0.15462   0.79555   0.00000  Uiso   1.00
C1418  C     0.62021   0.34833   0.87311   0.00000  Uiso   1.00
C1419  C     0.59550   0.37205   0.79539   0.00000  Uiso   1.00
C1420  C     0.90639   0.12599   0.86963   0.00000  Uiso   1.00
C1421  C     0.61854   0.14987   0.87412   0.00000  Uiso   1.00
C1422  C     0.88078   0.34945   0.79292   0.00000  Uiso   1.00
C1423  C     0.90356   0.37109   0.87201   0.00000  Uiso   1.00
C1424  C     0.59713   0.12960   0.79416   0.00000  Uiso   1.00
C1425  C     0.62979   0.40167   0.79355   0.00000  Uiso   1.00
C1426  C     0.87283   0.09538   0.87112   0.00000  Uiso   1.00
C1427  C     0.84361   0.12401   0.79703   0.00000  Uiso   1.00
C1428  C     0.65450   0.37795   0.87128   0.00000  Uiso   1.00
C1429  C     0.86922   0.40055   0.87375   0.00000  Uiso   1.00
C1430  C     0.63146   0.10013   0.79255   0.00000  Uiso   1.00
C1431  C     0.65287   0.12040   0.87251   0.00000  Uiso   1.00
C1432  C     0.84644   0.37891   0.79466   0.00000  Uiso   1.00
C1433  C     0.59193   0.34393   0.83416   0.00000  Uiso   1.00
C1434  C     0.90761   0.15653   0.83274   0.00000  Uiso   1.00
C1435  C     0.90813   0.34402   0.83252   0.00000  Uiso   1.00
C1436  C     0.59187   0.15598   0.83409   0.00000  Uiso   1.00
C1437  C     0.84239   0.09346   0.83392   0.00000  Uiso   1.00
C1438  C     0.65807   0.40607   0.83251   0.00000  Uiso   1.00
C1439  C     0.65813   0.09402   0.83258   0.00000  Uiso   1.00
C1440  C     0.84187   0.40598   0.83415   0.00000  Uiso   1.00
O1441  O     0.87763   0.18569   0.76024   0.00000  Uiso   1.00
C1442  C     0.89308   0.16643   0.71877   0.00000  Uiso   1.00
H1443  H     0.92335   0.14735   0.72500   0.00000  Uiso   1.00
H1444  H     0.90078   0.19275   0.69349   0.00000  Uiso   1.00
H1445  H     0.86787   0.14548   0.70217   0.00000  Uiso   1.00
O1446  O     0.61630   0.32164   0.91199   0.00000  Uiso   1.00
C1447  C     0.59650   0.34580   0.94791   0.00000  Uiso   1.00
H1448  H     0.59134   0.32402   0.97841   0.00000  Uiso   1.00
H1449  H     0.56439   0.35876   0.93640   0.00000  Uiso   1.00
H1450  H     0.61736   0.37327   0.95980   0.00000  Uiso   1.00
O1451  O     0.56649   0.36981   0.75798   0.00000  Uiso   1.00
C1452  C     0.53234   0.39926   0.76602   0.00000  Uiso   1.00
H1453  H     0.51211   0.38804   0.79564   0.00000  Uiso   1.00
H1454  H     0.51128   0.40039   0.73421   0.00000  Uiso   1.00
H1455  H     0.54439   0.43301   0.77250   0.00000  Uiso   1.00
O1456  O     0.93711   0.12673   0.90548   0.00000  Uiso   1.00
C1457  C     0.97155   0.09889   0.89359   0.00000  Uiso   1.00
H1458  H     0.99279   0.09464   0.92494   0.00000  Uiso   1.00
H1459  H     0.99140   0.11374   0.86559   0.00000  Uiso   1.00
H1460  H     0.96010   0.06584   0.88287   0.00000  Uiso   1.00
O1461  O     0.61347   0.17516   0.91385   0.00000  Uiso   1.00
C1462  C     0.59180   0.15010   0.94786   0.00000  Uiso   1.00
H1463  H     0.55970   0.13864   0.93456   0.00000  Uiso   1.00
H1464  H     0.58622   0.17083   0.97904   0.00000  Uiso   1.00
H1465  H     0.61142   0.12166   0.95951   0.00000  Uiso   1.00
O1466  O     0.88538   0.32368   0.75348   0.00000  Uiso   1.00
C1467  C     0.90665   0.34840   0.71888   0.00000  Uiso   1.00
H1468  H     0.91201   0.32734   0.68790   0.00000  Uiso   1.00
H1469  H     0.93885   0.36017   0.73165   0.00000  Uiso   1.00
H1470  H     0.88679   0.37666   0.70717   0.00000  Uiso   1.00
O1471  O     0.93159   0.36792   0.91020   0.00000  Uiso   1.00
C1472  C     0.96576   0.39795   0.90425   0.00000  Uiso   1.00
H1473  H     0.98653   0.38827   0.87449   0.00000  Uiso   1.00
H1474  H     0.98635   0.39783   0.93645   0.00000  Uiso   1.00
H1475  H     0.95364   0.43186   0.89923   0.00000  Uiso   1.00
O1476  O     0.57001   0.13366   0.75529   0.00000  Uiso   1.00
C1477  C     0.53596   0.10316   0.75905   0.00000  Uiso   1.00
H1478  H     0.51708   0.10310   0.72567   0.00000  Uiso   1.00
H1479  H     0.51356   0.11263   0.78740   0.00000  Uiso   1.00
H1480  H     0.54810   0.06936   0.76481   0.00000  Uiso   1.00
O1481  O     0.63370   0.42837   0.75468   0.00000  Uiso   1.00
C1482  C     0.65350   0.40420   0.71876   0.00000  Uiso   1.00
H1483  H     0.68561   0.39126   0.73026   0.00000  Uiso   1.00
H1484  H     0.65865   0.42599   0.68826   0.00000  Uiso   1.00
H1485  H     0.63264   0.37673   0.70686   0.00000  Uiso   1.00
O1486  O     0.87238   0.06431   0.90643   0.00000  Uiso   1.00
C1487  C     0.85692   0.08356   0.94790   0.00000  Uiso   1.00
H1488  H     0.84922   0.05723   0.97317   0.00000  Uiso   1.00
H1489  H     0.82666   0.10264   0.94167   0.00000  Uiso   1.00
H1490  H     0.88214   0.10450   0.96450   0.00000  Uiso   1.00
O1491  O     0.81290   0.12326   0.76119   0.00000  Uiso   1.00
C1492  C     0.77846   0.15113   0.77306   0.00000  Uiso   1.00
H1493  H     0.75862   0.13631   0.80109   0.00000  Uiso   1.00
H1494  H     0.75721   0.15535   0.74172   0.00000  Uiso   1.00
H1495  H     0.78993   0.18418   0.78373   0.00000  Uiso   1.00
O1496  O     0.68350   0.38019   0.90869   0.00000  Uiso   1.00
C1497  C     0.71764   0.35073   0.90067   0.00000  Uiso   1.00
H1498  H     0.73868   0.34959   0.93250   0.00000  Uiso   1.00
H1499  H     0.73790   0.36194   0.87108   0.00000  Uiso   1.00
H1500  H     0.70558   0.31699   0.89418   0.00000  Uiso   1.00
O1501  O     0.86457   0.42628   0.91322   0.00000  Uiso   1.00
C1502  C     0.84328   0.40151   0.94777   0.00000  Uiso   1.00
H1503  H     0.81118   0.38956   0.93489   0.00000  Uiso   1.00
H1504  H     0.83771   0.42260   0.97868   0.00000  Uiso   1.00
H1505  H     0.86326   0.37338   0.95960   0.00000  Uiso   1.00
O1506  O     0.63653   0.07485   0.75281   0.00000  Uiso   1.00
C1507  C     0.65820   0.09991   0.71880   0.00000  Uiso   1.00
H1508  H     0.66376   0.07920   0.68761   0.00000  Uiso   1.00
H1509  H     0.69030   0.11135   0.73210   0.00000  Uiso   1.00
H1510  H     0.63858   0.12836   0.70718   0.00000  Uiso   1.00
O1511  O     0.67999   0.11634   0.91138   0.00000  Uiso   1.00
C1512  C     0.71403   0.14684   0.90762   0.00000  Uiso   1.00
H1513  H     0.73644   0.13737   0.87928   0.00000  Uiso   1.00
H1514  H     0.73291   0.14690   0.94101   0.00000  Uiso   1.00
H1515  H     0.70189   0.18063   0.90186   0.00000  Uiso   1.00
O1516  O     0.81840   0.38206   0.75648   0.00000  Uiso   1.00
C1517  C     0.78415   0.35213   0.76253   0.00000  Uiso   1.00
H1518  H     0.76363   0.35212   0.73028   0.00000  Uiso   1.00
H1519  H     0.76335   0.36203   0.79218   0.00000  Uiso   1.00
H1520  H     0.79619   0.31823   0.76780   0.00000  Uiso   1.00
O1521  O     0.04509   0.70491   0.87291   0.00000  Uiso   1.00
O1522  O     0.45492   0.79509   0.79375   0.00000  Uiso   1.00
O1523  O     0.45492   0.79509   0.87291   0.00000  Uiso   1.00
O1524  O     0.04509   0.70491   0.79375   0.00000  Uiso   1.00
O1525  O     0.45492   0.70491   0.79375   0.00000  Uiso   1.00
O1526  O     0.04509   0.79509   0.87291   0.00000  Uiso   1.00
O1527  O     0.04509   0.79509   0.79375   0.00000  Uiso   1.00
O1528  O     0.45492   0.70491   0.87291   0.00000  Uiso   1.00
O1529  O     0.29509   0.95491   0.87291   0.00000  Uiso   1.00
O1530  O     0.20492   0.54509   0.79375   0.00000  Uiso   1.00
O1531  O     0.20492   0.54509   0.87291   0.00000  Uiso   1.00
O1532  O     0.29509   0.95491   0.79375   0.00000  Uiso   1.00
O1533  O     0.20492   0.95491   0.79375   0.00000  Uiso   1.00
O1534  O     0.29509   0.54509   0.87291   0.00000  Uiso   1.00
O1535  O     0.29509   0.54509   0.79375   0.00000  Uiso   1.00
O1536  O     0.20492   0.95491   0.87291   0.00000  Uiso   1.00
C1537  C     0.05898   0.69005   0.83359   0.00000  Uiso   1.00
C1538  C     0.44101   0.80995   0.83306   0.00000  Uiso   1.00
C1539  C     0.44072   0.69036   0.83313   0.00000  Uiso   1.00
C1540  C     0.05902   0.80989   0.83359   0.00000  Uiso   1.00
C1541  C     0.30899   0.94005   0.83361   0.00000  Uiso   1.00
C1542  C     0.19102   0.55995   0.83308   0.00000  Uiso   1.00
C1543  C     0.19098   0.94011   0.83307   0.00000  Uiso   1.00
C1544  C     0.30928   0.55964   0.83353   0.00000  Uiso   1.00
H1545  H     0.49715   0.68117   0.71023   0.00000  Uiso   1.00
H1546  H     0.00147   0.81882   0.95646   0.00000  Uiso   1.00
H1547  H     0.00282   0.81883   0.71010   0.00000  Uiso   1.00
H1548  H     0.49666   0.68115   0.95654   0.00000  Uiso   1.00
H1549  H     0.24855   0.93117   0.71021   0.00000  Uiso   1.00
H1550  H     0.25283   0.56883   0.95643   0.00000  Uiso   1.00
H1551  H     0.25333   0.56885   0.71012   0.00000  Uiso   1.00
H1552  H     0.24722   0.93117   0.95656   0.00000  Uiso   1.00
N1553  N     0.00000   0.75000   0.95069   0.00000  Uiso   1.00
N1554  N     0.00000   0.75000   0.71598   0.00000  Uiso   1.00
N1555  N     0.25000   0.50000   0.95069   0.00000  Uiso   1.00
N1556  N     0.25000   0.50000   0.71598   0.00000  Uiso   1.00
Cu1557 Cu    0.00000   0.75000   0.88022   0.00000  Uiso   1.00
Cu1558 Cu    0.00000   0.75000   0.78645   0.00000  Uiso   1.00
Cu1559 Cu    0.25000   0.50000   0.88022   0.00000  Uiso   1.00
Cu1560 Cu    0.25000   0.50000   0.78645   0.00000  Uiso   1.00
C1561  C     0.49843   0.71175   0.69150   0.00000  Uiso   1.00
C1562  C     0.00105   0.78824   0.97517   0.00000  Uiso   1.00
C1563  C     0.00146   0.78823   0.69145   0.00000  Uiso   1.00
C1564  C     0.49828   0.71176   0.97521   0.00000  Uiso   1.00
C1565  C     0.24896   0.96176   0.69149   0.00000  Uiso   1.00
C1566  C     0.25156   0.53825   0.97517   0.00000  Uiso   1.00
C1567  C     0.25171   0.53824   0.69145   0.00000  Uiso   1.00
C1568  C     0.24855   0.96176   0.97522   0.00000  Uiso   1.00
C1569  C     0.37718   0.65462   0.79555   0.00000  Uiso   1.00
C1570  C     0.12021   0.84833   0.87311   0.00000  Uiso   1.00
C1571  C     0.09550   0.87205   0.79539   0.00000  Uiso   1.00
C1572  C     0.40639   0.62599   0.86963   0.00000  Uiso   1.00
C1573  C     0.11854   0.64987   0.87412   0.00000  Uiso   1.00
C1574  C     0.38078   0.84945   0.79292   0.00000  Uiso   1.00
C1575  C     0.40356   0.87109   0.87201   0.00000  Uiso   1.00
C1576  C     0.09713   0.62960   0.79416   0.00000  Uiso   1.00
C1577  C     0.12979   0.90167   0.79355   0.00000  Uiso   1.00
C1578  C     0.37283   0.59538   0.87112   0.00000  Uiso   1.00
C1579  C     0.34361   0.62401   0.79703   0.00000  Uiso   1.00
C1580  C     0.15450   0.87795   0.87128   0.00000  Uiso   1.00
C1581  C     0.36922   0.90055   0.87375   0.00000  Uiso   1.00
C1582  C     0.13146   0.60013   0.79255   0.00000  Uiso   1.00
C1583  C     0.15287   0.62040   0.87251   0.00000  Uiso   1.00
C1584  C     0.34644   0.87891   0.79466   0.00000  Uiso   1.00
C1585  C     0.09193   0.84393   0.83416   0.00000  Uiso   1.00
C1586  C     0.40761   0.65653   0.83274   0.00000  Uiso   1.00
C1587  C     0.40813   0.84402   0.83252   0.00000  Uiso   1.00
C1588  C     0.09187   0.65598   0.83409   0.00000  Uiso   1.00
C1589  C     0.34239   0.59346   0.83392   0.00000  Uiso   1.00
C1590  C     0.15807   0.90607   0.83251   0.00000  Uiso   1.00
C1591  C     0.15813   0.59402   0.83258   0.00000  Uiso   1.00
C1592  C     0.34187   0.90598   0.83415   0.00000  Uiso   1.00
O1593  O     0.37763   0.68569   0.76024   0.00000  Uiso   1.00
C1594  C     0.39308   0.66643   0.71877   0.00000  Uiso   1.00
H1595  H     0.42335   0.64735   0.72500   0.00000  Uiso   1.00
H1596  H     0.40078   0.69275   0.69349   0.00000  Uiso   1.00
H1597  H     0.36787   0.64548   0.70217   0.00000  Uiso   1.00
O1598  O     0.11630   0.82164   0.91199   0.00000  Uiso   1.00
C1599  C     0.09650   0.84580   0.94791   0.00000  Uiso   1.00
H1600  H     0.09134   0.82402   0.97841   0.00000  Uiso   1.00
H1601  H     0.06439   0.85876   0.93640   0.00000  Uiso   1.00
H1602  H     0.11736   0.87327   0.95980   0.00000  Uiso   1.00
O1603  O     0.06649   0.86981   0.75798   0.00000  Uiso   1.00
C1604  C     0.03234   0.89926   0.76602   0.00000  Uiso   1.00
H1605  H     0.01211   0.88804   0.79564   0.00000  Uiso   1.00
H1606  H     0.01128   0.90039   0.73421   0.00000  Uiso   1.00
H1607  H     0.04439   0.93301   0.77250   0.00000  Uiso   1.00
O1608  O     0.43711   0.62673   0.90548   0.00000  Uiso   1.00
C1609  C     0.47155   0.59889   0.89359   0.00000  Uiso   1.00
H1610  H     0.49279   0.59464   0.92494   0.00000  Uiso   1.00
H1611  H     0.49140   0.61374   0.86559   0.00000  Uiso   1.00
H1612  H     0.46010   0.56584   0.88287   0.00000  Uiso   1.00
O1613  O     0.11347   0.67516   0.91385   0.00000  Uiso   1.00
C1614  C     0.09180   0.65010   0.94786   0.00000  Uiso   1.00
H1615  H     0.05970   0.63864   0.93456   0.00000  Uiso   1.00
H1616  H     0.08622   0.67083   0.97904   0.00000  Uiso   1.00
H1617  H     0.11142   0.62166   0.95951   0.00000  Uiso   1.00
O1618  O     0.38538   0.82368   0.75348   0.00000  Uiso   1.00
C1619  C     0.40665   0.84840   0.71888   0.00000  Uiso   1.00
H1620  H     0.41201   0.82734   0.68790   0.00000  Uiso   1.00
H1621  H     0.43885   0.86017   0.73165   0.00000  Uiso   1.00
H1622  H     0.38679   0.87666   0.70717   0.00000  Uiso   1.00
O1623  O     0.43159   0.86792   0.91020   0.00000  Uiso   1.00
C1624  C     0.46576   0.89795   0.90425   0.00000  Uiso   1.00
H1625  H     0.48653   0.88827   0.87449   0.00000  Uiso   1.00
H1626  H     0.48635   0.89783   0.93645   0.00000  Uiso   1.00
H1627  H     0.45364   0.93186   0.89923   0.00000  Uiso   1.00
O1628  O     0.07001   0.63366   0.75529   0.00000  Uiso   1.00
C1629  C     0.03596   0.60316   0.75905   0.00000  Uiso   1.00
H1630  H     0.01708   0.60310   0.72567   0.00000  Uiso   1.00
H1631  H     0.01356   0.61263   0.78740   0.00000  Uiso   1.00
H1632  H     0.04810   0.56936   0.76481   0.00000  Uiso   1.00
O1633  O     0.13370   0.92837   0.75468   0.00000  Uiso   1.00
C1634  C     0.15350   0.90420   0.71876   0.00000  Uiso   1.00
H1635  H     0.18561   0.89126   0.73026   0.00000  Uiso   1.00
H1636  H     0.15865   0.92599   0.68826   0.00000  Uiso   1.00
H1637  H     0.13264   0.87673   0.70686   0.00000  Uiso   1.00
O1638  O     0.37238   0.56431   0.90643   0.00000  Uiso   1.00
C1639  C     0.35692   0.58356   0.94790   0.00000  Uiso   1.00
H1640  H     0.34922   0.55723   0.97317   0.00000  Uiso   1.00
H1641  H     0.32666   0.60264   0.94167   0.00000  Uiso   1.00
H1642  H     0.38214   0.60450   0.96450   0.00000  Uiso   1.00
O1643  O     0.31290   0.62326   0.76119   0.00000  Uiso   1.00
C1644  C     0.27846   0.65113   0.77306   0.00000  Uiso   1.00
H1645  H     0.25862   0.63631   0.80109   0.00000  Uiso   1.00
H1646  H     0.25721   0.65535   0.74172   0.00000  Uiso   1.00
H1647  H     0.28993   0.68418   0.78373   0.00000  Uiso   1.00
O1648  O     0.18350   0.88019   0.90869   0.00000  Uiso   1.00
C1649  C     0.21764   0.85073   0.90067   0.00000  Uiso   1.00
H1650  H     0.23868   0.84959   0.93250   0.00000  Uiso   1.00
H1651  H     0.23790   0.86194   0.87108   0.00000  Uiso   1.00
H1652  H     0.20558   0.81699   0.89418   0.00000  Uiso   1.00
O1653  O     0.36457   0.92628   0.91322   0.00000  Uiso   1.00
C1654  C     0.34328   0.90151   0.94777   0.00000  Uiso   1.00
H1655  H     0.31118   0.88956   0.93489   0.00000  Uiso   1.00
H1656  H     0.33771   0.92260   0.97868   0.00000  Uiso   1.00
H1657  H     0.36326   0.87338   0.95960   0.00000  Uiso   1.00
O1658  O     0.13653   0.57485   0.75281   0.00000  Uiso   1.00
C1659  C     0.15820   0.59991   0.71880   0.00000  Uiso   1.00
H1660  H     0.16376   0.57920   0.68761   0.00000  Uiso   1.00
H1661  H     0.19030   0.61135   0.73210   0.00000  Uiso   1.00
H1662  H     0.13858   0.62836   0.70718   0.00000  Uiso   1.00
O1663  O     0.17999   0.61634   0.91138   0.00000  Uiso   1.00
C1664  C     0.21403   0.64684   0.90762   0.00000  Uiso   1.00
H1665  H     0.23644   0.63737   0.87928   0.00000  Uiso   1.00
H1666  H     0.23291   0.64690   0.94101   0.00000  Uiso   1.00
H1667  H     0.20189   0.68063   0.90186   0.00000  Uiso   1.00
O1668  O     0.31840   0.88206   0.75648   0.00000  Uiso   1.00
C1669  C     0.28415   0.85213   0.76253   0.00000  Uiso   1.00
H1670  H     0.26363   0.85212   0.73028   0.00000  Uiso   1.00
H1671  H     0.26335   0.86203   0.79218   0.00000  Uiso   1.00
H1672  H     0.29619   0.81823   0.76780   0.00000  Uiso   1.00
O1673  O     0.54509   0.70491   0.87291   0.00000  Uiso   1.00
O1674  O     0.95492   0.79509   0.79375   0.00000  Uiso   1.00
O1675  O     0.95492   0.79509   0.87291   0.00000  Uiso   1.00
O1676  O     0.54509   0.70491   0.79375   0.00000  Uiso   1.00
O1677  O     0.95492   0.70491   0.79375   0.00000  Uiso   1.00
O1678  O     0.54509   0.79509   0.87291   0.00000  Uiso   1.00
O1679  O     0.54509   0.79509   0.79375   0.00000  Uiso   1.00
O1680  O     0.95492   0.70491   0.87291   0.00000  Uiso   1.00
O1681  O     0.79509   0.95491   0.87291   0.00000  Uiso   1.00
O1682  O     0.70492   0.54509   0.79375   0.00000  Uiso   1.00
O1683  O     0.70492   0.54509   0.87291   0.00000  Uiso   1.00
O1684  O     0.79509   0.95491   0.79375   0.00000  Uiso   1.00
O1685  O     0.70492   0.95491   0.79375   0.00000  Uiso   1.00
O1686  O     0.79509   0.54509   0.87291   0.00000  Uiso   1.00
O1687  O     0.79509   0.54509   0.79375   0.00000  Uiso   1.00
O1688  O     0.70492   0.95491   0.87291   0.00000  Uiso   1.00
C1689  C     0.55898   0.69005   0.83359   0.00000  Uiso   1.00
C1690  C     0.94101   0.80995   0.83306   0.00000  Uiso   1.00
C1691  C     0.94072   0.69036   0.83313   0.00000  Uiso   1.00
C1692  C     0.55902   0.80989   0.83359   0.00000  Uiso   1.00
C1693  C     0.80899   0.94005   0.83361   0.00000  Uiso   1.00
C1694  C     0.69102   0.55995   0.83308   0.00000  Uiso   1.00
C1695  C     0.69098   0.94011   0.83307   0.00000  Uiso   1.00
C1696  C     0.80928   0.55964   0.83353   0.00000  Uiso   1.00
H1697  H     0.99715   0.68117   0.71023   0.00000  Uiso   1.00
H1698  H     0.50147   0.81882   0.95646   0.00000  Uiso   1.00
H1699  H     0.50282   0.81883   0.71010   0.00000  Uiso   1.00
H1700  H     0.99666   0.68115   0.95654   0.00000  Uiso   1.00
H1701  H     0.74855   0.93117   0.71021   0.00000  Uiso   1.00
H1702  H     0.75283   0.56883   0.95643   0.00000  Uiso   1.00
H1703  H     0.75333   0.56885   0.71012   0.00000  Uiso   1.00
H1704  H     0.74722   0.93117   0.95656   0.00000  Uiso   1.00
N1705  N     0.50000   0.75000   0.95069   0.00000  Uiso   1.00
N1706  N     0.50000   0.75000   0.71598   0.00000  Uiso   1.00
N1707  N     0.75000   0.50000   0.95069   0.00000  Uiso   1.00
N1708  N     0.75000   0.50000   0.71598   0.00000  Uiso   1.00
Cu1709 Cu    0.50000   0.75000   0.88022   0.00000  Uiso   1.00
Cu1710 Cu    0.50000   0.75000   0.78645   0.00000  Uiso   1.00
Cu1711 Cu    0.75000   0.50000   0.88022   0.00000  Uiso   1.00
Cu1712 Cu    0.75000   0.50000   0.78645   0.00000  Uiso   1.00
C1713  C     0.99843   0.71175   0.69150   0.00000  Uiso   1.00
C1714  C     0.50105   0.78824   0.97517   0.00000  Uiso   1.00
C1715  C     0.50146   0.78823   0.69145   0.00000  Uiso   1.00
C1716  C     0.99828   0.71176   0.97521   0.00000  Uiso   1.00
C1717  C     0.74896   0.96176   0.69149   0.00000  Uiso   1.00
C1718  C     0.75156   0.53825   0.97517   0.00000  Uiso   1.00
C1719  C     0.75171   0.53824   0.69145   0.00000  Uiso   1.00
C1720  C     0.74855   0.96176   0.97522   0.00000  Uiso   1.00
C1721  C     0.87718   0.65462   0.79555   0.00000  Uiso   1.00
C1722  C     0.62021   0.84833   0.87311   0.00000  Uiso   1.00
C1723  C     0.59550   0.87205   0.79539   0.00000  Uiso   1.00
C1724  C     0.90639   0.62599   0.86963   0.00000  Uiso   1.00
C1725  C     0.61854   0.64987   0.87412   0.00000  Uiso   1.00
C1726  C     0.88078   0.84945   0.79292   0.00000  Uiso   1.00
C1727  C     0.90356   0.87109   0.87201   0.00000  Uiso   1.00
C1728  C     0.59713   0.62960   0.79416   0.00000  Uiso   1.00
C1729  C     0.62979   0.90167   0.79355   0.00000  Uiso   1.00
C1730  C     0.87283   0.59538   0.87112   0.00000  Uiso   1.00
C1731  C     0.84361   0.62401   0.79703   0.00000  Uiso   1.00
C1732  C     0.65450   0.87795   0.87128   0.00000  Uiso   1.00
C1733  C     0.86922   0.90055   0.87375   0.00000  Uiso   1.00
C1734  C     0.63146   0.60013   0.79255   0.00000  Uiso   1.00
C1735  C     0.65287   0.62040   0.87251   0.00000  Uiso   1.00
C1736  C     0.84644   0.87891   0.79466   0.00000  Uiso   1.00
C1737  C     0.59193   0.84393   0.83416   0.00000  Uiso   1.00
C1738  C     0.90761   0.65653   0.83274   0.00000  Uiso   1.00
C1739  C     0.90813   0.84402   0.83252   0.00000  Uiso   1.00
C1740  C     0.59187   0.65598   0.83409   0.00000  Uiso   1.00
C1741  C     0.84239   0.59346   0.83392   0.00000  Uiso   1.00
C1742  C     0.65807   0.90607   0.83251   0.00000  Uiso   1.00
C1743  C     0.65813   0.59402   0.83258   0.00000  Uiso   1.00
C1744  C     0.84187   0.90598   0.83415   0.00000  Uiso   1.00
O1745  O     0.87763   0.68569   0.76024   0.00000  Uiso   1.00
C1746  C     0.89308   0.66643   0.71877   0.00000  Uiso   1.00
H1747  H     0.92335   0.64735   0.72500   0.00000  Uiso   1.00
H1748  H     0.90078   0.69275   0.69349   0.00000  Uiso   1.00
H1749  H     0.86787   0.64548   0.70217   0.00000  Uiso   1.00
O1750  O     0.61630   0.82164   0.91199   0.00000  Uiso   1.00
C1751  C     0.59650   0.84580   0.94791   0.00000  Uiso   1.00
H1752  H     0.59134   0.82402   0.97841   0.00000  Uiso   1.00
H1753  H     0.56439   0.85876   0.93640   0.00000  Uiso   1.00
H1754  H     0.61736   0.87327   0.95980   0.00000  Uiso   1.00
O1755  O     0.56649   0.86981   0.75798   0.00000  Uiso   1.00
C1756  C     0.53234   0.89926   0.76602   0.00000  Uiso   1.00
H1757  H     0.51211   0.88804   0.79564   0.00000  Uiso   1.00
H1758  H     0.51128   0.90039   0.73421   0.00000  Uiso   1.00
H1759  H     0.54439   0.93301   0.77250   0.00000  Uiso   1.00
O1760  O     0.93711   0.62673   0.90548   0.00000  Uiso   1.00
C1761  C     0.97155   0.59889   0.89359   0.00000  Uiso   1.00
H1762  H     0.99279   0.59464   0.92494   0.00000  Uiso   1.00
H1763  H     0.99140   0.61374   0.86559   0.00000  Uiso   1.00
H1764  H     0.96010   0.56584   0.88287   0.00000  Uiso   1.00
O1765  O     0.61347   0.67516   0.91385   0.00000  Uiso   1.00
C1766  C     0.59180   0.65010   0.94786   0.00000  Uiso   1.00
H1767  H     0.55970   0.63864   0.93456   0.00000  Uiso   1.00
H1768  H     0.58622   0.67083   0.97904   0.00000  Uiso   1.00
H1769  H     0.61142   0.62166   0.95951   0.00000  Uiso   1.00
O1770  O     0.88538   0.82368   0.75348   0.00000  Uiso   1.00
C1771  C     0.90665   0.84840   0.71888   0.00000  Uiso   1.00
H1772  H     0.91201   0.82734   0.68790   0.00000  Uiso   1.00
H1773  H     0.93885   0.86017   0.73165   0.00000  Uiso   1.00
H1774  H     0.88679   0.87666   0.70717   0.00000  Uiso   1.00
O1775  O     0.93159   0.86792   0.91020   0.00000  Uiso   1.00
C1776  C     0.96576   0.89795   0.90425   0.00000  Uiso   1.00
H1777  H     0.98653   0.88827   0.87449   0.00000  Uiso   1.00
H1778  H     0.98635   0.89783   0.93645   0.00000  Uiso   1.00
H1779  H     0.95364   0.93186   0.89923   0.00000  Uiso   1.00
O1780  O     0.57001   0.63366   0.75529   0.00000  Uiso   1.00
C1781  C     0.53596   0.60316   0.75905   0.00000  Uiso   1.00
H1782  H     0.51708   0.60310   0.72567   0.00000  Uiso   1.00
H1783  H     0.51356   0.61263   0.78740   0.00000  Uiso   1.00
H1784  H     0.54810   0.56936   0.76481   0.00000  Uiso   1.00
O1785  O     0.63370   0.92837   0.75468   0.00000  Uiso   1.00
C1786  C     0.65350   0.90420   0.71876   0.00000  Uiso   1.00
H1787  H     0.68561   0.89126   0.73026   0.00000  Uiso   1.00
H1788  H     0.65865   0.92599   0.68826   0.00000  Uiso   1.00
H1789  H     0.63264   0.87673   0.70686   0.00000  Uiso   1.00
O1790  O     0.87238   0.56431   0.90643   0.00000  Uiso   1.00
C1791  C     0.85692   0.58356   0.94790   0.00000  Uiso   1.00
H1792  H     0.84922   0.55723   0.97317   0.00000  Uiso   1.00
H1793  H     0.82666   0.60264   0.94167   0.00000  Uiso   1.00
H1794  H     0.88214   0.60450   0.96450   0.00000  Uiso   1.00
O1795  O     0.81290   0.62326   0.76119   0.00000  Uiso   1.00
C1796  C     0.77846   0.65113   0.77306   0.00000  Uiso   1.00
H1797  H     0.75862   0.63631   0.80109   0.00000  Uiso   1.00
H1798  H     0.75721   0.65535   0.74172   0.00000  Uiso   1.00
H1799  H     0.78993   0.68418   0.78373   0.00000  Uiso   1.00
O1800  O     0.68350   0.88019   0.90869   0.00000  Uiso   1.00
C1801  C     0.71764   0.85073   0.90067   0.00000  Uiso   1.00
H1802  H     0.73868   0.84959   0.93250   0.00000  Uiso   1.00
H1803  H     0.73790   0.86194   0.87108   0.00000  Uiso   1.00
H1804  H     0.70558   0.81699   0.89418   0.00000  Uiso   1.00
O1805  O     0.86457   0.92628   0.91322   0.00000  Uiso   1.00
C1806  C     0.84328   0.90151   0.94777   0.00000  Uiso   1.00
H1807  H     0.81118   0.88956   0.93489   0.00000  Uiso   1.00
H1808  H     0.83771   0.92260   0.97868   0.00000  Uiso   1.00
H1809  H     0.86326   0.87338   0.95960   0.00000  Uiso   1.00
O1810  O     0.63653   0.57485   0.75281   0.00000  Uiso   1.00
C1811  C     0.65820   0.59991   0.71880   0.00000  Uiso   1.00
H1812  H     0.66376   0.57920   0.68761   0.00000  Uiso   1.00
H1813  H     0.69030   0.61135   0.73210   0.00000  Uiso   1.00
H1814  H     0.63858   0.62836   0.70718   0.00000  Uiso   1.00
O1815  O     0.67999   0.61634   0.91138   0.00000  Uiso   1.00
C1816  C     0.71403   0.64684   0.90762   0.00000  Uiso   1.00
H1817  H     0.73644   0.63737   0.87928   0.00000  Uiso   1.00
H1818  H     0.73291   0.64690   0.94101   0.00000  Uiso   1.00
H1819  H     0.70189   0.68063   0.90186   0.00000  Uiso   1.00
O1820  O     0.81840   0.88206   0.75648   0.00000  Uiso   1.00
C1821  C     0.78415   0.85213   0.76253   0.00000  Uiso   1.00
H1822  H     0.76363   0.85212   0.73028   0.00000  Uiso   1.00
H1823  H     0.76335   0.86203   0.79218   0.00000  Uiso   1.00
H1824  H     0.79619   0.81823   0.76780   0.00000  Uiso   1.00
loop_
_geom_bond_atom_site_label_1
_geom_bond_atom_site_label_2
_geom_bond_distance
_geom_bond_site_symmetry_2
_ccdc_geom_bond_type
O1     C17     1.290   .     A
O1     Cu37    1.976   .     S
O2     C18     1.290   .     A
O2     Cu190   1.976   .     S
O3     C18     1.292   .     A
O3     Cu189   1.972   .     S
O4     C17     1.292   .     A
O4     Cu38    1.972   .     S
O5     C19     1.290   .     A
O5     Cu190   1.972   .     S
O6     C20     1.289   .     A
O6     Cu37    1.972   .     S
O7     C20     1.292   .     A
O7     Cu38    1.968   .     S
O8     C19     1.290   .     A
O8     Cu189   1.968   .     S
O9     C21     1.290   .     A
O9     Cu343   1.976   .     S
O10    C22     1.290   .     A
O10    Cu40    1.976   .     S
O11    Cu39    1.972   .     S
O11    C22     1.292   .     A
O12    C21     1.292   .     A
O12    Cu344   1.972   .     S
O13    C23     1.289   .     A
O13    Cu344   1.972   .     S
O14    C24     1.290   .     A
O14    Cu39    1.972   .     S
O15    C24     1.290   .     A
O15    Cu40    1.968   .     S
O16    C23     1.292   .     A
O16    Cu343   1.968   .     S
C17    C68     1.457   .     S
C18    C67     1.457   .     S
C19    C66     1.454   .     S
C20    C65     1.454   .     S
C21    C72     1.457   .     S
C22    C71     1.457   .     S
C23    C70     1.454   .     S
C24    C69     1.454   .     S
H25    C41     1.080   .     S
H26    C42     1.079   .     S
H27    C43     1.080   .     S
H28    C44     1.080   .     S
H29    C45     1.079   .     S
H30    C46     1.080   .     S
H31    C47     1.080   .     S
H32    C48     1.080   .     S
N33    Cu37    2.010   .     S
N33    C196    1.366   1_455 A
N33    C42     1.365   .     S
N34    Cu38    2.010   .     S
N34    C43     1.366   .     A
N34    C193    1.366   1_455 S
N35    Cu39    2.010   .     S
N35    C46     1.366   .     A
N35    C352    1.366   1_545 S
N36    C47     1.366   .     A
N36    Cu40    2.010   .     S
N36    C349    1.366   1_545 S
Cu37   O155    1.972   1_455 S
Cu37   O160    1.968   1_455 S
Cu37   Cu38    2.674   .     S
Cu38   O157    1.972   1_455 S
Cu38   O154    1.976   1_455 S
Cu39   Cu40    2.674   .     S
Cu39   O320    1.968   1_545 S
Cu39   O313    1.976   1_545 S
Cu40   O317    1.972   1_545 S
Cu40   O316    1.972   1_545 S
C41    N186    1.366   .     S
C41    C1260   1.415   1_554 S
C42    C651    1.415   .     S
C43    C1258   1.415   1_554 S
C44    N185    1.366   .     A
C44    C649    1.415   .     S
C45    N340    1.366   .     S
C45    C1264   1.415   1_554 S
C46    C655    1.415   .     S
C47    C1262   1.415   1_554 S
C48    C653    1.415   .     S
C48    N339    1.366   .     S
C49    C66     1.408   .     A
C49    O73     1.386   .     S
C49    C59     1.397   .     A
C50    O78     1.384   .     S
C50    C65     1.409   .     A
C50    C60     1.394   .     A
C51    C65     1.407   .     A
C51    C57     1.394   .     A
C51    O83     1.384   .     S
C52    C58     1.397   .     A
C52    C66     1.409   .     A
C52    O88     1.384   .     S
C53    C63     1.395   .     A
C53    C68     1.410   .     A
C53    O93     1.385   .     S
C54    C67     1.410   .     A
C54    C64     1.395   .     A
C54    O98     1.384   .     S
C55    O103    1.385   .     S
C55    C67     1.409   .     A
C55    C61     1.395   .     A
C56    O108    1.385   .     S
C56    C68     1.409   .     A
C56    C62     1.395   .     A
C57    C70     1.409   .     A
C57    O113    1.384   .     S
C58    O118    1.386   .     S
C58    C69     1.408   .     A
C59    O123    1.384   .     S
C59    C69     1.409   .     A
C60    O128    1.384   .     S
C60    C70     1.407   .     A
C61    O133    1.384   .     S
C61    C72     1.410   .     A
C62    O138    1.385   .     S
C62    C71     1.410   .     A
C63    C71     1.409   .     A
C63    O143    1.385   .     S
C64    O148    1.385   .     S
C64    C72     1.409   .     A
O73    C74     1.412   .     S
C74    H76     1.109   .     S
C74    H77     1.109   .     S
C74    H75     1.115   .     S
O78    C79     1.412   .     S
C79    H81     1.113   .     S
C79    H82     1.110   .     S
C79    H80     1.109   .     S
O83    C84     1.410   .     S
C84    H87     1.114   .     S
C84    H86     1.109   .     S
C84    H85     1.111   .     S
O88    C89     1.410   .     S
C89    H91     1.110   .     S
C89    H92     1.114   .     S
C89    H90     1.109   .     S
O93    C94     1.412   .     S
C94    H97     1.111   .     S
C94    H96     1.109   .     S
C94    H95     1.112   .     S
O98    C99     1.412   .     S
C99    H100    1.109   .     S
C99    H101    1.112   .     S
C99    H102    1.110   .     S
O103   C104    1.410   .     S
C104   H106    1.109   .     S
C104   H105    1.111   .     S
C104   H107    1.114   .     S
O108   C109    1.410   .     S
C109   H111    1.110   .     S
C109   H112    1.114   .     S
C109   H110    1.109   .     S
O113   C114    1.412   .     S
C114   H115    1.113   .     S
C114   H116    1.109   .     S
C114   H117    1.110   .     S
O118   C119    1.412   .     S
C119   H121    1.115   .     S
C119   H122    1.109   .     S
C119   H120    1.109   .     S
O123   C124    1.410   .     S
C124   H127    1.114   .     S
C124   H126    1.109   .     S
C124   H125    1.110   .     S
O128   C129    1.410   .     S
C129   H132    1.114   .     S
C129   H130    1.109   .     S
C129   H131    1.111   .     S
O133   C134    1.412   .     S
C134   H137    1.111   .     S
C134   H136    1.110   .     S
C134   H135    1.113   .     S
O138   C139    1.412   .     S
C139   H142    1.110   .     S
C139   H140    1.109   .     S
C139   H141    1.112   .     S
O143   C144    1.410   .     S
C144   H147    1.114   .     S
C144   H146    1.109   .     S
C144   H145    1.110   .     S
O148   C149    1.410   .     S
C149   H152    1.114   .     S
C149   H151    1.111   .     S
C149   H150    1.109   .     S
O153   C169    1.290   .     A
O153   Cu189   1.976   .     S
O154   C170    1.290   .     A
O154   Cu38    1.976   1_655 S
O155   C170    1.292   .     A
O155   Cu37    1.972   1_655 S
O156   C169    1.292   .     A
O156   Cu190   1.972   .     S
O157   C171    1.290   .     A
O157   Cu38    1.972   1_655 S
O158   C172    1.289   .     A
O158   Cu189   1.972   .     S
O159   C172    1.292   .     A
O159   Cu190   1.968   .     S
O160   C171    1.290   .     A
O160   Cu37    1.968   1_655 S
O161   C173    1.290   .     A
O161   Cu495   1.976   .     S
O162   C174    1.290   .     A
O162   Cu192   1.976   .     S
O163   Cu191   1.972   .     S
O163   C174    1.292   .     A
O164   C173    1.292   .     A
O164   Cu496   1.972   .     S
O165   C175    1.289   .     A
O165   Cu496   1.972   .     S
O166   C176    1.290   .     A
O166   Cu191   1.972   .     S
O167   C176    1.290   .     A
O167   Cu192   1.968   .     S
O168   C175    1.292   .     A
O168   Cu495   1.968   .     S
C169   C220    1.457   .     S
C170   C219    1.457   .     S
C171   C218    1.454   .     S
C172   C217    1.454   .     S
C173   C224    1.457   .     S
C174   C223    1.457   .     S
C175   C222    1.454   .     S
C176   C221    1.454   .     S
H177   C193    1.080   .     S
H178   C194    1.079   .     S
H179   C195    1.080   .     S
H180   C196    1.080   .     S
H181   C197    1.079   .     S
H182   C198    1.080   .     S
H183   C199    1.080   .     S
H184   C200    1.080   .     S
N185   Cu189   2.010   .     S
N185   C194    1.365   .     S
N186   Cu190   2.010   .     S
N186   C195    1.366   .     A
N187   Cu191   2.010   .     S
N187   C198    1.366   .     A
N187   C504    1.366   1_545 S
N188   C199    1.366   .     A
N188   Cu192   2.010   .     S
N188   C501    1.366   1_545 S
Cu189  Cu190   2.674   .     S
Cu191  Cu192   2.674   .     S
Cu191  O472    1.968   1_545 S
Cu191  O465    1.976   1_545 S
Cu192  O469    1.972   1_545 S
Cu192  O468    1.972   1_545 S
C193   N34     1.366   1_655 S
C193   C1412   1.415   1_554 S
C194   C803    1.415   .     S
C195   C1410   1.415   1_554 S
C196   N33     1.366   1_655 A
C196   C801    1.415   .     S
C197   N492    1.366   .     S
C197   C1416   1.415   1_554 S
C198   C807    1.415   .     S
C199   C1414   1.415   1_554 S
C200   C805    1.415   .     S
C200   N491    1.366   .     S
C201   C218    1.408   .     A
C201   O225    1.386   .     S
C201   C211    1.397   .     A
C202   O230    1.384   .     S
C202   C217    1.409   .     A
C202   C212    1.394   .     A
C203   C217    1.407   .     A
C203   C209    1.394   .     A
C203   O235    1.384   .     S
C204   C210    1.397   .     A
C204   C218    1.409   .     A
C204   O240    1.384   .     S
C205   C215    1.395   .     A
C205   C220    1.410   .     A
C205   O245    1.385   .     S
C206   C219    1.410   .     A
C206   C216    1.395   .     A
C206   O250    1.384   .     S
C207   O255    1.385   .     S
C207   C219    1.409   .     A
C207   C213    1.395   .     A
C208   O260    1.385   .     S
C208   C220    1.409   .     A
C208   C214    1.395   .     A
C209   C222    1.409   .     A
C209   O265    1.384   .     S
C210   O270    1.386   .     S
C210   C221    1.408   .     A
C211   O275    1.384   .     S
C211   C221    1.409   .     A
C212   O280    1.384   .     S
C212   C222    1.407   .     A
C213   O285    1.384   .     S
C213   C224    1.410   .     A
C214   O290    1.385   .     S
C214   C223    1.410   .     A
C215   C223    1.409   .     A
C215   O295    1.385   .     S
C216   O300    1.385   .     S
C216   C224    1.409   .     A
O225   C226    1.412   .     S
C226   H228    1.109   .     S
C226   H229    1.109   .     S
C226   H227    1.115   .     S
O230   C231    1.412   .     S
C231   H233    1.113   .     S
C231   H234    1.110   .     S
C231   H232    1.109   .     S
O235   C236    1.410   .     S
C236   H239    1.114   .     S
C236   H238    1.109   .     S
C236   H237    1.111   .     S
O240   C241    1.410   .     S
C241   H243    1.110   .     S
C241   H244    1.114   .     S
C241   H242    1.109   .     S
O245   C246    1.412   .     S
C246   H249    1.111   .     S
C246   H248    1.109   .     S
C246   H247    1.112   .     S
O250   C251    1.412   .     S
C251   H252    1.109   .     S
C251   H253    1.112   .     S
C251   H254    1.110   .     S
O255   C256    1.410   .     S
C256   H258    1.109   .     S
C256   H257    1.111   .     S
C256   H259    1.114   .     S
O260   C261    1.410   .     S
C261   H263    1.110   .     S
C261   H264    1.114   .     S
C261   H262    1.109   .     S
O265   C266    1.412   .     S
C266   H267    1.113   .     S
C266   H268    1.109   .     S
C266   H269    1.110   .     S
O270   C271    1.412   .     S
C271   H273    1.115   .     S
C271   H274    1.109   .     S
C271   H272    1.109   .     S
O275   C276    1.410   .     S
C276   H279    1.114   .     S
C276   H278    1.109   .     S
C276   H277    1.110   .     S
O280   C281    1.410   .     S
C281   H284    1.114   .     S
C281   H282    1.109   .     S
C281   H283    1.111   .     S
O285   C286    1.412   .     S
C286   H289    1.111   .     S
C286   H288    1.110   .     S
C286   H287    1.113   .     S
O290   C291    1.412   .     S
C291   H294    1.110   .     S
C291   H292    1.109   .     S
C291   H293    1.112   .     S
O295   C296    1.410   .     S
C296   H299    1.114   .     S
C296   H298    1.109   .     S
C296   H297    1.110   .     S
O300   C301    1.410   .     S
C301   H304    1.114   .     S
C301   H303    1.111   .     S
C301   H302    1.109   .     S
O305   C321    1.290   .     A
O305   Cu341   1.976   .     S
O306   C322    1.290   .     A
O306   Cu494   1.976   .     S
O307   C322    1.292   .     A
O307   Cu493   1.972   .     S
O308   C321    1.292   .     A
O308   Cu342   1.972   .     S
O309   C323    1.290   .     A
O309   Cu494   1.972   .     S
O310   C324    1.289   .     A
O310   Cu341   1.972   .     S
O311   C324    1.292   .     A
O311   Cu342   1.968   .     S
O312   C323    1.290   .     A
O312   Cu493   1.968   .     S
O313   C325    1.290   .     A
O313   Cu39    1.976   1_565 S
O314   C326    1.290   .     A
O314   Cu344   1.976   .     S
O315   Cu343   1.972   .     S
O315   C326    1.292   .     A
O316   C325    1.292   .     A
O316   Cu40    1.972   1_565 S
O317   C327    1.289   .     A
O317   Cu40    1.972   1_565 S
O318   C328    1.290   .     A
O318   Cu343   1.972   .     S
O319   C328    1.290   .     A
O319   Cu344   1.968   .     S
O320   C327    1.292   .     A
O320   Cu39    1.968   1_565 S
C321   C372    1.457   .     S
C322   C371    1.457   .     S
C323   C370    1.454   .     S
C324   C369    1.454   .     S
C325   C376    1.457   .     S
C326   C375    1.457   .     S
C327   C374    1.454   .     S
C328   C373    1.454   .     S
H329   C345    1.080   .     S
H330   C346    1.079   .     S
H331   C347    1.080   .     S
H332   C348    1.080   .     S
H333   C349    1.079   .     S
H334   C350    1.080   .     S
H335   C351    1.080   .     S
H336   C352    1.080   .     S
N337   Cu341   2.010   .     S
N337   C500    1.366   1_455 A
N337   C346    1.365   .     S
N338   Cu342   2.010   .     S
N338   C347    1.366   .     A
N338   C497    1.366   1_455 S
N339   Cu343   2.010   .     S
N339   C350    1.366   .     A
N340   C351    1.366   .     A
N340   Cu344   2.010   .     S
Cu341  O459    1.972   1_455 S
Cu341  O464    1.968   1_455 S
Cu341  Cu342   2.674   .     S
Cu342  O461    1.972   1_455 S
Cu342  O458    1.976   1_455 S
Cu343  Cu344   2.674   .     S
C345   N490    1.366   .     S
C345   C1564   1.415   1_554 S
C346   C955    1.415   .     S
C347   C1562   1.415   1_554 S
C348   N489    1.366   .     A
C348   C953    1.415   .     S
C349   N36     1.366   1_565 S
C349   C1568   1.415   1_554 S
C350   C959    1.415   .     S
C351   C1566   1.415   1_554 S
C352   C957    1.415   .     S
C352   N35     1.366   1_565 S
C353   C370    1.408   .     A
C353   O377    1.386   .     S
C353   C363    1.397   .     A
C354   O382    1.384   .     S
C354   C369    1.409   .     A
C354   C364    1.394   .     A
C355   C369    1.407   .     A
C355   C361    1.394   .     A
C355   O387    1.384   .     S
C356   C362    1.397   .     A
C356   C370    1.409   .     A
C356   O392    1.384   .     S
C357   C367    1.395   .     A
C357   C372    1.410   .     A
C357   O397    1.385   .     S
C358   C371    1.410   .     A
C358   C368    1.395   .     A
C358   O402    1.384   .     S
C359   O407    1.385   .     S
C359   C371    1.409   .     A
C359   C365    1.395   .     A
C360   O412    1.385   .     S
C360   C372    1.409   .     A
C360   C366    1.395   .     A
C361   C374    1.409   .     A
C361   O417    1.384   .     S
C362   O422    1.386   .     S
C362   C373    1.408   .     A
C363   O427    1.384   .     S
C363   C373    1.409   .     A
C364   O432    1.384   .     S
C364   C374    1.407   .     A
C365   O437    1.384   .     S
C365   C376    1.410   .     A
C366   O442    1.385   .     S
C366   C375    1.410   .     A
C367   C375    1.409   .     A
C367   O447    1.385   .     S
C368   O452    1.385   .     S
C368   C376    1.409   .     A
O377   C378    1.412   .     S
C378   H380    1.109   .     S
C378   H381    1.109   .     S
C378   H379    1.115   .     S
O382   C383    1.412   .     S
C383   H385    1.113   .     S
C383   H386    1.110   .     S
C383   H384    1.109   .     S
O387   C388    1.410   .     S
C388   H391    1.114   .     S
C388   H390    1.109   .     S
C388   H389    1.111   .     S
O392   C393    1.410   .     S
C393   H395    1.110   .     S
C393   H396    1.114   .     S
C393   H394    1.109   .     S
O397   C398    1.412   .     S
C398   H401    1.111   .     S
C398   H400    1.109   .     S
C398   H399    1.112   .     S
O402   C403    1.412   .     S
C403   H404    1.109   .     S
C403   H405    1.112   .     S
C403   H406    1.110   .     S
O407   C408    1.410   .     S
C408   H410    1.109   .     S
C408   H409    1.111   .     S
C408   H411    1.114   .     S
O412   C413    1.410   .     S
C413   H415    1.110   .     S
C413   H416    1.114   .     S
C413   H414    1.109   .     S
O417   C418    1.412   .     S
C418   H419    1.113   .     S
C418   H420    1.109   .     S
C418   H421    1.110   .     S
O422   C423    1.412   .     S
C423   H425    1.115   .     S
C423   H426    1.109   .     S
C423   H424    1.109   .     S
O427   C428    1.410   .     S
C428   H431    1.114   .     S
C428   H430    1.109   .     S
C428   H429    1.110   .     S
O432   C433    1.410   .     S
C433   H436    1.114   .     S
C433   H434    1.109   .     S
C433   H435    1.111   .     S
O437   C438    1.412   .     S
C438   H441    1.111   .     S
C438   H440    1.110   .     S
C438   H439    1.113   .     S
O442   C443    1.412   .     S
C443   H446    1.110   .     S
C443   H444    1.109   .     S
C443   H445    1.112   .     S
O447   C448    1.410   .     S
C448   H451    1.114   .     S
C448   H450    1.109   .     S
C448   H449    1.110   .     S
O452   C453    1.410   .     S
C453   H456    1.114   .     S
C453   H455    1.111   .     S
C453   H454    1.109   .     S
O457   C473    1.290   .     A
O457   Cu493   1.976   .     S
O458   C474    1.290   .     A
O458   Cu342   1.976   1_655 S
O459   C474    1.292   .     A
O459   Cu341   1.972   1_655 S
O460   C473    1.292   .     A
O460   Cu494   1.972   .     S
O461   C475    1.290   .     A
O461   Cu342   1.972   1_655 S
O462   C476    1.289   .     A
O462   Cu493   1.972   .     S
O463   C476    1.292   .     A
O463   Cu494   1.968   .     S
O464   C475    1.290   .     A
O464   Cu341   1.968   1_655 S
O465   C477    1.290   .     A
O465   Cu191   1.976   1_565 S
O466   C478    1.290   .     A
O466   Cu496   1.976   .     S
O467   Cu495   1.972   .     S
O467   C478    1.292   .     A
O468   C477    1.292   .     A
O468   Cu192   1.972   1_565 S
O469   C479    1.289   .     A
O469   Cu192   1.972   1_565 S
O470   C480    1.290   .     A
O470   Cu495   1.972   .     S
O471   C480    1.290   .     A
O471   Cu496   1.968   .     S
O472   C479    1.292   .     A
O472   Cu191   1.968   1_565 S
C473   C524    1.457   .     S
C474   C523    1.457   .     S
C475   C522    1.454   .     S
C476   C521    1.454   .     S
C477   C528    1.457   .     S
C478   C527    1.457   .     S
C479   C526    1.454   .     S
C480   C525    1.454   .     S
H481   C497    1.080   .     S
H482   C498    1.079   .     S
H483   C499    1.080   .     S
H484   C500    1.080   .     S
H485   C501    1.079   .     S
H486   C502    1.080   .     S
H487   C503    1.080   .     S
H488   C504    1.080   .     S
N489   Cu493   2.010   .     S
N489   C498    1.365   .     S
N490   Cu494   2.010   .     S
N490   C499    1.366   .     A
N491   Cu495   2.010   .     S
N491   C502    1.366   .     A
N492   C503    1.366   .     A
N492   Cu496   2.010   .     S
Cu493  Cu494   2.674   .     S
Cu495  Cu496   2.674   .     S
C497   N338    1.366   1_655 S
C497   C1716   1.415   1_554 S
C498   C1107   1.415   .     S
C499   C1714   1.415   1_554 S
C500   N337    1.366   1_655 A
C500   C1105   1.415   .     S
C501   N188    1.366   1_565 S
C501   C1720   1.415   1_554 S
C502   C1111   1.415   .     S
C503   C1718   1.415   1_554 S
C504   C1109   1.415   .     S
C504   N187    1.366   1_565 S
C505   C522    1.408   .     A
C505   O529    1.386   .     S
C505   C515    1.397   .     A
C506   O534    1.384   .     S
C506   C521    1.409   .     A
C506   C516    1.394   .     A
C507   C521    1.407   .     A
C507   C513    1.394   .     A
C507   O539    1.384   .     S
C508   C514    1.397   .     A
C508   C522    1.409   .     A
C508   O544    1.384   .     S
C509   C519    1.395   .     A
C509   C524    1.410   .     A
C509   O549    1.385   .     S
C510   C523    1.410   .     A
C510   C520    1.395   .     A
C510   O554    1.384   .     S
C511   O559    1.385   .     S
C511   C523    1.409   .     A
C511   C517    1.395   .     A
C512   O564    1.385   .     S
C512   C524    1.409   .     A
C512   C518    1.395   .     A
C513   C526    1.409   .     A
C513   O569    1.384   .     S
C514   O574    1.386   .     S
C514   C525    1.408   .     A
C515   O579    1.384   .     S
C515   C525    1.409   .     A
C516   O584    1.384   .     S
C516   C526    1.407   .     A
C517   O589    1.384   .     S
C517   C528    1.410   .     A
C518   O594    1.385   .     S
C518   C527    1.410   .     A
C519   C527    1.409   .     A
C519   O599    1.385   .     S
C520   O604    1.385   .     S
C520   C528    1.409   .     A
O529   C530    1.412   .     S
C530   H532    1.109   .     S
C530   H533    1.109   .     S
C530   H531    1.115   .     S
O534   C535    1.412   .     S
C535   H537    1.113   .     S
C535   H538    1.110   .     S
C535   H536    1.109   .     S
O539   C540    1.410   .     S
C540   H543    1.114   .     S
C540   H542    1.109   .     S
C540   H541    1.111   .     S
O544   C545    1.410   .     S
C545   H547    1.110   .     S
C545   H548    1.114   .     S
C545   H546    1.109   .     S
O549   C550    1.412   .     S
C550   H553    1.111   .     S
C550   H552    1.109   .     S
C550   H551    1.112   .     S
O554   C555    1.412   .     S
C555   H556    1.109   .     S
C555   H557    1.112   .     S
C555   H558    1.110   .     S
O559   C560    1.410   .     S
C560   H562    1.109   .     S
C560   H561    1.111   .     S
C560   H563    1.114   .     S
O564   C565    1.410   .     S
C565   H567    1.110   .     S
C565   H568    1.114   .     S
C565   H566    1.109   .     S
O569   C570    1.412   .     S
C570   H571    1.113   .     S
C570   H572    1.109   .     S
C570   H573    1.110   .     S
O574   C575    1.412   .     S
C575   H577    1.115   .     S
C575   H578    1.109   .     S
C575   H576    1.109   .     S
O579   C580    1.410   .     S
C580   H583    1.114   .     S
C580   H582    1.109   .     S
C580   H581    1.110   .     S
O584   C585    1.410   .     S
C585   H588    1.114   .     S
C585   H586    1.109   .     S
C585   H587    1.111   .     S
O589   C590    1.412   .     S
C590   H593    1.111   .     S
C590   H592    1.110   .     S
C590   H591    1.113   .     S
O594   C595    1.412   .     S
C595   H598    1.110   .     S
C595   H596    1.109   .     S
C595   H597    1.112   .     S
O599   C600    1.410   .     S
C600   H603    1.114   .     S
C600   H602    1.109   .     S
C600   H601    1.110   .     S
O604   C605    1.410   .     S
C605   H608    1.114   .     S
C605   H607    1.111   .     S
C605   H606    1.109   .     S
O609   C625    1.290   .     A
O609   Cu645   1.976   .     S
O610   C626    1.290   .     A
O610   Cu798   1.976   .     S
O611   C626    1.292   .     A
O611   Cu797   1.972   .     S
O612   C625    1.292   .     A
O612   Cu646   1.972   .     S
O613   C627    1.290   .     A
O613   Cu798   1.972   .     S
O614   C628    1.289   .     A
O614   Cu645   1.972   .     S
O615   C628    1.292   .     A
O615   Cu646   1.968   .     S
O616   C627    1.290   .     A
O616   Cu797   1.968   .     S
O617   C629    1.290   .     A
O617   Cu951   1.976   .     S
O618   C630    1.290   .     A
O618   Cu648   1.976   .     S
O619   Cu647   1.972   .     S
O619   C630    1.292   .     A
O620   C629    1.292   .     A
O620   Cu952   1.972   .     S
O621   C631    1.289   .     A
O621   Cu952   1.972   .     S
O622   C632    1.290   .     A
O622   Cu647   1.972   .     S
O623   C632    1.290   .     A
O623   Cu648   1.968   .     S
O624   C631    1.292   .     A
O624   Cu951   1.968   .     S
C625   C676    1.457   .     S
C626   C675    1.457   .     S
C627   C674    1.454   .     S
C628   C673    1.454   .     S
C629   C680    1.457   .     S
C630   C679    1.457   .     S
C631   C678    1.454   .     S
C632   C677    1.454   .     S
H633   C649    1.080   .     S
H634   C650    1.079   .     S
H635   C651    1.080   .     S
H636   C652    1.080   .     S
H637   C653    1.079   .     S
H638   C654    1.080   .     S
H639   C655    1.080   .     S
H640   C656    1.080   .     S
N641   Cu645   2.010   .     S
N641   C804    1.366   1_455 A
N641   C650    1.365   .     S
N642   Cu646   2.010   .     S
N642   C651    1.366   .     A
N642   C801    1.366   1_455 S
N643   Cu647   2.010   .     S
N643   C654    1.366   .     A
N643   C960    1.366   1_545 S
N644   C655    1.366   .     A
N644   Cu648   2.010   .     S
N644   C957    1.366   1_545 S
Cu645  O763    1.972   1_455 S
Cu645  O768    1.968   1_455 S
Cu645  Cu646   2.674   .     S
Cu646  O765    1.972   1_455 S
Cu646  O762    1.976   1_455 S
Cu647  Cu648   2.674   .     S
Cu647  O928    1.968   1_545 S
Cu647  O921    1.976   1_545 S
Cu648  O925    1.972   1_545 S
Cu648  O924    1.972   1_545 S
C649   N794    1.366   .     S
C650   C1259   1.415   .     S
C652   N793    1.366   .     A
C652   C1257   1.415   .     S
C653   N948    1.366   .     S
C654   C1263   1.415   .     S
C656   C1261   1.415   .     S
C656   N947    1.366   .     S
C657   C674    1.408   .     A
C657   O681    1.386   .     S
C657   C667    1.397   .     A
C658   O686    1.384   .     S
C658   C673    1.409   .     A
C658   C668    1.394   .     A
C659   C673    1.407   .     A
C659   C665    1.394   .     A
C659   O691    1.384   .     S
C660   C666    1.397   .     A
C660   C674    1.409   .     A
C660   O696    1.384   .     S
C661   C671    1.395   .     A
C661   C676    1.410   .     A
C661   O701    1.385   .     S
C662   C675    1.410   .     A
C662   C672    1.395   .     A
C662   O706    1.384   .     S
C663   O711    1.385   .     S
C663   C675    1.409   .     A
C663   C669    1.395   .     A
C664   O716    1.385   .     S
C664   C676    1.409   .     A
C664   C670    1.395   .     A
C665   C678    1.409   .     A
C665   O721    1.384   .     S
C666   O726    1.386   .     S
C666   C677    1.408   .     A
C667   O731    1.384   .     S
C667   C677    1.409   .     A
C668   O736    1.384   .     S
C668   C678    1.407   .     A
C669   O741    1.384   .     S
C669   C680    1.410   .     A
C670   O746    1.385   .     S
C670   C679    1.410   .     A
C671   C679    1.409   .     A
C671   O751    1.385   .     S
C672   O756    1.385   .     S
C672   C680    1.409   .     A
O681   C682    1.412   .     S
C682   H684    1.109   .     S
C682   H685    1.109   .     S
C682   H683    1.115   .     S
O686   C687    1.412   .     S
C687   H689    1.113   .     S
C687   H690    1.110   .     S
C687   H688    1.109   .     S
O691   C692    1.410   .     S
C692   H695    1.114   .     S
C692   H694    1.109   .     S
C692   H693    1.111   .     S
O696   C697    1.410   .     S
C697   H699    1.110   .     S
C697   H700    1.114   .     S
C697   H698    1.109   .     S
O701   C702    1.412   .     S
C702   H705    1.111   .     S
C702   H704    1.109   .     S
C702   H703    1.112   .     S
O706   C707    1.412   .     S
C707   H708    1.109   .     S
C707   H709    1.112   .     S
C707   H710    1.110   .     S
O711   C712    1.410   .     S
C712   H714    1.109   .     S
C712   H713    1.111   .     S
C712   H715    1.114   .     S
O716   C717    1.410   .     S
C717   H719    1.110   .     S
C717   H720    1.114   .     S
C717   H718    1.109   .     S
O721   C722    1.412   .     S
C722   H723    1.113   .     S
C722   H724    1.109   .     S
C722   H725    1.110   .     S
O726   C727    1.412   .     S
C727   H729    1.115   .     S
C727   H730    1.109   .     S
C727   H728    1.109   .     S
O731   C732    1.410   .     S
C732   H735    1.114   .     S
C732   H734    1.109   .     S
C732   H733    1.110   .     S
O736   C737    1.410   .     S
C737   H740    1.114   .     S
C737   H738    1.109   .     S
C737   H739    1.111   .     S
O741   C742    1.412   .     S
C742   H745    1.111   .     S
C742   H744    1.110   .     S
C742   H743    1.113   .     S
O746   C747    1.412   .     S
C747   H750    1.110   .     S
C747   H748    1.109   .     S
C747   H749    1.112   .     S
O751   C752    1.410   .     S
C752   H755    1.114   .     S
C752   H754    1.109   .     S
C752   H753    1.110   .     S
O756   C757    1.410   .     S
C757   H760    1.114   .     S
C757   H759    1.111   .     S
C757   H758    1.109   .     S
O761   C777    1.290   .     A
O761   Cu797   1.976   .     S
O762   C778    1.290   .     A
O762   Cu646   1.976   1_655 S
O763   C778    1.292   .     A
O763   Cu645   1.972   1_655 S
O764   C777    1.292   .     A
O764   Cu798   1.972   .     S
O765   C779    1.290   .     A
O765   Cu646   1.972   1_655 S
O766   C780    1.289   .     A
O766   Cu797   1.972   .     S
O767   C780    1.292   .     A
O767   Cu798   1.968   .     S
O768   C779    1.290   .     A
O768   Cu645   1.968   1_655 S
O769   C781    1.290   .     A
O769   Cu1103  1.976   .     S
O770   C782    1.290   .     A
O770   Cu800   1.976   .     S
O771   Cu799   1.972   .     S
O771   C782    1.292   .     A
O772   C781    1.292   .     A
O772   Cu1104  1.972   .     S
O773   C783    1.289   .     A
O773   Cu1104  1.972   .     S
O774   C784    1.290   .     A
O774   Cu799   1.972   .     S
O775   C784    1.290   .     A
O775   Cu800   1.968   .     S
O776   C783    1.292   .     A
O776   Cu1103  1.968   .     S
C777   C828    1.457   .     S
C778   C827    1.457   .     S
C779   C826    1.454   .     S
C780   C825    1.454   .     S
C781   C832    1.457   .     S
C782   C831    1.457   .     S
C783   C830    1.454   .     S
C784   C829    1.454   .     S
H785   C801    1.080   .     S
H786   C802    1.079   .     S
H787   C803    1.080   .     S
H788   C804    1.080   .     S
H789   C805    1.079   .     S
H790   C806    1.080   .     S
H791   C807    1.080   .     S
H792   C808    1.080   .     S
N793   Cu797   2.010   .     S
N793   C802    1.365   .     S
N794   Cu798   2.010   .     S
N794   C803    1.366   .     A
N795   Cu799   2.010   .     S
N795   C806    1.366   .     A
N795   C1112   1.366   1_545 S
N796   C807    1.366   .     A
N796   Cu800   2.010   .     S
N796   C1109   1.366   1_545 S
Cu797  Cu798   2.674   .     S
Cu799  Cu800   2.674   .     S
Cu799  O1080   1.968   1_545 S
Cu799  O1073   1.976   1_545 S
Cu800  O1077   1.972   1_545 S
Cu800  O1076   1.972   1_545 S
C801   N642    1.366   1_655 S
C802   C1411   1.415   .     S
C804   N641    1.366   1_655 A
C804   C1409   1.415   .     S
C805   N1100   1.366   .     S
C806   C1415   1.415   .     S
C808   C1413   1.415   .     S
C808   N1099   1.366   .     S
C809   C826    1.408   .     A
C809   O833    1.386   .     S
C809   C819    1.397   .     A
C810   O838    1.384   .     S
C810   C825    1.409   .     A
C810   C820    1.394   .     A
C811   C825    1.407   .     A
C811   C817    1.394   .     A
C811   O843    1.384   .     S
C812   C818    1.397   .     A
C812   C826    1.409   .     A
C812   O848    1.384   .     S
C813   C823    1.395   .     A
C813   C828    1.410   .     A
C813   O853    1.385   .     S
C814   C827    1.410   .     A
C814   C824    1.395   .     A
C814   O858    1.384   .     S
C815   O863    1.385   .     S
C815   C827    1.409   .     A
C815   C821    1.395   .     A
C816   O868    1.385   .     S
C816   C828    1.409   .     A
C816   C822    1.395   .     A
C817   C830    1.409   .     A
C817   O873    1.384   .     S
C818   O878    1.386   .     S
C818   C829    1.408   .     A
C819   O883    1.384   .     S
C819   C829    1.409   .     A
C820   O888    1.384   .     S
C820   C830    1.407   .     A
C821   O893    1.384   .     S
C821   C832    1.410   .     A
C822   O898    1.385   .     S
C822   C831    1.410   .     A
C823   C831    1.409   .     A
C823   O903    1.385   .     S
C824   O908    1.385   .     S
C824   C832    1.409   .     A
O833   C834    1.412   .     S
C834   H836    1.109   .     S
C834   H837    1.109   .     S
C834   H835    1.115   .     S
O838   C839    1.412   .     S
C839   H841    1.113   .     S
C839   H842    1.110   .     S
C839   H840    1.109   .     S
O843   C844    1.410   .     S
C844   H847    1.114   .     S
C844   H846    1.109   .     S
C844   H845    1.111   .     S
O848   C849    1.410   .     S
C849   H851    1.110   .     S
C849   H852    1.114   .     S
C849   H850    1.109   .     S
O853   C854    1.412   .     S
C854   H857    1.111   .     S
C854   H856    1.109   .     S
C854   H855    1.112   .     S
O858   C859    1.412   .     S
C859   H860    1.109   .     S
C859   H861    1.112   .     S
C859   H862    1.110   .     S
O863   C864    1.410   .     S
C864   H866    1.109   .     S
C864   H865    1.111   .     S
C864   H867    1.114   .     S
O868   C869    1.410   .     S
C869   H871    1.110   .     S
C869   H872    1.114   .     S
C869   H870    1.109   .     S
O873   C874    1.412   .     S
C874   H875    1.113   .     S
C874   H876    1.109   .     S
C874   H877    1.110   .     S
O878   C879    1.412   .     S
C879   H881    1.115   .     S
C879   H882    1.109   .     S
C879   H880    1.109   .     S
O883   C884    1.410   .     S
C884   H887    1.114   .     S
C884   H886    1.109   .     S
C884   H885    1.110   .     S
O888   C889    1.410   .     S
C889   H892    1.114   .     S
C889   H890    1.109   .     S
C889   H891    1.111   .     S
O893   C894    1.412   .     S
C894   H897    1.111   .     S
C894   H896    1.110   .     S
C894   H895    1.113   .     S
O898   C899    1.412   .     S
C899   H902    1.110   .     S
C899   H900    1.109   .     S
C899   H901    1.112   .     S
O903   C904    1.410   .     S
C904   H907    1.114   .     S
C904   H906    1.109   .     S
C904   H905    1.110   .     S
O908   C909    1.410   .     S
C909   H912    1.114   .     S
C909   H911    1.111   .     S
C909   H910    1.109   .     S
O913   C929    1.290   .     A
O913   Cu949   1.976   .     S
O914   C930    1.290   .     A
O914   Cu1102  1.976   .     S
O915   C930    1.292   .     A
O915   Cu1101  1.972   .     S
O916   C929    1.292   .     A
O916   Cu950   1.972   .     S
O917   C931    1.290   .     A
O917   Cu1102  1.972   .     S
O918   C932    1.289   .     A
O918   Cu949   1.972   .     S
O919   C932    1.292   .     A
O919   Cu950   1.968   .     S
O920   C931    1.290   .     A
O920   Cu1101  1.968   .     S
O921   C933    1.290   .     A
O921   Cu647   1.976   1_565 S
O922   C934    1.290   .     A
O922   Cu952   1.976   .     S
O923   Cu951   1.972   .     S
O923   C934    1.292   .     A
O924   C933    1.292   .     A
O924   Cu648   1.972   1_565 S
O925   C935    1.289   .     A
O925   Cu648   1.972   1_565 S
O926   C936    1.290   .     A
O926   Cu951   1.972   .     S
O927   C936    1.290   .     A
O927   Cu952   1.968   .     S
O928   C935    1.292   .     A
O928   Cu647   1.968   1_565 S
C929   C980    1.457   .     S
C930   C979    1.457   .     S
C931   C978    1.454   .     S
C932   C977    1.454   .     S
C933   C984    1.457   .     S
C934   C983    1.457   .     S
C935   C982    1.454   .     S
C936   C981    1.454   .     S
H937   C953    1.080   .     S
H938   C954    1.079   .     S
H939   C955    1.080   .     S
H940   C956    1.080   .     S
H941   C957    1.079   .     S
H942   C958    1.080   .     S
H943   C959    1.080   .     S
H944   C960    1.080   .     S
N945   Cu949   2.010   .     S
N945   C1108   1.366   1_455 A
N945   C954    1.365   .     S
N946   Cu950   2.010   .     S
N946   C955    1.366   .     A
N946   C1105   1.366   1_455 S
N947   Cu951   2.010   .     S
N947   C958    1.366   .     A
N948   C959    1.366   .     A
N948   Cu952   2.010   .     S
Cu949  O1067   1.972   1_455 S
Cu949  O1072   1.968   1_455 S
Cu949  Cu950   2.674   .     S
Cu950  O1069   1.972   1_455 S
Cu950  O1066   1.976   1_455 S
Cu951  Cu952   2.674   .     S
C953   N1098   1.366   .     S
C954   C1563   1.415   .     S
C956   N1097   1.366   .     A
C956   C1561   1.415   .     S
C957   N644    1.366   1_565 S
C958   C1567   1.415   .     S
C960   C1565   1.415   .     S
C960   N643    1.366   1_565 S
C961   C978    1.408   .     A
C961   O985    1.386   .     S
C961   C971    1.397   .     A
C962   O990    1.384   .     S
C962   C977    1.409   .     A
C962   C972    1.394   .     A
C963   C977    1.407   .     A
C963   C969    1.394   .     A
C963   O995    1.384   .     S
C964   C970    1.397   .     A
C964   C978    1.409   .     A
C964   O1000   1.384   .     S
C965   C975    1.395   .     A
C965   C980    1.410   .     A
C965   O1005   1.385   .     S
C966   C979    1.410   .     A
C966   C976    1.395   .     A
C966   O1010   1.384   .     S
C967   O1015   1.385   .     S
C967   C979    1.409   .     A
C967   C973    1.395   .     A
C968   O1020   1.385   .     S
C968   C980    1.409   .     A
C968   C974    1.395   .     A
C969   C982    1.409   .     A
C969   O1025   1.384   .     S
C970   O1030   1.386   .     S
C970   C981    1.408   .     A
C971   O1035   1.384   .     S
C971   C981    1.409   .     A
C972   O1040   1.384   .     S
C972   C982    1.407   .     A
C973   O1045   1.384   .     S
C973   C984    1.410   .     A
C974   O1050   1.385   .     S
C974   C983    1.410   .     A
C975   C983    1.409   .     A
C975   O1055   1.385   .     S
C976   O1060   1.385   .     S
C976   C984    1.409   .     A
O985   C986    1.412   .     S
C986   H988    1.109   .     S
C986   H989    1.109   .     S
C986   H987    1.115   .     S
O990   C991    1.412   .     S
C991   H993    1.113   .     S
C991   H994    1.110   .     S
C991   H992    1.109   .     S
O995   C996    1.410   .     S
C996   H999    1.114   .     S
C996   H998    1.109   .     S
C996   H997    1.111   .     S
O1000  C1001   1.410   .     S
C1001  H1003   1.110   .     S
C1001  H1004   1.114   .     S
C1001  H1002   1.109   .     S
O1005  C1006   1.412   .     S
C1006  H1009   1.111   .     S
C1006  H1008   1.109   .     S
C1006  H1007   1.112   .     S
O1010  C1011   1.412   .     S
C1011  H1012   1.109   .     S
C1011  H1013   1.112   .     S
C1011  H1014   1.110   .     S
O1015  C1016   1.410   .     S
C1016  H1018   1.109   .     S
C1016  H1017   1.111   .     S
C1016  H1019   1.114   .     S
O1020  C1021   1.410   .     S
C1021  H1023   1.110   .     S
C1021  H1024   1.114   .     S
C1021  H1022   1.109   .     S
O1025  C1026   1.412   .     S
C1026  H1027   1.113   .     S
C1026  H1028   1.109   .     S
C1026  H1029   1.110   .     S
O1030  C1031   1.412   .     S
C1031  H1033   1.115   .     S
C1031  H1034   1.109   .     S
C1031  H1032   1.109   .     S
O1035  C1036   1.410   .     S
C1036  H1039   1.114   .     S
C1036  H1038   1.109   .     S
C1036  H1037   1.110   .     S
O1040  C1041   1.410   .     S
C1041  H1044   1.114   .     S
C1041  H1042   1.109   .     S
C1041  H1043   1.111   .     S
O1045  C1046   1.412   .     S
C1046  H1049   1.111   .     S
C1046  H1048   1.110   .     S
C1046  H1047   1.113   .     S
O1050  C1051   1.412   .     S
C1051  H1054   1.110   .     S
C1051  H1052   1.109   .     S
C1051  H1053   1.112   .     S
O1055  C1056   1.410   .     S
C1056  H1059   1.114   .     S
C1056  H1058   1.109   .     S
C1056  H1057   1.110   .     S
O1060  C1061   1.410   .     S
C1061  H1064   1.114   .     S
C1061  H1063   1.111   .     S
C1061  H1062   1.109   .     S
O1065  C1081   1.290   .     A
O1065  Cu1101  1.976   .     S
O1066  C1082   1.290   .     A
O1066  Cu950   1.976   1_655 S
O1067  C1082   1.292   .     A
O1067  Cu949   1.972   1_655 S
O1068  C1081   1.292   .     A
O1068  Cu1102  1.972   .     S
O1069  C1083   1.290   .     A
O1069  Cu950   1.972   1_655 S
O1070  C1084   1.289   .     A
O1070  Cu1101  1.972   .     S
O1071  C1084   1.292   .     A
O1071  Cu1102  1.968   .     S
O1072  C1083   1.290   .     A
O1072  Cu949   1.968   1_655 S
O1073  C1085   1.290   .     A
O1073  Cu799   1.976   1_565 S
O1074  C1086   1.290   .     A
O1074  Cu1104  1.976   .     S
O1075  Cu1103  1.972   .     S
O1075  C1086   1.292   .     A
O1076  C1085   1.292   .     A
O1076  Cu800   1.972   1_565 S
O1077  C1087   1.289   .     A
O1077  Cu800   1.972   1_565 S
O1078  C1088   1.290   .     A
O1078  Cu1103  1.972   .     S
O1079  C1088   1.290   .     A
O1079  Cu1104  1.968   .     S
O1080  C1087   1.292   .     A
O1080  Cu799   1.968   1_565 S
C1081  C1132   1.457   .     S
C1082  C1131   1.457   .     S
C1083  C1130   1.454   .     S
C1084  C1129   1.454   .     S
C1085  C1136   1.457   .     S
C1086  C1135   1.457   .     S
C1087  C1134   1.454   .     S
C1088  C1133   1.454   .     S
H1089  C1105   1.080   .     S
H1090  C1106   1.079   .     S
H1091  C1107   1.080   .     S
H1092  C1108   1.080   .     S
H1093  C1109   1.079   .     S
H1094  C1110   1.080   .     S
H1095  C1111   1.080   .     S
H1096  C1112   1.080   .     S
N1097  Cu1101  2.010   .     S
N1097  C1106   1.365   .     S
N1098  Cu1102  2.010   .     S
N1098  C1107   1.366   .     A
N1099  Cu1103  2.010   .     S
N1099  C1110   1.366   .     A
N1100  C1111   1.366   .     A
N1100  Cu1104  2.010   .     S
Cu1101 Cu1102  2.674   .     S
Cu1103 Cu1104  2.674   .     S
C1105  N946    1.366   1_655 S
C1106  C1715   1.415   .     S
C1108  N945    1.366   1_655 A
C1108  C1713   1.415   .     S
C1109  N796    1.366   1_565 S
C1110  C1719   1.415   .     S
C1112  C1717   1.415   .     S
C1112  N795    1.366   1_565 S
C1113  C1130   1.408   .     A
C1113  O1137   1.386   .     S
C1113  C1123   1.397   .     A
C1114  O1142   1.384   .     S
C1114  C1129   1.409   .     A
C1114  C1124   1.394   .     A
C1115  C1129   1.407   .     A
C1115  C1121   1.394   .     A
C1115  O1147   1.384   .     S
C1116  C1122   1.397   .     A
C1116  C1130   1.409   .     A
C1116  O1152   1.384   .     S
C1117  C1127   1.395   .     A
C1117  C1132   1.410   .     A
C1117  O1157   1.385   .     S
C1118  C1131   1.410   .     A
C1118  C1128   1.395   .     A
C1118  O1162   1.384   .     S
C1119  O1167   1.385   .     S
C1119  C1131   1.409   .     A
C1119  C1125   1.395   .     A
C1120  O1172   1.385   .     S
C1120  C1132   1.409   .     A
C1120  C1126   1.395   .     A
C1121  C1134   1.409   .     A
C1121  O1177   1.384   .     S
C1122  O1182   1.386   .     S
C1122  C1133   1.408   .     A
C1123  O1187   1.384   .     S
C1123  C1133   1.409   .     A
C1124  O1192   1.384   .     S
C1124  C1134   1.407   .     A
C1125  O1197   1.384   .     S
C1125  C1136   1.410   .     A
C1126  O1202   1.385   .     S
C1126  C1135   1.410   .     A
C1127  C1135   1.409   .     A
C1127  O1207   1.385   .     S
C1128  O1212   1.385   .     S
C1128  C1136   1.409   .     A
O1137  C1138   1.412   .     S
C1138  H1140   1.109   .     S
C1138  H1141   1.109   .     S
C1138  H1139   1.115   .     S
O1142  C1143   1.412   .     S
C1143  H1145   1.113   .     S
C1143  H1146   1.110   .     S
C1143  H1144   1.109   .     S
O1147  C1148   1.410   .     S
C1148  H1151   1.114   .     S
C1148  H1150   1.109   .     S
C1148  H1149   1.111   .     S
O1152  C1153   1.410   .     S
C1153  H1155   1.110   .     S
C1153  H1156   1.114   .     S
C1153  H1154   1.109   .     S
O1157  C1158   1.412   .     S
C1158  H1161   1.111   .     S
C1158  H1160   1.109   .     S
C1158  H1159   1.112   .     S
O1162  C1163   1.412   .     S
C1163  H1164   1.109   .     S
C1163  H1165   1.112   .     S
C1163  H1166   1.110   .     S
O1167  C1168   1.410   .     S
C1168  H1170   1.109   .     S
C1168  H1169   1.111   .     S
C1168  H1171   1.114   .     S
O1172  C1173   1.410   .     S
C1173  H1175   1.110   .     S
C1173  H1176   1.114   .     S
C1173  H1174   1.109   .     S
O1177  C1178   1.412   .     S
C1178  H1179   1.113   .     S
C1178  H1180   1.109   .     S
C1178  H1181   1.110   .     S
O1182  C1183   1.412   .     S
C1183  H1185   1.115   .     S
C1183  H1186   1.109   .     S
C1183  H1184   1.109   .     S
O1187  C1188   1.410   .     S
C1188  H1191   1.114   .     S
C1188  H1190   1.109   .     S
C1188  H1189   1.110   .     S
O1192  C1193   1.410   .     S
C1193  H1196   1.114   .     S
C1193  H1194   1.109   .     S
C1193  H1195   1.111   .     S
O1197  C1198   1.412   .     S
C1198  H1201   1.111   .     S
C1198  H1200   1.110   .     S
C1198  H1199   1.113   .     S
O1202  C1203   1.412   .     S
C1203  H1206   1.110   .     S
C1203  H1204   1.109   .     S
C1203  H1205   1.112   .     S
O1207  C1208   1.410   .     S
C1208  H1211   1.114   .     S
C1208  H1210   1.109   .     S
C1208  H1209   1.110   .     S
O1212  C1213   1.410   .     S
C1213  H1216   1.114   .     S
C1213  H1215   1.111   .     S
C1213  H1214   1.109   .     S
O1217  C1233   1.290   .     A
O1217  Cu1253  1.976   .     S
O1218  C1234   1.290   .     A
O1218  Cu1406  1.976   .     S
O1219  C1234   1.292   .     A
O1219  Cu1405  1.972   .     S
O1220  C1233   1.292   .     A
O1220  Cu1254  1.972   .     S
O1221  C1235   1.290   .     A
O1221  Cu1406  1.972   .     S
O1222  C1236   1.289   .     A
O1222  Cu1253  1.972   .     S
O1223  C1236   1.292   .     A
O1223  Cu1254  1.968   .     S
O1224  C1235   1.290   .     A
O1224  Cu1405  1.968   .     S
O1225  C1237   1.290   .     A
O1225  Cu1559  1.976   .     S
O1226  C1238   1.290   .     A
O1226  Cu1256  1.976   .     S
O1227  Cu1255  1.972   .     S
O1227  C1238   1.292   .     A
O1228  C1237   1.292   .     A
O1228  Cu1560  1.972   .     S
O1229  C1239   1.289   .     A
O1229  Cu1560  1.972   .     S
O1230  C1240   1.290   .     A
O1230  Cu1255  1.972   .     S
O1231  C1240   1.290   .     A
O1231  Cu1256  1.968   .     S
O1232  C1239   1.292   .     A
O1232  Cu1559  1.968   .     S
C1233  C1284   1.457   .     S
C1234  C1283   1.457   .     S
C1235  C1282   1.454   .     S
C1236  C1281   1.454   .     S
C1237  C1288   1.457   .     S
C1238  C1287   1.457   .     S
C1239  C1286   1.454   .     S
C1240  C1285   1.454   .     S
H1241  C1257   1.080   .     S
H1242  C1258   1.079   .     S
H1243  C1259   1.080   .     S
H1244  C1260   1.080   .     S
H1245  C1261   1.079   .     S
H1246  C1262   1.080   .     S
H1247  C1263   1.080   .     S
H1248  C1264   1.080   .     S
N1249  Cu1253  2.010   .     S
N1249  C1412   1.366   1_455 A
N1249  C1258   1.365   .     S
N1250  Cu1254  2.010   .     S
N1250  C1259   1.366   .     A
N1250  C1409   1.366   1_455 S
N1251  Cu1255  2.010   .     S
N1251  C1262   1.366   .     A
N1251  C1568   1.366   1_545 S
N1252  C1263   1.366   .     A
N1252  Cu1256  2.010   .     S
N1252  C1565   1.366   1_545 S
Cu1253 O1371   1.972   1_455 S
Cu1253 O1376   1.968   1_455 S
Cu1253 Cu1254  2.674   .     S
Cu1254 O1373   1.972   1_455 S
Cu1254 O1370   1.976   1_455 S
Cu1255 Cu1256  2.674   .     S
Cu1255 O1536   1.968   1_545 S
Cu1255 O1529   1.976   1_545 S
Cu1256 O1533   1.972   1_545 S
Cu1256 O1532   1.972   1_545 S
C1257  N1402   1.366   .     S
C1258  C43     1.415   1_556 S
C1260  N1401   1.366   .     A
C1260  C41     1.415   1_556 S
C1261  N1556   1.366   .     S
C1262  C47     1.415   1_556 S
C1264  C45     1.415   1_556 S
C1264  N1555   1.366   .     S
C1265  C1282   1.408   .     A
C1265  O1289   1.386   .     S
C1265  C1275   1.397   .     A
C1266  O1294   1.384   .     S
C1266  C1281   1.409   .     A
C1266  C1276   1.394   .     A
C1267  C1281   1.407   .     A
C1267  C1273   1.394   .     A
C1267  O1299   1.384   .     S
C1268  C1274   1.397   .     A
C1268  C1282   1.409   .     A
C1268  O1304   1.384   .     S
C1269  C1279   1.395   .     A
C1269  C1284   1.410   .     A
C1269  O1309   1.385   .     S
C1270  C1283   1.410   .     A
C1270  C1280   1.395   .     A
C1270  O1314   1.384   .     S
C1271  O1319   1.385   .     S
C1271  C1283   1.409   .     A
C1271  C1277   1.395   .     A
C1272  O1324   1.385   .     S
C1272  C1284   1.409   .     A
C1272  C1278   1.395   .     A
C1273  C1286   1.409   .     A
C1273  O1329   1.384   .     S
C1274  O1334   1.386   .     S
C1274  C1285   1.408   .     A
C1275  O1339   1.384   .     S
C1275  C1285   1.409   .     A
C1276  O1344   1.384   .     S
C1276  C1286   1.407   .     A
C1277  O1349   1.384   .     S
C1277  C1288   1.410   .     A
C1278  O1354   1.385   .     S
C1278  C1287   1.410   .     A
C1279  C1287   1.409   .     A
C1279  O1359   1.385   .     S
C1280  O1364   1.385   .     S
C1280  C1288   1.409   .     A
O1289  C1290   1.412   .     S
C1290  H1292   1.109   .     S
C1290  H1293   1.109   .     S
C1290  H1291   1.115   .     S
O1294  C1295   1.412   .     S
C1295  H1297   1.113   .     S
C1295  H1298   1.110   .     S
C1295  H1296   1.109   .     S
O1299  C1300   1.410   .     S
C1300  H1303   1.114   .     S
C1300  H1302   1.109   .     S
C1300  H1301   1.111   .     S
O1304  C1305   1.410   .     S
C1305  H1307   1.110   .     S
C1305  H1308   1.114   .     S
C1305  H1306   1.109   .     S
O1309  C1310   1.412   .     S
C1310  H1313   1.111   .     S
C1310  H1312   1.109   .     S
C1310  H1311   1.112   .     S
O1314  C1315   1.412   .     S
C1315  H1316   1.109   .     S
C1315  H1317   1.112   .     S
C1315  H1318   1.110   .     S
O1319  C1320   1.410   .     S
C1320  H1322   1.109   .     S
C1320  H1321   1.111   .     S
C1320  H1323   1.114   .     S
O1324  C1325   1.410   .     S
C1325  H1327   1.110   .     S
C1325  H1328   1.114   .     S
C1325  H1326   1.109   .     S
O1329  C1330   1.412   .     S
C1330  H1331   1.113   .     S
C1330  H1332   1.109   .     S
C1330  H1333   1.110   .     S
O1334  C1335   1.412   .     S
C1335  H1337   1.115   .     S
C1335  H1338   1.109   .     S
C1335  H1336   1.109   .     S
O1339  C1340   1.410   .     S
C1340  H1343   1.114   .     S
C1340  H1342   1.109   .     S
C1340  H1341   1.110   .     S
O1344  C1345   1.410   .     S
C1345  H1348   1.114   .     S
C1345  H1346   1.109   .     S
C1345  H1347   1.111   .     S
O1349  C1350   1.412   .     S
C1350  H1353   1.111   .     S
C1350  H1352   1.110   .     S
C1350  H1351   1.113   .     S
O1354  C1355   1.412   .     S
C1355  H1358   1.110   .     S
C1355  H1356   1.109   .     S
C1355  H1357   1.112   .     S
O1359  C1360   1.410   .     S
C1360  H1363   1.114   .     S
C1360  H1362   1.109   .     S
C1360  H1361   1.110   .     S
O1364  C1365   1.410   .     S
C1365  H1368   1.114   .     S
C1365  H1367   1.111   .     S
C1365  H1366   1.109   .     S
O1369  C1385   1.290   .     A
O1369  Cu1405  1.976   .     S
O1370  C1386   1.290   .     A
O1370  Cu1254  1.976   1_655 S
O1371  C1386   1.292   .     A
O1371  Cu1253  1.972   1_655 S
O1372  C1385   1.292   .     A
O1372  Cu1406  1.972   .     S
O1373  C1387   1.290   .     A
O1373  Cu1254  1.972   1_655 S
O1374  C1388   1.289   .     A
O1374  Cu1405  1.972   .     S
O1375  C1388   1.292   .     A
O1375  Cu1406  1.968   .     S
O1376  C1387   1.290   .     A
O1376  Cu1253  1.968   1_655 S
O1377  C1389   1.290   .     A
O1377  Cu1711  1.976   .     S
O1378  C1390   1.290   .     A
O1378  Cu1408  1.976   .     S
O1379  Cu1407  1.972   .     S
O1379  C1390   1.292   .     A
O1380  C1389   1.292   .     A
O1380  Cu1712  1.972   .     S
O1381  C1391   1.289   .     A
O1381  Cu1712  1.972   .     S
O1382  C1392   1.290   .     A
O1382  Cu1407  1.972   .     S
O1383  C1392   1.290   .     A
O1383  Cu1408  1.968   .     S
O1384  C1391   1.292   .     A
O1384  Cu1711  1.968   .     S
C1385  C1436   1.457   .     S
C1386  C1435   1.457   .     S
C1387  C1434   1.454   .     S
C1388  C1433   1.454   .     S
C1389  C1440   1.457   .     S
C1390  C1439   1.457   .     S
C1391  C1438   1.454   .     S
C1392  C1437   1.454   .     S
H1393  C1409   1.080   .     S
H1394  C1410   1.079   .     S
H1395  C1411   1.080   .     S
H1396  C1412   1.080   .     S
H1397  C1413   1.079   .     S
H1398  C1414   1.080   .     S
H1399  C1415   1.080   .     S
H1400  C1416   1.080   .     S
N1401  Cu1405  2.010   .     S
N1401  C1410   1.365   .     S
N1402  Cu1406  2.010   .     S
N1402  C1411   1.366   .     A
N1403  Cu1407  2.010   .     S
N1403  C1414   1.366   .     A
N1403  C1720   1.366   1_545 S
N1404  C1415   1.366   .     A
N1404  Cu1408  2.010   .     S
N1404  C1717   1.366   1_545 S
Cu1405 Cu1406  2.674   .     S
Cu1407 Cu1408  2.674   .     S
Cu1407 O1688   1.968   1_545 S
Cu1407 O1681   1.976   1_545 S
Cu1408 O1685   1.972   1_545 S
Cu1408 O1684   1.972   1_545 S
C1409  N1250   1.366   1_655 S
C1410  C195    1.415   1_556 S
C1412  N1249   1.366   1_655 A
C1412  C193    1.415   1_556 S
C1413  N1708   1.366   .     S
C1414  C199    1.415   1_556 S
C1416  C197    1.415   1_556 S
C1416  N1707   1.366   .     S
C1417  C1434   1.408   .     A
C1417  O1441   1.386   .     S
C1417  C1427   1.397   .     A
C1418  O1446   1.384   .     S
C1418  C1433   1.409   .     A
C1418  C1428   1.394   .     A
C1419  C1433   1.407   .     A
C1419  C1425   1.394   .     A
C1419  O1451   1.384   .     S
C1420  C1426   1.397   .     A
C1420  C1434   1.409   .     A
C1420  O1456   1.384   .     S
C1421  C1431   1.395   .     A
C1421  C1436   1.410   .     A
C1421  O1461   1.385   .     S
C1422  C1435   1.410   .     A
C1422  C1432   1.395   .     A
C1422  O1466   1.384   .     S
C1423  O1471   1.385   .     S
C1423  C1435   1.409   .     A
C1423  C1429   1.395   .     A
C1424  O1476   1.385   .     S
C1424  C1436   1.409   .     A
C1424  C1430   1.395   .     A
C1425  C1438   1.409   .     A
C1425  O1481   1.384   .     S
C1426  O1486   1.386   .     S
C1426  C1437   1.408   .     A
C1427  O1491   1.384   .     S
C1427  C1437   1.409   .     A
C1428  O1496   1.384   .     S
C1428  C1438   1.407   .     A
C1429  O1501   1.384   .     S
C1429  C1440   1.410   .     A
C1430  O1506   1.385   .     S
C1430  C1439   1.410   .     A
C1431  C1439   1.409   .     A
C1431  O1511   1.385   .     S
C1432  O1516   1.385   .     S
C1432  C1440   1.409   .     A
O1441  C1442   1.412   .     S
C1442  H1444   1.109   .     S
C1442  H1445   1.109   .     S
C1442  H1443   1.115   .     S
O1446  C1447   1.412   .     S
C1447  H1449   1.113   .     S
C1447  H1450   1.110   .     S
C1447  H1448   1.109   .     S
O1451  C1452   1.410   .     S
C1452  H1455   1.114   .     S
C1452  H1454   1.109   .     S
C1452  H1453   1.111   .     S
O1456  C1457   1.410   .     S
C1457  H1459   1.110   .     S
C1457  H1460   1.114   .     S
C1457  H1458   1.109   .     S
O1461  C1462   1.412   .     S
C1462  H1465   1.111   .     S
C1462  H1464   1.109   .     S
C1462  H1463   1.112   .     S
O1466  C1467   1.412   .     S
C1467  H1468   1.109   .     S
C1467  H1469   1.112   .     S
C1467  H1470   1.110   .     S
O1471  C1472   1.410   .     S
C1472  H1474   1.109   .     S
C1472  H1473   1.111   .     S
C1472  H1475   1.114   .     S
O1476  C1477   1.410   .     S
C1477  H1479   1.110   .     S
C1477  H1480   1.114   .     S
C1477  H1478   1.109   .     S
O1481  C1482   1.412   .     S
C1482  H1483   1.113   .     S
C1482  H1484   1.109   .     S
C1482  H1485   1.110   .     S
O1486  C1487   1.412   .     S
C1487  H1489   1.115   .     S
C1487  H1490   1.109   .     S
C1487  H1488   1.109   .     S
O1491  C1492   1.410   .     S
C1492  H1495   1.114   .     S
C1492  H1494   1.109   .     S
C1492  H1493   1.110   .     S
O1496  C1497   1.410   .     S
C1497  H1500   1.114   .     S
C1497  H1498   1.109   .     S
C1497  H1499   1.111   .     S
O1501  C1502   1.412   .     S
C1502  H1505   1.111   .     S
C1502  H1504   1.110   .     S
C1502  H1503   1.113   .     S
O1506  C1507   1.412   .     S
C1507  H1510   1.110   .     S
C1507  H1508   1.109   .     S
C1507  H1509   1.112   .     S
O1511  C1512   1.410   .     S
C1512  H1515   1.114   .     S
C1512  H1514   1.109   .     S
C1512  H1513   1.110   .     S
O1516  C1517   1.410   .     S
C1517  H1520   1.114   .     S
C1517  H1519   1.111   .     S
C1517  H1518   1.109   .     S
O1521  C1537   1.290   .     A
O1521  Cu1557  1.976   .     S
O1522  C1538   1.290   .     A
O1522  Cu1710  1.976   .     S
O1523  C1538   1.292   .     A
O1523  Cu1709  1.972   .     S
O1524  C1537   1.292   .     A
O1524  Cu1558  1.972   .     S
O1525  C1539   1.290   .     A
O1525  Cu1710  1.972   .     S
O1526  C1540   1.289   .     A
O1526  Cu1557  1.972   .     S
O1527  C1540   1.292   .     A
O1527  Cu1558  1.968   .     S
O1528  C1539   1.290   .     A
O1528  Cu1709  1.968   .     S
O1529  C1541   1.290   .     A
O1529  Cu1255  1.976   1_565 S
O1530  C1542   1.290   .     A
O1530  Cu1560  1.976   .     S
O1531  Cu1559  1.972   .     S
O1531  C1542   1.292   .     A
O1532  C1541   1.292   .     A
O1532  Cu1256  1.972   1_565 S
O1533  C1543   1.289   .     A
O1533  Cu1256  1.972   1_565 S
O1534  C1544   1.290   .     A
O1534  Cu1559  1.972   .     S
O1535  C1544   1.290   .     A
O1535  Cu1560  1.968   .     S
O1536  C1543   1.292   .     A
O1536  Cu1255  1.968   1_565 S
C1537  C1588   1.457   .     S
C1538  C1587   1.457   .     S
C1539  C1586   1.454   .     S
C1540  C1585   1.454   .     S
C1541  C1592   1.457   .     S
C1542  C1591   1.457   .     S
C1543  C1590   1.454   .     S
C1544  C1589   1.454   .     S
H1545  C1561   1.080   .     S
H1546  C1562   1.079   .     S
H1547  C1563   1.080   .     S
H1548  C1564   1.080   .     S
H1549  C1565   1.079   .     S
H1550  C1566   1.080   .     S
H1551  C1567   1.080   .     S
H1552  C1568   1.080   .     S
N1553  Cu1557  2.010   .     S
N1553  C1716   1.366   1_455 A
N1553  C1562   1.365   .     S
N1554  Cu1558  2.010   .     S
N1554  C1563   1.366   .     A
N1554  C1713   1.366   1_455 S
N1555  Cu1559  2.010   .     S
N1555  C1566   1.366   .     A
N1556  C1567   1.366   .     A
N1556  Cu1560  2.010   .     S
Cu1557 O1675   1.972   1_455 S
Cu1557 O1680   1.968   1_455 S
Cu1557 Cu1558  2.674   .     S
Cu1558 O1677   1.972   1_455 S
Cu1558 O1674   1.976   1_455 S
Cu1559 Cu1560  2.674   .     S
C1561  N1706   1.366   .     S
C1562  C347    1.415   1_556 S
C1564  N1705   1.366   .     A
C1564  C345    1.415   1_556 S
C1565  N1252   1.366   1_565 S
C1566  C351    1.415   1_556 S
C1568  C349    1.415   1_556 S
C1568  N1251   1.366   1_565 S
C1569  C1586   1.408   .     A
C1569  O1593   1.386   .     S
C1569  C1579   1.397   .     A
C1570  O1598   1.384   .     S
C1570  C1585   1.409   .     A
C1570  C1580   1.394   .     A
C1571  C1585   1.407   .     A
C1571  C1577   1.394   .     A
C1571  O1603   1.384   .     S
C1572  C1578   1.397   .     A
C1572  C1586   1.409   .     A
C1572  O1608   1.384   .     S
C1573  C1583   1.395   .     A
C1573  C1588   1.410   .     A
C1573  O1613   1.385   .     S
C1574  C1587   1.410   .     A
C1574  C1584   1.395   .     A
C1574  O1618   1.384   .     S
C1575  O1623   1.385   .     S
C1575  C1587   1.409   .     A
C1575  C1581   1.395   .     A
C1576  O1628   1.385   .     S
C1576  C1588   1.409   .     A
C1576  C1582   1.395   .     A
C1577  C1590   1.409   .     A
C1577  O1633   1.384   .     S
C1578  O1638   1.386   .     S
C1578  C1589   1.408   .     A
C1579  O1643   1.384   .     S
C1579  C1589   1.409   .     A
C1580  O1648   1.384   .     S
C1580  C1590   1.407   .     A
C1581  O1653   1.384   .     S
C1581  C1592   1.410   .     A
C1582  O1658   1.385   .     S
C1582  C1591   1.410   .     A
C1583  C1591   1.409   .     A
C1583  O1663   1.385   .     S
C1584  O1668   1.385   .     S
C1584  C1592   1.409   .     A
O1593  C1594   1.412   .     S
C1594  H1596   1.109   .     S
C1594  H1597   1.109   .     S
C1594  H1595   1.115   .     S
O1598  C1599   1.412   .     S
C1599  H1601   1.113   .     S
C1599  H1602   1.110   .     S
C1599  H1600   1.109   .     S
O1603  C1604   1.410   .     S
C1604  H1607   1.114   .     S
C1604  H1606   1.109   .     S
C1604  H1605   1.111   .     S
O1608  C1609   1.410   .     S
C1609  H1611   1.110   .     S
C1609  H1612   1.114   .     S
C1609  H1610   1.109   .     S
O1613  C1614   1.412   .     S
C1614  H1617   1.111   .     S
C1614  H1616   1.109   .     S
C1614  H1615   1.112   .     S
O1618  C1619   1.412   .     S
C1619  H1620   1.109   .     S
C1619  H1621   1.112   .     S
C1619  H1622   1.110   .     S
O1623  C1624   1.410   .     S
C1624  H1626   1.109   .     S
C1624  H1625   1.111   .     S
C1624  H1627   1.114   .     S
O1628  C1629   1.410   .     S
C1629  H1631   1.110   .     S
C1629  H1632   1.114   .     S
C1629  H1630   1.109   .     S
O1633  C1634   1.412   .     S
C1634  H1635   1.113   .     S
C1634  H1636   1.109   .     S
C1634  H1637   1.110   .     S
O1638  C1639   1.412   .     S
C1639  H1641   1.115   .     S
C1639  H1642   1.109   .     S
C1639  H1640   1.109   .     S
O1643  C1644   1.410   .     S
C1644  H1647   1.114   .     S
C1644  H1646   1.109   .     S
C1644  H1645   1.110   .     S
O1648  C1649   1.410   .     S
C1649  H1652   1.114   .     S
C1649  H1650   1.109   .     S
C1649  H1651   1.111   .     S
O1653  C1654   1.412   .     S
C1654  H1657   1.111   .     S
C1654  H1656   1.110   .     S
C1654  H1655   1.113   .     S
O1658  C1659   1.412   .     S
C1659  H1662   1.110   .     S
C1659  H1660   1.109   .     S
C1659  H1661   1.112   .     S
O1663  C1664   1.410   .     S
C1664  H1667   1.114   .     S
C1664  H1666   1.109   .     S
C1664  H1665   1.110   .     S
O1668  C1669   1.410   .     S
C1669  H1672   1.114   .     S
C1669  H1671   1.111   .     S
C1669  H1670   1.109   .     S
O1673  C1689   1.290   .     A
O1673  Cu1709  1.976   .     S
O1674  C1690   1.290   .     A
O1674  Cu1558  1.976   1_655 S
O1675  C1690   1.292   .     A
O1675  Cu1557  1.972   1_655 S
O1676  C1689   1.292   .     A
O1676  Cu1710  1.972   .     S
O1677  C1691   1.290   .     A
O1677  Cu1558  1.972   1_655 S
O1678  C1692   1.289   .     A
O1678  Cu1709  1.972   .     S
O1679  C1692   1.292   .     A
O1679  Cu1710  1.968   .     S
O1680  C1691   1.290   .     A
O1680  Cu1557  1.968   1_655 S
O1681  C1693   1.290   .     A
O1681  Cu1407  1.976   1_565 S
O1682  C1694   1.290   .     A
O1682  Cu1712  1.976   .     S
O1683  Cu1711  1.972   .     S
O1683  C1694   1.292   .     A
O1684  C1693   1.292   .     A
O1684  Cu1408  1.972   1_565 S
O1685  C1695   1.289   .     A
O1685  Cu1408  1.972   1_565 S
O1686  C1696   1.290   .     A
O1686  Cu1711  1.972   .     S
O1687  C1696   1.290   .     A
O1687  Cu1712  1.968   .     S
O1688  C1695   1.292   .     A
O1688  Cu1407  1.968   1_565 S
C1689  C1740   1.457   .     S
C1690  C1739   1.457   .     S
C1691  C1738   1.454   .     S
C1692  C1737   1.454   .     S
C1693  C1744   1.457   .     S
C1694  C1743   1.457   .     S
C1695  C1742   1.454   .     S
C1696  C1741   1.454   .     S
H1697  C1713   1.080   .     S
H1698  C1714   1.079   .     S
H1699  C1715   1.080   .     S
H1700  C1716   1.080   .     S
H1701  C1717   1.079   .     S
H1702  C1718   1.080   .     S
H1703  C1719   1.080   .     S
H1704  C1720   1.080   .     S
N1705  Cu1709  2.010   .     S
N1705  C1714   1.365   .     S
N1706  Cu1710  2.010   .     S
N1706  C1715   1.366   .     A
N1707  Cu1711  2.010   .     S
N1707  C1718   1.366   .     A
N1708  C1719   1.366   .     A
N1708  Cu1712  2.010   .     S
Cu1709 Cu1710  2.674   .     S
Cu1711 Cu1712  2.674   .     S
C1713  N1554   1.366   1_655 S
C1714  C499    1.415   1_556 S
C1716  N1553   1.366   1_655 A
C1716  C497    1.415   1_556 S
C1717  N1404   1.366   1_565 S
C1718  C503    1.415   1_556 S
C1720  C501    1.415   1_556 S
C1720  N1403   1.366   1_565 S
C1721  C1738   1.408   .     A
C1721  O1745   1.386   .     S
C1721  C1731   1.397   .     A
C1722  O1750   1.384   .     S
C1722  C1737   1.409   .     A
C1722  C1732   1.394   .     A
C1723  C1737   1.407   .     A
C1723  C1729   1.394   .     A
C1723  O1755   1.384   .     S
C1724  C1730   1.397   .     A
C1724  C1738   1.409   .     A
C1724  O1760   1.384   .     S
C1725  C1735   1.395   .     A
C1725  C1740   1.410   .     A
C1725  O1765   1.385   .     S
C1726  C1739   1.410   .     A
C1726  C1736   1.395   .     A
C1726  O1770   1.384   .     S
C1727  O1775   1.385   .     S
C1727  C1739   1.409   .     A
C1727  C1733   1.395   .     A
C1728  O1780   1.385   .     S
C1728  C1740   1.409   .     A
C1728  C1734   1.395   .     A
C1729  C1742   1.409   .     A
C1729  O1785   1.384   .     S
C1730  O1790   1.386   .     S
C1730  C1741   1.408   .     A
C1731  O1795   1.384   .     S
C1731  C1741   1.409   .     A
C1732  O1800   1.384   .     S
C1732  C1742   1.407   .     A
C1733  O1805   1.384   .     S
C1733  C1744   1.410   .     A
C1734  O1810   1.385   .     S
C1734  C1743   1.410   .     A
C1735  C1743   1.409   .     A
C1735  O1815   1.385   .     S
C1736  O1820   1.385   .     S
C1736  C1744   1.409   .     A
O1745  C1746   1.412   .     S
C1746  H1748   1.109   .     S
C1746  H1749   1.109   .     S
C1746  H1747   1.115   .     S
O1750  C1751   1.412   .     S
C1751  H1753   1.113   .     S
C1751  H1754   1.110   .     S
C1751  H1752   1.109   .     S
O1755  C1756   1.410   .     S
C1756  H1759   1.114   .     S
C1756  H1758   1.109   .     S
C1756  H1757   1.111   .     S
O1760  C1761   1.410   .     S
C1761  H1763   1.110   .     S
C1761  H1764   1.114   .     S
C1761  H1762   1.109   .     S
O1765  C1766   1.412   .     S
C1766  H1769   1.111   .     S
C1766  H1768   1.109   .     S
C1766  H1767   1.112   .     S
O1770  C1771   1.412   .     S
C1771  H1772   1.109   .     S
C1771  H1773   1.112   .     S
C1771  H1774   1.110   .     S
O1775  C1776   1.410   .     S
C1776  H1778   1.109   .     S
C1776  H1777   1.111   .     S
C1776  H1779   1.114   .     S
O1780  C1781   1.410   .     S
C1781  H1783   1.110   .     S
C1781  H1784   1.114   .     S
C1781  H1782   1.109   .     S
O1785  C1786   1.412   .     S
C1786  H1787   1.113   .     S
C1786  H1788   1.109   .     S
C1786  H1789   1.110   .     S
O1790  C1791   1.412   .     S
C1791  H1793   1.115   .     S
C1791  H1794   1.109   .     S
C1791  H1792   1.109   .     S
O1795  C1796   1.410   .     S
C1796  H1799   1.114   .     S
C1796  H1798   1.109   .     S
C1796  H1797   1.110   .     S
O1800  C1801   1.410   .     S
C1801  H1804   1.114   .     S
C1801  H1802   1.109   .     S
C1801  H1803   1.111   .     S
O1805  C1806   1.412   .     S
C1806  H1809   1.111   .     S
C1806  H1808   1.110   .     S
C1806  H1807   1.113   .     S
O1810  C1811   1.412   .     S
C1811  H1814   1.110   .     S
C1811  H1812   1.109   .     S
C1811  H1813   1.112   .     S
O1815  C1816   1.410   .     S
C1816  H1819   1.114   .     S
C1816  H1818   1.109   .     S
C1816  H1817   1.110   .     S
O1820  C1821   1.410   .     S
C1821  H1824   1.114   .     S
C1821  H1823   1.111   .     S
C1821  H1822   1.109   .     S
