data_str_m3_o1_o10_pcu_sym.106
_audit_creation_date              2020-01-03
_audit_creation_method            'Materials Studio'
_symmetry_space_group_name_H-M    'P1'
_symmetry_Int_Tables_number       1
_symmetry_cell_setting            triclinic
loop_
_symmetry_equiv_pos_as_xyz
  x,y,z
_cell_length_a                    26.0822
_cell_length_b                    31.9500
_cell_length_c                    29.6413
_cell_angle_alpha                 90.8074
_cell_angle_beta                  99.0922
_cell_angle_gamma                 90.6436
loop_
_atom_site_label
_atom_site_type_symbol
_atom_site_fract_x
_atom_site_fract_y
_atom_site_fract_z
_atom_site_U_iso_or_equiv
_atom_site_adp_type
_atom_site_occupancy
O1     O     0.16666   0.10558   0.20487   0.00000  Uiso   1.00
O2     O     0.16667   0.22775   0.12846   0.00000  Uiso   1.00
O3     O     0.16666   0.10559   0.12843   0.00000  Uiso   1.00
O4     O     0.16667   0.22774   0.20490   0.00000  Uiso   1.00
C5     C     0.16632   0.08684   0.16637   0.00000  Uiso   1.00
C6     C     0.16701   0.24649   0.16697   0.00000  Uiso   1.00
O7     O     0.09058   0.16666   0.19595   0.00000  Uiso   1.00
O8     O     0.24275   0.16667   0.13739   0.00000  Uiso   1.00
O9     O     0.09058   0.16667   0.11950   0.00000  Uiso   1.00
O10    O     0.24275   0.16666   0.21383   0.00000  Uiso   1.00
C11    C     0.06729   0.16755   0.15478   0.00000  Uiso   1.00
C12    C     0.26605   0.16579   0.17856   0.00000  Uiso   1.00
Zn13   Zn    0.16667   0.16666   0.21771   0.00000  Uiso   1.00
Zn14   Zn    0.16667   0.16667   0.11563   0.00000  Uiso   1.00
N15    N     0.16665   0.16666   0.28573   0.00000  Uiso   1.00
N16    N     0.16668   0.16668   0.04760   0.00000  Uiso   1.00
C17    C     0.01263   0.16471   0.14830   0.00000  Uiso   1.00
C18    C     0.32070   0.16863   0.18503   0.00000  Uiso   1.00
C19    C     0.20891   0.02166   0.15247   0.00000  Uiso   1.00
C20    C     0.12442   0.31167   0.18086   0.00000  Uiso   1.00
C21    C     0.20851   0.31178   0.15256   0.00000  Uiso   1.00
C22    C     0.12482   0.02155   0.18078   0.00000  Uiso   1.00
C23    C     0.16678   0.29061   0.16726   0.00000  Uiso   1.00
C24    C     0.16656   0.04272   0.16607   0.00000  Uiso   1.00
C25    C     0.18786   0.19933   0.02771   0.00000  Uiso   1.00
C26    C     0.14547   0.13401   0.30562   0.00000  Uiso   1.00
H27    H     0.20528   0.22519   0.04891   0.00000  Uiso   1.00
H28    H     0.12806   0.10814   0.28441   0.00000  Uiso   1.00
C29    C     0.18822   0.19948   0.31329   0.00000  Uiso   1.00
C30    C     0.14511   0.13386   0.02004   0.00000  Uiso   1.00
N31    N     0.32082   0.15312   0.10292   0.00000  Uiso   1.00
O32    O     0.32197   0.17877   0.06938   0.00000  Uiso   1.00
O33    O     0.30443   0.11482   0.09403   0.00000  Uiso   1.00
N34    N     0.01251   0.18023   0.23041   0.00000  Uiso   1.00
O35    O     0.01136   0.15457   0.26395   0.00000  Uiso   1.00
O36    O     0.02891   0.21852   0.23930   0.00000  Uiso   1.00
O37    O     0.25212   0.04195   0.14096   0.00000  Uiso   1.00
H38    H     0.25447   0.07095   0.15326   0.00000  Uiso   1.00
O39    O     0.08121   0.29138   0.19236   0.00000  Uiso   1.00
H40    H     0.07886   0.26238   0.18006   0.00000  Uiso   1.00
N41    N     0.25187   0.28953   0.13989   0.00000  Uiso   1.00
O42    O     0.26965   0.29878   0.10258   0.00000  Uiso   1.00
O43    O     0.27680   0.26293   0.16779   0.00000  Uiso   1.00
N44    N     0.08145   0.04381   0.19344   0.00000  Uiso   1.00
O45    O     0.06363   0.03451   0.23072   0.00000  Uiso   1.00
O46    O     0.05656   0.07044   0.16556   0.00000  Uiso   1.00
N47    N     0.21193   0.23427   0.29449   0.00000  Uiso   1.00
O48    O     0.25394   0.22877   0.27682   0.00000  Uiso   1.00
O49    O     0.19899   0.27215   0.30434   0.00000  Uiso   1.00
N50    N     0.12141   0.09905   0.03884   0.00000  Uiso   1.00
O51    O     0.07948   0.10457   0.05663   0.00000  Uiso   1.00
O52    O     0.13423   0.06118   0.02886   0.00000  Uiso   1.00
O53    O     0.50000   0.10558   0.20487   0.00000  Uiso   1.00
O54    O     0.50000   0.22775   0.12846   0.00000  Uiso   1.00
O55    O     0.50000   0.10559   0.12843   0.00000  Uiso   1.00
O56    O     0.50000   0.22774   0.20490   0.00000  Uiso   1.00
C57    C     0.49965   0.08684   0.16637   0.00000  Uiso   1.00
C58    C     0.50035   0.24649   0.16697   0.00000  Uiso   1.00
O59    O     0.42392   0.16666   0.19595   0.00000  Uiso   1.00
O60    O     0.57608   0.16667   0.13739   0.00000  Uiso   1.00
O61    O     0.42392   0.16667   0.11950   0.00000  Uiso   1.00
O62    O     0.57608   0.16666   0.21383   0.00000  Uiso   1.00
C63    C     0.40062   0.16755   0.15478   0.00000  Uiso   1.00
C64    C     0.59938   0.16579   0.17856   0.00000  Uiso   1.00
Zn65   Zn    0.50000   0.16666   0.21771   0.00000  Uiso   1.00
Zn66   Zn    0.50000   0.16667   0.11563   0.00000  Uiso   1.00
N67    N     0.49999   0.16666   0.28573   0.00000  Uiso   1.00
N68    N     0.50001   0.16668   0.04760   0.00000  Uiso   1.00
C69    C     0.34596   0.16471   0.14830   0.00000  Uiso   1.00
C70    C     0.65404   0.16863   0.18503   0.00000  Uiso   1.00
C71    C     0.54224   0.02166   0.15247   0.00000  Uiso   1.00
C72    C     0.45775   0.31167   0.18086   0.00000  Uiso   1.00
C73    C     0.54185   0.31178   0.15256   0.00000  Uiso   1.00
C74    C     0.45815   0.02155   0.18078   0.00000  Uiso   1.00
C75    C     0.50011   0.29061   0.16726   0.00000  Uiso   1.00
C76    C     0.49989   0.04272   0.16607   0.00000  Uiso   1.00
C77    C     0.52120   0.19933   0.02771   0.00000  Uiso   1.00
C78    C     0.47881   0.13401   0.30562   0.00000  Uiso   1.00
H79    H     0.53861   0.22519   0.04891   0.00000  Uiso   1.00
H80    H     0.46139   0.10814   0.28441   0.00000  Uiso   1.00
C81    C     0.52155   0.19948   0.31329   0.00000  Uiso   1.00
C82    C     0.47845   0.13386   0.02004   0.00000  Uiso   1.00
N83    N     0.65416   0.15312   0.10292   0.00000  Uiso   1.00
O84    O     0.65530   0.17877   0.06938   0.00000  Uiso   1.00
O85    O     0.63776   0.11482   0.09403   0.00000  Uiso   1.00
N86    N     0.34585   0.18023   0.23041   0.00000  Uiso   1.00
O87    O     0.34469   0.15457   0.26395   0.00000  Uiso   1.00
O88    O     0.36224   0.21852   0.23930   0.00000  Uiso   1.00
O89    O     0.58545   0.04195   0.14096   0.00000  Uiso   1.00
H90    H     0.58781   0.07095   0.15326   0.00000  Uiso   1.00
O91    O     0.41454   0.29138   0.19236   0.00000  Uiso   1.00
H92    H     0.41219   0.26238   0.18006   0.00000  Uiso   1.00
N93    N     0.58521   0.28953   0.13989   0.00000  Uiso   1.00
O94    O     0.60299   0.29878   0.10258   0.00000  Uiso   1.00
O95    O     0.61014   0.26293   0.16779   0.00000  Uiso   1.00
N96    N     0.41479   0.04381   0.19344   0.00000  Uiso   1.00
O97    O     0.39696   0.03451   0.23072   0.00000  Uiso   1.00
O98    O     0.38989   0.07044   0.16556   0.00000  Uiso   1.00
N99    N     0.54526   0.23427   0.29449   0.00000  Uiso   1.00
O100   O     0.58728   0.22877   0.27682   0.00000  Uiso   1.00
O101   O     0.53232   0.27215   0.30434   0.00000  Uiso   1.00
N102   N     0.45475   0.09905   0.03884   0.00000  Uiso   1.00
O103   O     0.41281   0.10457   0.05663   0.00000  Uiso   1.00
O104   O     0.46757   0.06118   0.02886   0.00000  Uiso   1.00
O105   O     0.83333   0.10558   0.20487   0.00000  Uiso   1.00
O106   O     0.83334   0.22775   0.12846   0.00000  Uiso   1.00
O107   O     0.83333   0.10559   0.12843   0.00000  Uiso   1.00
O108   O     0.83334   0.22774   0.20490   0.00000  Uiso   1.00
C109   C     0.83299   0.08684   0.16637   0.00000  Uiso   1.00
C110   C     0.83368   0.24649   0.16697   0.00000  Uiso   1.00
O111   O     0.75725   0.16666   0.19595   0.00000  Uiso   1.00
O112   O     0.90942   0.16667   0.13739   0.00000  Uiso   1.00
O113   O     0.75725   0.16667   0.11950   0.00000  Uiso   1.00
O114   O     0.90942   0.16666   0.21383   0.00000  Uiso   1.00
C115   C     0.73395   0.16755   0.15478   0.00000  Uiso   1.00
C116   C     0.93272   0.16579   0.17856   0.00000  Uiso   1.00
Zn117  Zn    0.83333   0.16666   0.21771   0.00000  Uiso   1.00
Zn118  Zn    0.83333   0.16667   0.11563   0.00000  Uiso   1.00
N119   N     0.83332   0.16666   0.28573   0.00000  Uiso   1.00
N120   N     0.83335   0.16668   0.04760   0.00000  Uiso   1.00
C121   C     0.67930   0.16471   0.14830   0.00000  Uiso   1.00
C122   C     0.98737   0.16863   0.18503   0.00000  Uiso   1.00
C123   C     0.87557   0.02166   0.15247   0.00000  Uiso   1.00
C124   C     0.79109   0.31167   0.18086   0.00000  Uiso   1.00
C125   C     0.87518   0.31178   0.15256   0.00000  Uiso   1.00
C126   C     0.79148   0.02155   0.18078   0.00000  Uiso   1.00
C127   C     0.83344   0.29061   0.16726   0.00000  Uiso   1.00
C128   C     0.83322   0.04272   0.16607   0.00000  Uiso   1.00
C129   C     0.85453   0.19933   0.02771   0.00000  Uiso   1.00
C130   C     0.81214   0.13401   0.30562   0.00000  Uiso   1.00
H131   H     0.87194   0.22519   0.04891   0.00000  Uiso   1.00
H132   H     0.79472   0.10814   0.28441   0.00000  Uiso   1.00
C133   C     0.85489   0.19948   0.31329   0.00000  Uiso   1.00
C134   C     0.81178   0.13386   0.02004   0.00000  Uiso   1.00
N135   N     0.98749   0.15312   0.10292   0.00000  Uiso   1.00
O136   O     0.98864   0.17877   0.06938   0.00000  Uiso   1.00
O137   O     0.97110   0.11482   0.09403   0.00000  Uiso   1.00
N138   N     0.67918   0.18023   0.23041   0.00000  Uiso   1.00
O139   O     0.67803   0.15457   0.26395   0.00000  Uiso   1.00
O140   O     0.69558   0.21852   0.23930   0.00000  Uiso   1.00
O141   O     0.91878   0.04195   0.14096   0.00000  Uiso   1.00
H142   H     0.92114   0.07095   0.15326   0.00000  Uiso   1.00
O143   O     0.74788   0.29138   0.19236   0.00000  Uiso   1.00
H144   H     0.74552   0.26238   0.18006   0.00000  Uiso   1.00
N145   N     0.91854   0.28953   0.13989   0.00000  Uiso   1.00
O146   O     0.93632   0.29878   0.10258   0.00000  Uiso   1.00
O147   O     0.94347   0.26293   0.16779   0.00000  Uiso   1.00
N148   N     0.74812   0.04381   0.19344   0.00000  Uiso   1.00
O149   O     0.73030   0.03451   0.23072   0.00000  Uiso   1.00
O150   O     0.72322   0.07044   0.16556   0.00000  Uiso   1.00
N151   N     0.87859   0.23427   0.29449   0.00000  Uiso   1.00
O152   O     0.92061   0.22877   0.27682   0.00000  Uiso   1.00
O153   O     0.86566   0.27215   0.30434   0.00000  Uiso   1.00
N154   N     0.78808   0.09905   0.03884   0.00000  Uiso   1.00
O155   O     0.74615   0.10457   0.05663   0.00000  Uiso   1.00
O156   O     0.80090   0.06118   0.02886   0.00000  Uiso   1.00
O157   O     0.16666   0.43892   0.20487   0.00000  Uiso   1.00
O158   O     0.16667   0.56108   0.12846   0.00000  Uiso   1.00
O159   O     0.16666   0.43893   0.12843   0.00000  Uiso   1.00
O160   O     0.16667   0.56107   0.20490   0.00000  Uiso   1.00
C161   C     0.16632   0.42018   0.16637   0.00000  Uiso   1.00
C162   C     0.16701   0.57982   0.16697   0.00000  Uiso   1.00
O163   O     0.09058   0.50000   0.19595   0.00000  Uiso   1.00
O164   O     0.24275   0.50000   0.13739   0.00000  Uiso   1.00
O165   O     0.09058   0.50000   0.11950   0.00000  Uiso   1.00
O166   O     0.24275   0.50000   0.21383   0.00000  Uiso   1.00
C167   C     0.06729   0.50088   0.15478   0.00000  Uiso   1.00
C168   C     0.26605   0.49912   0.17856   0.00000  Uiso   1.00
Zn169  Zn    0.16667   0.49999   0.21771   0.00000  Uiso   1.00
Zn170  Zn    0.16667   0.50001   0.11563   0.00000  Uiso   1.00
N171   N     0.16665   0.49999   0.28573   0.00000  Uiso   1.00
N172   N     0.16668   0.50001   0.04760   0.00000  Uiso   1.00
C173   C     0.01263   0.49805   0.14830   0.00000  Uiso   1.00
C174   C     0.32070   0.50196   0.18503   0.00000  Uiso   1.00
C175   C     0.20891   0.35500   0.15247   0.00000  Uiso   1.00
C176   C     0.12442   0.64500   0.18086   0.00000  Uiso   1.00
C177   C     0.20851   0.64511   0.15256   0.00000  Uiso   1.00
C178   C     0.12482   0.35489   0.18078   0.00000  Uiso   1.00
C179   C     0.16678   0.62395   0.16726   0.00000  Uiso   1.00
C180   C     0.16656   0.37605   0.16607   0.00000  Uiso   1.00
C181   C     0.18786   0.53266   0.02771   0.00000  Uiso   1.00
C182   C     0.14547   0.46734   0.30562   0.00000  Uiso   1.00
H183   H     0.20528   0.55853   0.04891   0.00000  Uiso   1.00
H184   H     0.12806   0.44148   0.28441   0.00000  Uiso   1.00
C185   C     0.18822   0.53281   0.31329   0.00000  Uiso   1.00
C186   C     0.14511   0.46719   0.02004   0.00000  Uiso   1.00
N187   N     0.32082   0.48645   0.10292   0.00000  Uiso   1.00
O188   O     0.32197   0.51211   0.06938   0.00000  Uiso   1.00
O189   O     0.30443   0.44816   0.09403   0.00000  Uiso   1.00
N190   N     0.01251   0.51356   0.23041   0.00000  Uiso   1.00
O191   O     0.01136   0.48790   0.26395   0.00000  Uiso   1.00
O192   O     0.02891   0.55185   0.23930   0.00000  Uiso   1.00
O193   O     0.25212   0.37529   0.14096   0.00000  Uiso   1.00
H194   H     0.25447   0.40429   0.15326   0.00000  Uiso   1.00
O195   O     0.08121   0.62471   0.19236   0.00000  Uiso   1.00
H196   H     0.07886   0.59571   0.18006   0.00000  Uiso   1.00
N197   N     0.25187   0.62286   0.13989   0.00000  Uiso   1.00
O198   O     0.26965   0.63212   0.10258   0.00000  Uiso   1.00
O199   O     0.27680   0.59626   0.16779   0.00000  Uiso   1.00
N200   N     0.08145   0.37714   0.19344   0.00000  Uiso   1.00
O201   O     0.06363   0.36784   0.23072   0.00000  Uiso   1.00
O202   O     0.05656   0.40377   0.16556   0.00000  Uiso   1.00
N203   N     0.21193   0.56760   0.29449   0.00000  Uiso   1.00
O204   O     0.25394   0.56210   0.27682   0.00000  Uiso   1.00
O205   O     0.19899   0.60548   0.30434   0.00000  Uiso   1.00
N206   N     0.12141   0.43239   0.03884   0.00000  Uiso   1.00
O207   O     0.07948   0.43790   0.05663   0.00000  Uiso   1.00
O208   O     0.13423   0.39451   0.02886   0.00000  Uiso   1.00
O209   O     0.50000   0.43892   0.20487   0.00000  Uiso   1.00
O210   O     0.50000   0.56108   0.12846   0.00000  Uiso   1.00
O211   O     0.50000   0.43893   0.12843   0.00000  Uiso   1.00
O212   O     0.50000   0.56107   0.20490   0.00000  Uiso   1.00
C213   C     0.49965   0.42018   0.16637   0.00000  Uiso   1.00
C214   C     0.50035   0.57982   0.16697   0.00000  Uiso   1.00
O215   O     0.42392   0.50000   0.19595   0.00000  Uiso   1.00
O216   O     0.57608   0.50000   0.13739   0.00000  Uiso   1.00
O217   O     0.42392   0.50000   0.11950   0.00000  Uiso   1.00
O218   O     0.57608   0.50000   0.21383   0.00000  Uiso   1.00
C219   C     0.40062   0.50088   0.15478   0.00000  Uiso   1.00
C220   C     0.59938   0.49912   0.17856   0.00000  Uiso   1.00
Zn221  Zn    0.50000   0.49999   0.21771   0.00000  Uiso   1.00
Zn222  Zn    0.50000   0.50001   0.11563   0.00000  Uiso   1.00
N223   N     0.49999   0.49999   0.28573   0.00000  Uiso   1.00
N224   N     0.50001   0.50001   0.04760   0.00000  Uiso   1.00
C225   C     0.34596   0.49805   0.14830   0.00000  Uiso   1.00
C226   C     0.65404   0.50196   0.18503   0.00000  Uiso   1.00
C227   C     0.54224   0.35500   0.15247   0.00000  Uiso   1.00
C228   C     0.45775   0.64500   0.18086   0.00000  Uiso   1.00
C229   C     0.54185   0.64511   0.15256   0.00000  Uiso   1.00
C230   C     0.45815   0.35489   0.18078   0.00000  Uiso   1.00
C231   C     0.50011   0.62395   0.16726   0.00000  Uiso   1.00
C232   C     0.49989   0.37605   0.16607   0.00000  Uiso   1.00
C233   C     0.52120   0.53266   0.02771   0.00000  Uiso   1.00
C234   C     0.47881   0.46734   0.30562   0.00000  Uiso   1.00
H235   H     0.53861   0.55853   0.04891   0.00000  Uiso   1.00
H236   H     0.46139   0.44148   0.28441   0.00000  Uiso   1.00
C237   C     0.52155   0.53281   0.31329   0.00000  Uiso   1.00
C238   C     0.47845   0.46719   0.02004   0.00000  Uiso   1.00
N239   N     0.65416   0.48645   0.10292   0.00000  Uiso   1.00
O240   O     0.65530   0.51211   0.06938   0.00000  Uiso   1.00
O241   O     0.63776   0.44816   0.09403   0.00000  Uiso   1.00
N242   N     0.34585   0.51356   0.23041   0.00000  Uiso   1.00
O243   O     0.34469   0.48790   0.26395   0.00000  Uiso   1.00
O244   O     0.36224   0.55185   0.23930   0.00000  Uiso   1.00
O245   O     0.58545   0.37529   0.14096   0.00000  Uiso   1.00
H246   H     0.58781   0.40429   0.15326   0.00000  Uiso   1.00
O247   O     0.41454   0.62471   0.19236   0.00000  Uiso   1.00
H248   H     0.41219   0.59571   0.18006   0.00000  Uiso   1.00
N249   N     0.58521   0.62286   0.13989   0.00000  Uiso   1.00
O250   O     0.60299   0.63212   0.10258   0.00000  Uiso   1.00
O251   O     0.61014   0.59626   0.16779   0.00000  Uiso   1.00
N252   N     0.41479   0.37714   0.19344   0.00000  Uiso   1.00
O253   O     0.39696   0.36784   0.23072   0.00000  Uiso   1.00
O254   O     0.38989   0.40377   0.16556   0.00000  Uiso   1.00
N255   N     0.54526   0.56760   0.29449   0.00000  Uiso   1.00
O256   O     0.58728   0.56210   0.27682   0.00000  Uiso   1.00
O257   O     0.53232   0.60548   0.30434   0.00000  Uiso   1.00
N258   N     0.45475   0.43239   0.03884   0.00000  Uiso   1.00
O259   O     0.41281   0.43790   0.05663   0.00000  Uiso   1.00
O260   O     0.46757   0.39451   0.02886   0.00000  Uiso   1.00
O261   O     0.83333   0.43892   0.20487   0.00000  Uiso   1.00
O262   O     0.83334   0.56108   0.12846   0.00000  Uiso   1.00
O263   O     0.83333   0.43893   0.12843   0.00000  Uiso   1.00
O264   O     0.83334   0.56107   0.20490   0.00000  Uiso   1.00
C265   C     0.83299   0.42018   0.16637   0.00000  Uiso   1.00
C266   C     0.83368   0.57982   0.16697   0.00000  Uiso   1.00
O267   O     0.75725   0.50000   0.19595   0.00000  Uiso   1.00
O268   O     0.90942   0.50000   0.13739   0.00000  Uiso   1.00
O269   O     0.75725   0.50000   0.11950   0.00000  Uiso   1.00
O270   O     0.90942   0.50000   0.21383   0.00000  Uiso   1.00
C271   C     0.73395   0.50088   0.15478   0.00000  Uiso   1.00
C272   C     0.93272   0.49912   0.17856   0.00000  Uiso   1.00
Zn273  Zn    0.83333   0.49999   0.21771   0.00000  Uiso   1.00
Zn274  Zn    0.83333   0.50001   0.11563   0.00000  Uiso   1.00
N275   N     0.83332   0.49999   0.28573   0.00000  Uiso   1.00
N276   N     0.83335   0.50001   0.04760   0.00000  Uiso   1.00
C277   C     0.67930   0.49805   0.14830   0.00000  Uiso   1.00
C278   C     0.98737   0.50196   0.18503   0.00000  Uiso   1.00
C279   C     0.87557   0.35500   0.15247   0.00000  Uiso   1.00
C280   C     0.79109   0.64500   0.18086   0.00000  Uiso   1.00
C281   C     0.87518   0.64511   0.15256   0.00000  Uiso   1.00
C282   C     0.79148   0.35489   0.18078   0.00000  Uiso   1.00
C283   C     0.83344   0.62395   0.16726   0.00000  Uiso   1.00
C284   C     0.83322   0.37605   0.16607   0.00000  Uiso   1.00
C285   C     0.85453   0.53266   0.02771   0.00000  Uiso   1.00
C286   C     0.81214   0.46734   0.30562   0.00000  Uiso   1.00
H287   H     0.87194   0.55853   0.04891   0.00000  Uiso   1.00
H288   H     0.79472   0.44148   0.28441   0.00000  Uiso   1.00
C289   C     0.85489   0.53281   0.31329   0.00000  Uiso   1.00
C290   C     0.81178   0.46719   0.02004   0.00000  Uiso   1.00
N291   N     0.98749   0.48645   0.10292   0.00000  Uiso   1.00
O292   O     0.98864   0.51211   0.06938   0.00000  Uiso   1.00
O293   O     0.97110   0.44816   0.09403   0.00000  Uiso   1.00
N294   N     0.67918   0.51356   0.23041   0.00000  Uiso   1.00
O295   O     0.67803   0.48790   0.26395   0.00000  Uiso   1.00
O296   O     0.69558   0.55185   0.23930   0.00000  Uiso   1.00
O297   O     0.91878   0.37529   0.14096   0.00000  Uiso   1.00
H298   H     0.92114   0.40429   0.15326   0.00000  Uiso   1.00
O299   O     0.74788   0.62471   0.19236   0.00000  Uiso   1.00
H300   H     0.74552   0.59571   0.18006   0.00000  Uiso   1.00
N301   N     0.91854   0.62286   0.13989   0.00000  Uiso   1.00
O302   O     0.93632   0.63212   0.10258   0.00000  Uiso   1.00
O303   O     0.94347   0.59626   0.16779   0.00000  Uiso   1.00
N304   N     0.74812   0.37714   0.19344   0.00000  Uiso   1.00
O305   O     0.73030   0.36784   0.23072   0.00000  Uiso   1.00
O306   O     0.72322   0.40377   0.16556   0.00000  Uiso   1.00
N307   N     0.87859   0.56760   0.29449   0.00000  Uiso   1.00
O308   O     0.92061   0.56210   0.27682   0.00000  Uiso   1.00
O309   O     0.86566   0.60548   0.30434   0.00000  Uiso   1.00
N310   N     0.78808   0.43239   0.03884   0.00000  Uiso   1.00
O311   O     0.74615   0.43790   0.05663   0.00000  Uiso   1.00
O312   O     0.80090   0.39451   0.02886   0.00000  Uiso   1.00
O313   O     0.16666   0.77225   0.20487   0.00000  Uiso   1.00
O314   O     0.16667   0.89442   0.12846   0.00000  Uiso   1.00
O315   O     0.16666   0.77226   0.12843   0.00000  Uiso   1.00
O316   O     0.16667   0.89441   0.20490   0.00000  Uiso   1.00
C317   C     0.16632   0.75351   0.16637   0.00000  Uiso   1.00
C318   C     0.16701   0.91316   0.16697   0.00000  Uiso   1.00
O319   O     0.09058   0.83333   0.19595   0.00000  Uiso   1.00
O320   O     0.24275   0.83334   0.13739   0.00000  Uiso   1.00
O321   O     0.09058   0.83334   0.11950   0.00000  Uiso   1.00
O322   O     0.24275   0.83333   0.21383   0.00000  Uiso   1.00
C323   C     0.06729   0.83422   0.15478   0.00000  Uiso   1.00
C324   C     0.26605   0.83245   0.17856   0.00000  Uiso   1.00
Zn325  Zn    0.16667   0.83333   0.21771   0.00000  Uiso   1.00
Zn326  Zn    0.16667   0.83334   0.11563   0.00000  Uiso   1.00
N327   N     0.16665   0.83332   0.28573   0.00000  Uiso   1.00
N328   N     0.16668   0.83334   0.04760   0.00000  Uiso   1.00
C329   C     0.01263   0.83138   0.14830   0.00000  Uiso   1.00
C330   C     0.32070   0.83529   0.18503   0.00000  Uiso   1.00
C331   C     0.20891   0.68833   0.15247   0.00000  Uiso   1.00
C332   C     0.12442   0.97833   0.18086   0.00000  Uiso   1.00
C333   C     0.20851   0.97845   0.15256   0.00000  Uiso   1.00
C334   C     0.12482   0.68822   0.18078   0.00000  Uiso   1.00
C335   C     0.16678   0.95728   0.16726   0.00000  Uiso   1.00
C336   C     0.16656   0.70939   0.16607   0.00000  Uiso   1.00
C337   C     0.18786   0.86600   0.02771   0.00000  Uiso   1.00
C338   C     0.14547   0.80067   0.30562   0.00000  Uiso   1.00
H339   H     0.20528   0.89186   0.04891   0.00000  Uiso   1.00
H340   H     0.12806   0.77481   0.28441   0.00000  Uiso   1.00
C341   C     0.18822   0.86614   0.31329   0.00000  Uiso   1.00
C342   C     0.14511   0.80052   0.02004   0.00000  Uiso   1.00
N343   N     0.32082   0.81978   0.10292   0.00000  Uiso   1.00
O344   O     0.32197   0.84544   0.06938   0.00000  Uiso   1.00
O345   O     0.30443   0.78149   0.09403   0.00000  Uiso   1.00
N346   N     0.01251   0.84689   0.23041   0.00000  Uiso   1.00
O347   O     0.01136   0.82124   0.26395   0.00000  Uiso   1.00
O348   O     0.02891   0.88519   0.23930   0.00000  Uiso   1.00
O349   O     0.25212   0.70862   0.14096   0.00000  Uiso   1.00
H350   H     0.25447   0.73762   0.15326   0.00000  Uiso   1.00
O351   O     0.08121   0.95804   0.19236   0.00000  Uiso   1.00
H352   H     0.07886   0.92905   0.18006   0.00000  Uiso   1.00
N353   N     0.25187   0.95619   0.13989   0.00000  Uiso   1.00
O354   O     0.26965   0.96545   0.10258   0.00000  Uiso   1.00
O355   O     0.27680   0.92959   0.16779   0.00000  Uiso   1.00
N356   N     0.08145   0.71047   0.19344   0.00000  Uiso   1.00
O357   O     0.06363   0.70118   0.23072   0.00000  Uiso   1.00
O358   O     0.05656   0.73711   0.16556   0.00000  Uiso   1.00
N359   N     0.21193   0.90094   0.29449   0.00000  Uiso   1.00
O360   O     0.25394   0.89543   0.27682   0.00000  Uiso   1.00
O361   O     0.19899   0.93881   0.30434   0.00000  Uiso   1.00
N362   N     0.12141   0.76572   0.03884   0.00000  Uiso   1.00
O363   O     0.07948   0.77123   0.05663   0.00000  Uiso   1.00
O364   O     0.13423   0.72785   0.02886   0.00000  Uiso   1.00
O365   O     0.50000   0.77225   0.20487   0.00000  Uiso   1.00
O366   O     0.50000   0.89442   0.12846   0.00000  Uiso   1.00
O367   O     0.50000   0.77226   0.12843   0.00000  Uiso   1.00
O368   O     0.50000   0.89441   0.20490   0.00000  Uiso   1.00
C369   C     0.49965   0.75351   0.16637   0.00000  Uiso   1.00
C370   C     0.50035   0.91316   0.16697   0.00000  Uiso   1.00
O371   O     0.42392   0.83333   0.19595   0.00000  Uiso   1.00
O372   O     0.57608   0.83334   0.13739   0.00000  Uiso   1.00
O373   O     0.42392   0.83334   0.11950   0.00000  Uiso   1.00
O374   O     0.57608   0.83333   0.21383   0.00000  Uiso   1.00
C375   C     0.40062   0.83422   0.15478   0.00000  Uiso   1.00
C376   C     0.59938   0.83245   0.17856   0.00000  Uiso   1.00
Zn377  Zn    0.50000   0.83333   0.21771   0.00000  Uiso   1.00
Zn378  Zn    0.50000   0.83334   0.11563   0.00000  Uiso   1.00
N379   N     0.49999   0.83332   0.28573   0.00000  Uiso   1.00
N380   N     0.50001   0.83334   0.04760   0.00000  Uiso   1.00
C381   C     0.34596   0.83138   0.14830   0.00000  Uiso   1.00
C382   C     0.65404   0.83529   0.18503   0.00000  Uiso   1.00
C383   C     0.54224   0.68833   0.15247   0.00000  Uiso   1.00
C384   C     0.45775   0.97833   0.18086   0.00000  Uiso   1.00
C385   C     0.54185   0.97845   0.15256   0.00000  Uiso   1.00
C386   C     0.45815   0.68822   0.18078   0.00000  Uiso   1.00
C387   C     0.50011   0.95728   0.16726   0.00000  Uiso   1.00
C388   C     0.49989   0.70939   0.16607   0.00000  Uiso   1.00
C389   C     0.52120   0.86600   0.02771   0.00000  Uiso   1.00
C390   C     0.47881   0.80067   0.30562   0.00000  Uiso   1.00
H391   H     0.53861   0.89186   0.04891   0.00000  Uiso   1.00
H392   H     0.46139   0.77481   0.28441   0.00000  Uiso   1.00
C393   C     0.52155   0.86614   0.31329   0.00000  Uiso   1.00
C394   C     0.47845   0.80052   0.02004   0.00000  Uiso   1.00
N395   N     0.65416   0.81978   0.10292   0.00000  Uiso   1.00
O396   O     0.65530   0.84544   0.06938   0.00000  Uiso   1.00
O397   O     0.63776   0.78149   0.09403   0.00000  Uiso   1.00
N398   N     0.34585   0.84689   0.23041   0.00000  Uiso   1.00
O399   O     0.34469   0.82124   0.26395   0.00000  Uiso   1.00
O400   O     0.36224   0.88519   0.23930   0.00000  Uiso   1.00
O401   O     0.58545   0.70862   0.14096   0.00000  Uiso   1.00
H402   H     0.58781   0.73762   0.15326   0.00000  Uiso   1.00
O403   O     0.41454   0.95804   0.19236   0.00000  Uiso   1.00
H404   H     0.41219   0.92905   0.18006   0.00000  Uiso   1.00
N405   N     0.58521   0.95619   0.13989   0.00000  Uiso   1.00
O406   O     0.60299   0.96545   0.10258   0.00000  Uiso   1.00
O407   O     0.61014   0.92959   0.16779   0.00000  Uiso   1.00
N408   N     0.41479   0.71047   0.19344   0.00000  Uiso   1.00
O409   O     0.39696   0.70118   0.23072   0.00000  Uiso   1.00
O410   O     0.38989   0.73711   0.16556   0.00000  Uiso   1.00
N411   N     0.54526   0.90094   0.29449   0.00000  Uiso   1.00
O412   O     0.58728   0.89543   0.27682   0.00000  Uiso   1.00
O413   O     0.53232   0.93881   0.30434   0.00000  Uiso   1.00
N414   N     0.45475   0.76572   0.03884   0.00000  Uiso   1.00
O415   O     0.41281   0.77123   0.05663   0.00000  Uiso   1.00
O416   O     0.46757   0.72785   0.02886   0.00000  Uiso   1.00
O417   O     0.83333   0.77225   0.20487   0.00000  Uiso   1.00
O418   O     0.83334   0.89442   0.12846   0.00000  Uiso   1.00
O419   O     0.83333   0.77226   0.12843   0.00000  Uiso   1.00
O420   O     0.83334   0.89441   0.20490   0.00000  Uiso   1.00
C421   C     0.83299   0.75351   0.16637   0.00000  Uiso   1.00
C422   C     0.83368   0.91316   0.16697   0.00000  Uiso   1.00
O423   O     0.75725   0.83333   0.19595   0.00000  Uiso   1.00
O424   O     0.90942   0.83334   0.13739   0.00000  Uiso   1.00
O425   O     0.75725   0.83334   0.11950   0.00000  Uiso   1.00
O426   O     0.90942   0.83333   0.21383   0.00000  Uiso   1.00
C427   C     0.73395   0.83422   0.15478   0.00000  Uiso   1.00
C428   C     0.93272   0.83245   0.17856   0.00000  Uiso   1.00
Zn429  Zn    0.83333   0.83333   0.21771   0.00000  Uiso   1.00
Zn430  Zn    0.83333   0.83334   0.11563   0.00000  Uiso   1.00
N431   N     0.83332   0.83332   0.28573   0.00000  Uiso   1.00
N432   N     0.83335   0.83334   0.04760   0.00000  Uiso   1.00
C433   C     0.67930   0.83138   0.14830   0.00000  Uiso   1.00
C434   C     0.98737   0.83529   0.18503   0.00000  Uiso   1.00
C435   C     0.87557   0.68833   0.15247   0.00000  Uiso   1.00
C436   C     0.79109   0.97833   0.18086   0.00000  Uiso   1.00
C437   C     0.87518   0.97845   0.15256   0.00000  Uiso   1.00
C438   C     0.79148   0.68822   0.18078   0.00000  Uiso   1.00
C439   C     0.83344   0.95728   0.16726   0.00000  Uiso   1.00
C440   C     0.83322   0.70939   0.16607   0.00000  Uiso   1.00
C441   C     0.85453   0.86600   0.02771   0.00000  Uiso   1.00
C442   C     0.81214   0.80067   0.30562   0.00000  Uiso   1.00
H443   H     0.87194   0.89186   0.04891   0.00000  Uiso   1.00
H444   H     0.79472   0.77481   0.28441   0.00000  Uiso   1.00
C445   C     0.85489   0.86614   0.31329   0.00000  Uiso   1.00
C446   C     0.81178   0.80052   0.02004   0.00000  Uiso   1.00
N447   N     0.98749   0.81978   0.10292   0.00000  Uiso   1.00
O448   O     0.98864   0.84544   0.06938   0.00000  Uiso   1.00
O449   O     0.97110   0.78149   0.09403   0.00000  Uiso   1.00
N450   N     0.67918   0.84689   0.23041   0.00000  Uiso   1.00
O451   O     0.67803   0.82124   0.26395   0.00000  Uiso   1.00
O452   O     0.69558   0.88519   0.23930   0.00000  Uiso   1.00
O453   O     0.91878   0.70862   0.14096   0.00000  Uiso   1.00
H454   H     0.92114   0.73762   0.15326   0.00000  Uiso   1.00
O455   O     0.74788   0.95804   0.19236   0.00000  Uiso   1.00
H456   H     0.74552   0.92905   0.18006   0.00000  Uiso   1.00
N457   N     0.91854   0.95619   0.13989   0.00000  Uiso   1.00
O458   O     0.93632   0.96545   0.10258   0.00000  Uiso   1.00
O459   O     0.94347   0.92959   0.16779   0.00000  Uiso   1.00
N460   N     0.74812   0.71047   0.19344   0.00000  Uiso   1.00
O461   O     0.73030   0.70118   0.23072   0.00000  Uiso   1.00
O462   O     0.72322   0.73711   0.16556   0.00000  Uiso   1.00
N463   N     0.87859   0.90094   0.29449   0.00000  Uiso   1.00
O464   O     0.92061   0.89543   0.27682   0.00000  Uiso   1.00
O465   O     0.86566   0.93881   0.30434   0.00000  Uiso   1.00
N466   N     0.78808   0.76572   0.03884   0.00000  Uiso   1.00
O467   O     0.74615   0.77123   0.05663   0.00000  Uiso   1.00
O468   O     0.80090   0.72785   0.02886   0.00000  Uiso   1.00
O469   O     0.16666   0.10558   0.53821   0.00000  Uiso   1.00
O470   O     0.16667   0.22775   0.46179   0.00000  Uiso   1.00
O471   O     0.16666   0.10559   0.46176   0.00000  Uiso   1.00
O472   O     0.16667   0.22774   0.53824   0.00000  Uiso   1.00
C473   C     0.16632   0.08684   0.49970   0.00000  Uiso   1.00
C474   C     0.16701   0.24649   0.50030   0.00000  Uiso   1.00
O475   O     0.09058   0.16666   0.52928   0.00000  Uiso   1.00
O476   O     0.24275   0.16667   0.47072   0.00000  Uiso   1.00
O477   O     0.09058   0.16667   0.45284   0.00000  Uiso   1.00
O478   O     0.24275   0.16666   0.54716   0.00000  Uiso   1.00
C479   C     0.06729   0.16755   0.48811   0.00000  Uiso   1.00
C480   C     0.26605   0.16579   0.51189   0.00000  Uiso   1.00
Zn481  Zn    0.16667   0.16666   0.55104   0.00000  Uiso   1.00
Zn482  Zn    0.16667   0.16667   0.44896   0.00000  Uiso   1.00
N483   N     0.16665   0.16666   0.61907   0.00000  Uiso   1.00
N484   N     0.16668   0.16668   0.38093   0.00000  Uiso   1.00
C485   C     0.01263   0.16471   0.48164   0.00000  Uiso   1.00
C486   C     0.32070   0.16863   0.51836   0.00000  Uiso   1.00
C487   C     0.20891   0.02166   0.48580   0.00000  Uiso   1.00
C488   C     0.12442   0.31167   0.51419   0.00000  Uiso   1.00
C489   C     0.20851   0.31178   0.48589   0.00000  Uiso   1.00
C490   C     0.12482   0.02155   0.51411   0.00000  Uiso   1.00
C491   C     0.16678   0.29061   0.50060   0.00000  Uiso   1.00
C492   C     0.16656   0.04272   0.49940   0.00000  Uiso   1.00
C493   C     0.18786   0.19933   0.36105   0.00000  Uiso   1.00
C494   C     0.14547   0.13401   0.63895   0.00000  Uiso   1.00
H495   H     0.20528   0.22519   0.38225   0.00000  Uiso   1.00
H496   H     0.12806   0.10814   0.61775   0.00000  Uiso   1.00
C497   C     0.18822   0.19948   0.64662   0.00000  Uiso   1.00
C498   C     0.14511   0.13386   0.35337   0.00000  Uiso   1.00
N499   N     0.32082   0.15312   0.43625   0.00000  Uiso   1.00
O500   O     0.32197   0.17877   0.40272   0.00000  Uiso   1.00
O501   O     0.30443   0.11482   0.42737   0.00000  Uiso   1.00
N502   N     0.01251   0.18023   0.56375   0.00000  Uiso   1.00
O503   O     0.01136   0.15457   0.59728   0.00000  Uiso   1.00
O504   O     0.02891   0.21852   0.57263   0.00000  Uiso   1.00
O505   O     0.25212   0.04195   0.47430   0.00000  Uiso   1.00
H506   H     0.25447   0.07095   0.48659   0.00000  Uiso   1.00
O507   O     0.08121   0.29138   0.52569   0.00000  Uiso   1.00
H508   H     0.07886   0.26238   0.51339   0.00000  Uiso   1.00
N509   N     0.25187   0.28953   0.47322   0.00000  Uiso   1.00
O510   O     0.26965   0.29878   0.43592   0.00000  Uiso   1.00
O511   O     0.27680   0.26293   0.50112   0.00000  Uiso   1.00
N512   N     0.08145   0.04381   0.52677   0.00000  Uiso   1.00
O513   O     0.06363   0.03451   0.56405   0.00000  Uiso   1.00
O514   O     0.05656   0.07044   0.49889   0.00000  Uiso   1.00
N515   N     0.21193   0.23427   0.62782   0.00000  Uiso   1.00
O516   O     0.25394   0.22877   0.61015   0.00000  Uiso   1.00
O517   O     0.19899   0.27215   0.63767   0.00000  Uiso   1.00
N518   N     0.12141   0.09905   0.37217   0.00000  Uiso   1.00
O519   O     0.07948   0.10457   0.38996   0.00000  Uiso   1.00
O520   O     0.13423   0.06118   0.36219   0.00000  Uiso   1.00
O521   O     0.50000   0.10558   0.53821   0.00000  Uiso   1.00
O522   O     0.50000   0.22775   0.46179   0.00000  Uiso   1.00
O523   O     0.50000   0.10559   0.46176   0.00000  Uiso   1.00
O524   O     0.50000   0.22774   0.53824   0.00000  Uiso   1.00
C525   C     0.49965   0.08684   0.49970   0.00000  Uiso   1.00
C526   C     0.50035   0.24649   0.50030   0.00000  Uiso   1.00
O527   O     0.42392   0.16666   0.52928   0.00000  Uiso   1.00
O528   O     0.57608   0.16667   0.47072   0.00000  Uiso   1.00
O529   O     0.42392   0.16667   0.45284   0.00000  Uiso   1.00
O530   O     0.57608   0.16666   0.54716   0.00000  Uiso   1.00
C531   C     0.40062   0.16755   0.48811   0.00000  Uiso   1.00
C532   C     0.59938   0.16579   0.51189   0.00000  Uiso   1.00
Zn533  Zn    0.50000   0.16666   0.55104   0.00000  Uiso   1.00
Zn534  Zn    0.50000   0.16667   0.44896   0.00000  Uiso   1.00
N535   N     0.49999   0.16666   0.61907   0.00000  Uiso   1.00
N536   N     0.50001   0.16668   0.38093   0.00000  Uiso   1.00
C537   C     0.34596   0.16471   0.48164   0.00000  Uiso   1.00
C538   C     0.65404   0.16863   0.51836   0.00000  Uiso   1.00
C539   C     0.54224   0.02166   0.48580   0.00000  Uiso   1.00
C540   C     0.45775   0.31167   0.51419   0.00000  Uiso   1.00
C541   C     0.54185   0.31178   0.48589   0.00000  Uiso   1.00
C542   C     0.45815   0.02155   0.51411   0.00000  Uiso   1.00
C543   C     0.50011   0.29061   0.50060   0.00000  Uiso   1.00
C544   C     0.49989   0.04272   0.49940   0.00000  Uiso   1.00
C545   C     0.52120   0.19933   0.36105   0.00000  Uiso   1.00
C546   C     0.47881   0.13401   0.63895   0.00000  Uiso   1.00
H547   H     0.53861   0.22519   0.38225   0.00000  Uiso   1.00
H548   H     0.46139   0.10814   0.61775   0.00000  Uiso   1.00
C549   C     0.52155   0.19948   0.64662   0.00000  Uiso   1.00
C550   C     0.47845   0.13386   0.35337   0.00000  Uiso   1.00
N551   N     0.65416   0.15312   0.43625   0.00000  Uiso   1.00
O552   O     0.65530   0.17877   0.40272   0.00000  Uiso   1.00
O553   O     0.63776   0.11482   0.42737   0.00000  Uiso   1.00
N554   N     0.34585   0.18023   0.56375   0.00000  Uiso   1.00
O555   O     0.34469   0.15457   0.59728   0.00000  Uiso   1.00
O556   O     0.36224   0.21852   0.57263   0.00000  Uiso   1.00
O557   O     0.58545   0.04195   0.47430   0.00000  Uiso   1.00
H558   H     0.58781   0.07095   0.48659   0.00000  Uiso   1.00
O559   O     0.41454   0.29138   0.52569   0.00000  Uiso   1.00
H560   H     0.41219   0.26238   0.51339   0.00000  Uiso   1.00
N561   N     0.58521   0.28953   0.47322   0.00000  Uiso   1.00
O562   O     0.60299   0.29878   0.43592   0.00000  Uiso   1.00
O563   O     0.61014   0.26293   0.50112   0.00000  Uiso   1.00
N564   N     0.41479   0.04381   0.52677   0.00000  Uiso   1.00
O565   O     0.39696   0.03451   0.56405   0.00000  Uiso   1.00
O566   O     0.38989   0.07044   0.49889   0.00000  Uiso   1.00
N567   N     0.54526   0.23427   0.62782   0.00000  Uiso   1.00
O568   O     0.58728   0.22877   0.61015   0.00000  Uiso   1.00
O569   O     0.53232   0.27215   0.63767   0.00000  Uiso   1.00
N570   N     0.45475   0.09905   0.37217   0.00000  Uiso   1.00
O571   O     0.41281   0.10457   0.38996   0.00000  Uiso   1.00
O572   O     0.46757   0.06118   0.36219   0.00000  Uiso   1.00
O573   O     0.83333   0.10558   0.53821   0.00000  Uiso   1.00
O574   O     0.83334   0.22775   0.46179   0.00000  Uiso   1.00
O575   O     0.83333   0.10559   0.46176   0.00000  Uiso   1.00
O576   O     0.83334   0.22774   0.53824   0.00000  Uiso   1.00
C577   C     0.83299   0.08684   0.49970   0.00000  Uiso   1.00
C578   C     0.83368   0.24649   0.50030   0.00000  Uiso   1.00
O579   O     0.75725   0.16666   0.52928   0.00000  Uiso   1.00
O580   O     0.90942   0.16667   0.47072   0.00000  Uiso   1.00
O581   O     0.75725   0.16667   0.45284   0.00000  Uiso   1.00
O582   O     0.90942   0.16666   0.54716   0.00000  Uiso   1.00
C583   C     0.73395   0.16755   0.48811   0.00000  Uiso   1.00
C584   C     0.93272   0.16579   0.51189   0.00000  Uiso   1.00
Zn585  Zn    0.83333   0.16666   0.55104   0.00000  Uiso   1.00
Zn586  Zn    0.83333   0.16667   0.44896   0.00000  Uiso   1.00
N587   N     0.83332   0.16666   0.61907   0.00000  Uiso   1.00
N588   N     0.83335   0.16668   0.38093   0.00000  Uiso   1.00
C589   C     0.67930   0.16471   0.48164   0.00000  Uiso   1.00
C590   C     0.98737   0.16863   0.51836   0.00000  Uiso   1.00
C591   C     0.87557   0.02166   0.48580   0.00000  Uiso   1.00
C592   C     0.79109   0.31167   0.51419   0.00000  Uiso   1.00
C593   C     0.87518   0.31178   0.48589   0.00000  Uiso   1.00
C594   C     0.79148   0.02155   0.51411   0.00000  Uiso   1.00
C595   C     0.83344   0.29061   0.50060   0.00000  Uiso   1.00
C596   C     0.83322   0.04272   0.49940   0.00000  Uiso   1.00
C597   C     0.85453   0.19933   0.36105   0.00000  Uiso   1.00
C598   C     0.81214   0.13401   0.63895   0.00000  Uiso   1.00
H599   H     0.87194   0.22519   0.38225   0.00000  Uiso   1.00
H600   H     0.79472   0.10814   0.61775   0.00000  Uiso   1.00
C601   C     0.85489   0.19948   0.64662   0.00000  Uiso   1.00
C602   C     0.81178   0.13386   0.35337   0.00000  Uiso   1.00
N603   N     0.98749   0.15312   0.43625   0.00000  Uiso   1.00
O604   O     0.98864   0.17877   0.40272   0.00000  Uiso   1.00
O605   O     0.97110   0.11482   0.42737   0.00000  Uiso   1.00
N606   N     0.67918   0.18023   0.56375   0.00000  Uiso   1.00
O607   O     0.67803   0.15457   0.59728   0.00000  Uiso   1.00
O608   O     0.69558   0.21852   0.57263   0.00000  Uiso   1.00
O609   O     0.91878   0.04195   0.47430   0.00000  Uiso   1.00
H610   H     0.92114   0.07095   0.48659   0.00000  Uiso   1.00
O611   O     0.74788   0.29138   0.52569   0.00000  Uiso   1.00
H612   H     0.74552   0.26238   0.51339   0.00000  Uiso   1.00
N613   N     0.91854   0.28953   0.47322   0.00000  Uiso   1.00
O614   O     0.93632   0.29878   0.43592   0.00000  Uiso   1.00
O615   O     0.94347   0.26293   0.50112   0.00000  Uiso   1.00
N616   N     0.74812   0.04381   0.52677   0.00000  Uiso   1.00
O617   O     0.73030   0.03451   0.56405   0.00000  Uiso   1.00
O618   O     0.72322   0.07044   0.49889   0.00000  Uiso   1.00
N619   N     0.87859   0.23427   0.62782   0.00000  Uiso   1.00
O620   O     0.92061   0.22877   0.61015   0.00000  Uiso   1.00
O621   O     0.86566   0.27215   0.63767   0.00000  Uiso   1.00
N622   N     0.78808   0.09905   0.37217   0.00000  Uiso   1.00
O623   O     0.74615   0.10457   0.38996   0.00000  Uiso   1.00
O624   O     0.80090   0.06118   0.36219   0.00000  Uiso   1.00
O625   O     0.16666   0.43892   0.53821   0.00000  Uiso   1.00
O626   O     0.16667   0.56108   0.46179   0.00000  Uiso   1.00
O627   O     0.16666   0.43893   0.46176   0.00000  Uiso   1.00
O628   O     0.16667   0.56107   0.53824   0.00000  Uiso   1.00
C629   C     0.16632   0.42018   0.49970   0.00000  Uiso   1.00
C630   C     0.16701   0.57982   0.50030   0.00000  Uiso   1.00
O631   O     0.09058   0.50000   0.52928   0.00000  Uiso   1.00
O632   O     0.24275   0.50000   0.47072   0.00000  Uiso   1.00
O633   O     0.09058   0.50000   0.45284   0.00000  Uiso   1.00
O634   O     0.24275   0.50000   0.54716   0.00000  Uiso   1.00
C635   C     0.06729   0.50088   0.48811   0.00000  Uiso   1.00
C636   C     0.26605   0.49912   0.51189   0.00000  Uiso   1.00
Zn637  Zn    0.16667   0.49999   0.55104   0.00000  Uiso   1.00
Zn638  Zn    0.16667   0.50001   0.44896   0.00000  Uiso   1.00
N639   N     0.16665   0.49999   0.61907   0.00000  Uiso   1.00
N640   N     0.16668   0.50001   0.38093   0.00000  Uiso   1.00
C641   C     0.01263   0.49805   0.48164   0.00000  Uiso   1.00
C642   C     0.32070   0.50196   0.51836   0.00000  Uiso   1.00
C643   C     0.20891   0.35500   0.48580   0.00000  Uiso   1.00
C644   C     0.12442   0.64500   0.51419   0.00000  Uiso   1.00
C645   C     0.20851   0.64511   0.48589   0.00000  Uiso   1.00
C646   C     0.12482   0.35489   0.51411   0.00000  Uiso   1.00
C647   C     0.16678   0.62395   0.50060   0.00000  Uiso   1.00
C648   C     0.16656   0.37605   0.49940   0.00000  Uiso   1.00
C649   C     0.18786   0.53266   0.36105   0.00000  Uiso   1.00
C650   C     0.14547   0.46734   0.63895   0.00000  Uiso   1.00
H651   H     0.20528   0.55853   0.38225   0.00000  Uiso   1.00
H652   H     0.12806   0.44148   0.61775   0.00000  Uiso   1.00
C653   C     0.18822   0.53281   0.64662   0.00000  Uiso   1.00
C654   C     0.14511   0.46719   0.35337   0.00000  Uiso   1.00
N655   N     0.32082   0.48645   0.43625   0.00000  Uiso   1.00
O656   O     0.32197   0.51211   0.40272   0.00000  Uiso   1.00
O657   O     0.30443   0.44816   0.42737   0.00000  Uiso   1.00
N658   N     0.01251   0.51356   0.56375   0.00000  Uiso   1.00
O659   O     0.01136   0.48790   0.59728   0.00000  Uiso   1.00
O660   O     0.02891   0.55185   0.57263   0.00000  Uiso   1.00
O661   O     0.25212   0.37529   0.47430   0.00000  Uiso   1.00
H662   H     0.25447   0.40429   0.48659   0.00000  Uiso   1.00
O663   O     0.08121   0.62471   0.52569   0.00000  Uiso   1.00
H664   H     0.07886   0.59571   0.51339   0.00000  Uiso   1.00
N665   N     0.25187   0.62286   0.47322   0.00000  Uiso   1.00
O666   O     0.26965   0.63212   0.43592   0.00000  Uiso   1.00
O667   O     0.27680   0.59626   0.50112   0.00000  Uiso   1.00
N668   N     0.08145   0.37714   0.52677   0.00000  Uiso   1.00
O669   O     0.06363   0.36784   0.56405   0.00000  Uiso   1.00
O670   O     0.05656   0.40377   0.49889   0.00000  Uiso   1.00
N671   N     0.21193   0.56760   0.62782   0.00000  Uiso   1.00
O672   O     0.25394   0.56210   0.61015   0.00000  Uiso   1.00
O673   O     0.19899   0.60548   0.63767   0.00000  Uiso   1.00
N674   N     0.12141   0.43239   0.37217   0.00000  Uiso   1.00
O675   O     0.07948   0.43790   0.38996   0.00000  Uiso   1.00
O676   O     0.13423   0.39451   0.36219   0.00000  Uiso   1.00
O677   O     0.50000   0.43892   0.53821   0.00000  Uiso   1.00
O678   O     0.50000   0.56108   0.46179   0.00000  Uiso   1.00
O679   O     0.50000   0.43893   0.46176   0.00000  Uiso   1.00
O680   O     0.50000   0.56107   0.53824   0.00000  Uiso   1.00
C681   C     0.49965   0.42018   0.49970   0.00000  Uiso   1.00
C682   C     0.50035   0.57982   0.50030   0.00000  Uiso   1.00
O683   O     0.42392   0.50000   0.52928   0.00000  Uiso   1.00
O684   O     0.57608   0.50000   0.47072   0.00000  Uiso   1.00
O685   O     0.42392   0.50000   0.45284   0.00000  Uiso   1.00
O686   O     0.57608   0.50000   0.54716   0.00000  Uiso   1.00
C687   C     0.40062   0.50088   0.48811   0.00000  Uiso   1.00
C688   C     0.59938   0.49912   0.51189   0.00000  Uiso   1.00
Zn689  Zn    0.50000   0.49999   0.55104   0.00000  Uiso   1.00
Zn690  Zn    0.50000   0.50001   0.44896   0.00000  Uiso   1.00
N691   N     0.49999   0.49999   0.61907   0.00000  Uiso   1.00
N692   N     0.50001   0.50001   0.38093   0.00000  Uiso   1.00
C693   C     0.34596   0.49805   0.48164   0.00000  Uiso   1.00
C694   C     0.65404   0.50196   0.51836   0.00000  Uiso   1.00
C695   C     0.54224   0.35500   0.48580   0.00000  Uiso   1.00
C696   C     0.45775   0.64500   0.51419   0.00000  Uiso   1.00
C697   C     0.54185   0.64511   0.48589   0.00000  Uiso   1.00
C698   C     0.45815   0.35489   0.51411   0.00000  Uiso   1.00
C699   C     0.50011   0.62395   0.50060   0.00000  Uiso   1.00
C700   C     0.49989   0.37605   0.49940   0.00000  Uiso   1.00
C701   C     0.52120   0.53266   0.36105   0.00000  Uiso   1.00
C702   C     0.47881   0.46734   0.63895   0.00000  Uiso   1.00
H703   H     0.53861   0.55853   0.38225   0.00000  Uiso   1.00
H704   H     0.46139   0.44148   0.61775   0.00000  Uiso   1.00
C705   C     0.52155   0.53281   0.64662   0.00000  Uiso   1.00
C706   C     0.47845   0.46719   0.35337   0.00000  Uiso   1.00
N707   N     0.65416   0.48645   0.43625   0.00000  Uiso   1.00
O708   O     0.65530   0.51211   0.40272   0.00000  Uiso   1.00
O709   O     0.63776   0.44816   0.42737   0.00000  Uiso   1.00
N710   N     0.34585   0.51356   0.56375   0.00000  Uiso   1.00
O711   O     0.34469   0.48790   0.59728   0.00000  Uiso   1.00
O712   O     0.36224   0.55185   0.57263   0.00000  Uiso   1.00
O713   O     0.58545   0.37529   0.47430   0.00000  Uiso   1.00
H714   H     0.58781   0.40429   0.48659   0.00000  Uiso   1.00
O715   O     0.41454   0.62471   0.52569   0.00000  Uiso   1.00
H716   H     0.41219   0.59571   0.51339   0.00000  Uiso   1.00
N717   N     0.58521   0.62286   0.47322   0.00000  Uiso   1.00
O718   O     0.60299   0.63212   0.43592   0.00000  Uiso   1.00
O719   O     0.61014   0.59626   0.50112   0.00000  Uiso   1.00
N720   N     0.41479   0.37714   0.52677   0.00000  Uiso   1.00
O721   O     0.39696   0.36784   0.56405   0.00000  Uiso   1.00
O722   O     0.38989   0.40377   0.49889   0.00000  Uiso   1.00
N723   N     0.54526   0.56760   0.62782   0.00000  Uiso   1.00
O724   O     0.58728   0.56210   0.61015   0.00000  Uiso   1.00
O725   O     0.53232   0.60548   0.63767   0.00000  Uiso   1.00
N726   N     0.45475   0.43239   0.37217   0.00000  Uiso   1.00
O727   O     0.41281   0.43790   0.38996   0.00000  Uiso   1.00
O728   O     0.46757   0.39451   0.36219   0.00000  Uiso   1.00
O729   O     0.83333   0.43892   0.53821   0.00000  Uiso   1.00
O730   O     0.83334   0.56108   0.46179   0.00000  Uiso   1.00
O731   O     0.83333   0.43893   0.46176   0.00000  Uiso   1.00
O732   O     0.83334   0.56107   0.53824   0.00000  Uiso   1.00
C733   C     0.83299   0.42018   0.49970   0.00000  Uiso   1.00
C734   C     0.83368   0.57982   0.50030   0.00000  Uiso   1.00
O735   O     0.75725   0.50000   0.52928   0.00000  Uiso   1.00
O736   O     0.90942   0.50000   0.47072   0.00000  Uiso   1.00
O737   O     0.75725   0.50000   0.45284   0.00000  Uiso   1.00
O738   O     0.90942   0.50000   0.54716   0.00000  Uiso   1.00
C739   C     0.73395   0.50088   0.48811   0.00000  Uiso   1.00
C740   C     0.93272   0.49912   0.51189   0.00000  Uiso   1.00
Zn741  Zn    0.83333   0.49999   0.55104   0.00000  Uiso   1.00
Zn742  Zn    0.83333   0.50001   0.44896   0.00000  Uiso   1.00
N743   N     0.83332   0.49999   0.61907   0.00000  Uiso   1.00
N744   N     0.83335   0.50001   0.38093   0.00000  Uiso   1.00
C745   C     0.67930   0.49805   0.48164   0.00000  Uiso   1.00
C746   C     0.98737   0.50196   0.51836   0.00000  Uiso   1.00
C747   C     0.87557   0.35500   0.48580   0.00000  Uiso   1.00
C748   C     0.79109   0.64500   0.51419   0.00000  Uiso   1.00
C749   C     0.87518   0.64511   0.48589   0.00000  Uiso   1.00
C750   C     0.79148   0.35489   0.51411   0.00000  Uiso   1.00
C751   C     0.83344   0.62395   0.50060   0.00000  Uiso   1.00
C752   C     0.83322   0.37605   0.49940   0.00000  Uiso   1.00
C753   C     0.85453   0.53266   0.36105   0.00000  Uiso   1.00
C754   C     0.81214   0.46734   0.63895   0.00000  Uiso   1.00
H755   H     0.87194   0.55853   0.38225   0.00000  Uiso   1.00
H756   H     0.79472   0.44148   0.61775   0.00000  Uiso   1.00
C757   C     0.85489   0.53281   0.64662   0.00000  Uiso   1.00
C758   C     0.81178   0.46719   0.35337   0.00000  Uiso   1.00
N759   N     0.98749   0.48645   0.43625   0.00000  Uiso   1.00
O760   O     0.98864   0.51211   0.40272   0.00000  Uiso   1.00
O761   O     0.97110   0.44816   0.42737   0.00000  Uiso   1.00
N762   N     0.67918   0.51356   0.56375   0.00000  Uiso   1.00
O763   O     0.67803   0.48790   0.59728   0.00000  Uiso   1.00
O764   O     0.69558   0.55185   0.57263   0.00000  Uiso   1.00
O765   O     0.91878   0.37529   0.47430   0.00000  Uiso   1.00
H766   H     0.92114   0.40429   0.48659   0.00000  Uiso   1.00
O767   O     0.74788   0.62471   0.52569   0.00000  Uiso   1.00
H768   H     0.74552   0.59571   0.51339   0.00000  Uiso   1.00
N769   N     0.91854   0.62286   0.47322   0.00000  Uiso   1.00
O770   O     0.93632   0.63212   0.43592   0.00000  Uiso   1.00
O771   O     0.94347   0.59626   0.50112   0.00000  Uiso   1.00
N772   N     0.74812   0.37714   0.52677   0.00000  Uiso   1.00
O773   O     0.73030   0.36784   0.56405   0.00000  Uiso   1.00
O774   O     0.72322   0.40377   0.49889   0.00000  Uiso   1.00
N775   N     0.87859   0.56760   0.62782   0.00000  Uiso   1.00
O776   O     0.92061   0.56210   0.61015   0.00000  Uiso   1.00
O777   O     0.86566   0.60548   0.63767   0.00000  Uiso   1.00
N778   N     0.78808   0.43239   0.37217   0.00000  Uiso   1.00
O779   O     0.74615   0.43790   0.38996   0.00000  Uiso   1.00
O780   O     0.80090   0.39451   0.36219   0.00000  Uiso   1.00
O781   O     0.16666   0.77225   0.53821   0.00000  Uiso   1.00
O782   O     0.16667   0.89442   0.46179   0.00000  Uiso   1.00
O783   O     0.16666   0.77226   0.46176   0.00000  Uiso   1.00
O784   O     0.16667   0.89441   0.53824   0.00000  Uiso   1.00
C785   C     0.16632   0.75351   0.49970   0.00000  Uiso   1.00
C786   C     0.16701   0.91316   0.50030   0.00000  Uiso   1.00
O787   O     0.09058   0.83333   0.52928   0.00000  Uiso   1.00
O788   O     0.24275   0.83334   0.47072   0.00000  Uiso   1.00
O789   O     0.09058   0.83334   0.45284   0.00000  Uiso   1.00
O790   O     0.24275   0.83333   0.54716   0.00000  Uiso   1.00
C791   C     0.06729   0.83422   0.48811   0.00000  Uiso   1.00
C792   C     0.26605   0.83245   0.51189   0.00000  Uiso   1.00
Zn793  Zn    0.16667   0.83333   0.55104   0.00000  Uiso   1.00
Zn794  Zn    0.16667   0.83334   0.44896   0.00000  Uiso   1.00
N795   N     0.16665   0.83332   0.61907   0.00000  Uiso   1.00
N796   N     0.16668   0.83334   0.38093   0.00000  Uiso   1.00
C797   C     0.01263   0.83138   0.48164   0.00000  Uiso   1.00
C798   C     0.32070   0.83529   0.51836   0.00000  Uiso   1.00
C799   C     0.20891   0.68833   0.48580   0.00000  Uiso   1.00
C800   C     0.12442   0.97833   0.51419   0.00000  Uiso   1.00
C801   C     0.20851   0.97845   0.48589   0.00000  Uiso   1.00
C802   C     0.12482   0.68822   0.51411   0.00000  Uiso   1.00
C803   C     0.16678   0.95728   0.50060   0.00000  Uiso   1.00
C804   C     0.16656   0.70939   0.49940   0.00000  Uiso   1.00
C805   C     0.18786   0.86600   0.36105   0.00000  Uiso   1.00
C806   C     0.14547   0.80067   0.63895   0.00000  Uiso   1.00
H807   H     0.20528   0.89186   0.38225   0.00000  Uiso   1.00
H808   H     0.12806   0.77481   0.61775   0.00000  Uiso   1.00
C809   C     0.18822   0.86614   0.64662   0.00000  Uiso   1.00
C810   C     0.14511   0.80052   0.35337   0.00000  Uiso   1.00
N811   N     0.32082   0.81978   0.43625   0.00000  Uiso   1.00
O812   O     0.32197   0.84544   0.40272   0.00000  Uiso   1.00
O813   O     0.30443   0.78149   0.42737   0.00000  Uiso   1.00
N814   N     0.01251   0.84689   0.56375   0.00000  Uiso   1.00
O815   O     0.01136   0.82124   0.59728   0.00000  Uiso   1.00
O816   O     0.02891   0.88519   0.57263   0.00000  Uiso   1.00
O817   O     0.25212   0.70862   0.47430   0.00000  Uiso   1.00
H818   H     0.25447   0.73762   0.48659   0.00000  Uiso   1.00
O819   O     0.08121   0.95804   0.52569   0.00000  Uiso   1.00
H820   H     0.07886   0.92905   0.51339   0.00000  Uiso   1.00
N821   N     0.25187   0.95619   0.47322   0.00000  Uiso   1.00
O822   O     0.26965   0.96545   0.43592   0.00000  Uiso   1.00
O823   O     0.27680   0.92959   0.50112   0.00000  Uiso   1.00
N824   N     0.08145   0.71047   0.52677   0.00000  Uiso   1.00
O825   O     0.06363   0.70118   0.56405   0.00000  Uiso   1.00
O826   O     0.05656   0.73711   0.49889   0.00000  Uiso   1.00
N827   N     0.21193   0.90094   0.62782   0.00000  Uiso   1.00
O828   O     0.25394   0.89543   0.61015   0.00000  Uiso   1.00
O829   O     0.19899   0.93881   0.63767   0.00000  Uiso   1.00
N830   N     0.12141   0.76572   0.37217   0.00000  Uiso   1.00
O831   O     0.07948   0.77123   0.38996   0.00000  Uiso   1.00
O832   O     0.13423   0.72785   0.36219   0.00000  Uiso   1.00
O833   O     0.50000   0.77225   0.53821   0.00000  Uiso   1.00
O834   O     0.50000   0.89442   0.46179   0.00000  Uiso   1.00
O835   O     0.50000   0.77226   0.46176   0.00000  Uiso   1.00
O836   O     0.50000   0.89441   0.53824   0.00000  Uiso   1.00
C837   C     0.49965   0.75351   0.49970   0.00000  Uiso   1.00
C838   C     0.50035   0.91316   0.50030   0.00000  Uiso   1.00
O839   O     0.42392   0.83333   0.52928   0.00000  Uiso   1.00
O840   O     0.57608   0.83334   0.47072   0.00000  Uiso   1.00
O841   O     0.42392   0.83334   0.45284   0.00000  Uiso   1.00
O842   O     0.57608   0.83333   0.54716   0.00000  Uiso   1.00
C843   C     0.40062   0.83422   0.48811   0.00000  Uiso   1.00
C844   C     0.59938   0.83245   0.51189   0.00000  Uiso   1.00
Zn845  Zn    0.50000   0.83333   0.55104   0.00000  Uiso   1.00
Zn846  Zn    0.50000   0.83334   0.44896   0.00000  Uiso   1.00
N847   N     0.49999   0.83332   0.61907   0.00000  Uiso   1.00
N848   N     0.50001   0.83334   0.38093   0.00000  Uiso   1.00
C849   C     0.34596   0.83138   0.48164   0.00000  Uiso   1.00
C850   C     0.65404   0.83529   0.51836   0.00000  Uiso   1.00
C851   C     0.54224   0.68833   0.48580   0.00000  Uiso   1.00
C852   C     0.45775   0.97833   0.51419   0.00000  Uiso   1.00
C853   C     0.54185   0.97845   0.48589   0.00000  Uiso   1.00
C854   C     0.45815   0.68822   0.51411   0.00000  Uiso   1.00
C855   C     0.50011   0.95728   0.50060   0.00000  Uiso   1.00
C856   C     0.49989   0.70939   0.49940   0.00000  Uiso   1.00
C857   C     0.52120   0.86600   0.36105   0.00000  Uiso   1.00
C858   C     0.47881   0.80067   0.63895   0.00000  Uiso   1.00
H859   H     0.53861   0.89186   0.38225   0.00000  Uiso   1.00
H860   H     0.46139   0.77481   0.61775   0.00000  Uiso   1.00
C861   C     0.52155   0.86614   0.64662   0.00000  Uiso   1.00
C862   C     0.47845   0.80052   0.35337   0.00000  Uiso   1.00
N863   N     0.65416   0.81978   0.43625   0.00000  Uiso   1.00
O864   O     0.65530   0.84544   0.40272   0.00000  Uiso   1.00
O865   O     0.63776   0.78149   0.42737   0.00000  Uiso   1.00
N866   N     0.34585   0.84689   0.56375   0.00000  Uiso   1.00
O867   O     0.34469   0.82124   0.59728   0.00000  Uiso   1.00
O868   O     0.36224   0.88519   0.57263   0.00000  Uiso   1.00
O869   O     0.58545   0.70862   0.47430   0.00000  Uiso   1.00
H870   H     0.58781   0.73762   0.48659   0.00000  Uiso   1.00
O871   O     0.41454   0.95804   0.52569   0.00000  Uiso   1.00
H872   H     0.41219   0.92905   0.51339   0.00000  Uiso   1.00
N873   N     0.58521   0.95619   0.47322   0.00000  Uiso   1.00
O874   O     0.60299   0.96545   0.43592   0.00000  Uiso   1.00
O875   O     0.61014   0.92959   0.50112   0.00000  Uiso   1.00
N876   N     0.41479   0.71047   0.52677   0.00000  Uiso   1.00
O877   O     0.39696   0.70118   0.56405   0.00000  Uiso   1.00
O878   O     0.38989   0.73711   0.49889   0.00000  Uiso   1.00
N879   N     0.54526   0.90094   0.62782   0.00000  Uiso   1.00
O880   O     0.58728   0.89543   0.61015   0.00000  Uiso   1.00
O881   O     0.53232   0.93881   0.63767   0.00000  Uiso   1.00
N882   N     0.45475   0.76572   0.37217   0.00000  Uiso   1.00
O883   O     0.41281   0.77123   0.38996   0.00000  Uiso   1.00
O884   O     0.46757   0.72785   0.36219   0.00000  Uiso   1.00
O885   O     0.83333   0.77225   0.53821   0.00000  Uiso   1.00
O886   O     0.83334   0.89442   0.46179   0.00000  Uiso   1.00
O887   O     0.83333   0.77226   0.46176   0.00000  Uiso   1.00
O888   O     0.83334   0.89441   0.53824   0.00000  Uiso   1.00
C889   C     0.83299   0.75351   0.49970   0.00000  Uiso   1.00
C890   C     0.83368   0.91316   0.50030   0.00000  Uiso   1.00
O891   O     0.75725   0.83333   0.52928   0.00000  Uiso   1.00
O892   O     0.90942   0.83334   0.47072   0.00000  Uiso   1.00
O893   O     0.75725   0.83334   0.45284   0.00000  Uiso   1.00
O894   O     0.90942   0.83333   0.54716   0.00000  Uiso   1.00
C895   C     0.73395   0.83422   0.48811   0.00000  Uiso   1.00
C896   C     0.93272   0.83245   0.51189   0.00000  Uiso   1.00
Zn897  Zn    0.83333   0.83333   0.55104   0.00000  Uiso   1.00
Zn898  Zn    0.83333   0.83334   0.44896   0.00000  Uiso   1.00
N899   N     0.83332   0.83332   0.61907   0.00000  Uiso   1.00
N900   N     0.83335   0.83334   0.38093   0.00000  Uiso   1.00
C901   C     0.67930   0.83138   0.48164   0.00000  Uiso   1.00
C902   C     0.98737   0.83529   0.51836   0.00000  Uiso   1.00
C903   C     0.87557   0.68833   0.48580   0.00000  Uiso   1.00
C904   C     0.79109   0.97833   0.51419   0.00000  Uiso   1.00
C905   C     0.87518   0.97845   0.48589   0.00000  Uiso   1.00
C906   C     0.79148   0.68822   0.51411   0.00000  Uiso   1.00
C907   C     0.83344   0.95728   0.50060   0.00000  Uiso   1.00
C908   C     0.83322   0.70939   0.49940   0.00000  Uiso   1.00
C909   C     0.85453   0.86600   0.36105   0.00000  Uiso   1.00
C910   C     0.81214   0.80067   0.63895   0.00000  Uiso   1.00
H911   H     0.87194   0.89186   0.38225   0.00000  Uiso   1.00
H912   H     0.79472   0.77481   0.61775   0.00000  Uiso   1.00
C913   C     0.85489   0.86614   0.64662   0.00000  Uiso   1.00
C914   C     0.81178   0.80052   0.35337   0.00000  Uiso   1.00
N915   N     0.98749   0.81978   0.43625   0.00000  Uiso   1.00
O916   O     0.98864   0.84544   0.40272   0.00000  Uiso   1.00
O917   O     0.97110   0.78149   0.42737   0.00000  Uiso   1.00
N918   N     0.67918   0.84689   0.56375   0.00000  Uiso   1.00
O919   O     0.67803   0.82124   0.59728   0.00000  Uiso   1.00
O920   O     0.69558   0.88519   0.57263   0.00000  Uiso   1.00
O921   O     0.91878   0.70862   0.47430   0.00000  Uiso   1.00
H922   H     0.92114   0.73762   0.48659   0.00000  Uiso   1.00
O923   O     0.74788   0.95804   0.52569   0.00000  Uiso   1.00
H924   H     0.74552   0.92905   0.51339   0.00000  Uiso   1.00
N925   N     0.91854   0.95619   0.47322   0.00000  Uiso   1.00
O926   O     0.93632   0.96545   0.43592   0.00000  Uiso   1.00
O927   O     0.94347   0.92959   0.50112   0.00000  Uiso   1.00
N928   N     0.74812   0.71047   0.52677   0.00000  Uiso   1.00
O929   O     0.73030   0.70118   0.56405   0.00000  Uiso   1.00
O930   O     0.72322   0.73711   0.49889   0.00000  Uiso   1.00
N931   N     0.87859   0.90094   0.62782   0.00000  Uiso   1.00
O932   O     0.92061   0.89543   0.61015   0.00000  Uiso   1.00
O933   O     0.86566   0.93881   0.63767   0.00000  Uiso   1.00
N934   N     0.78808   0.76572   0.37217   0.00000  Uiso   1.00
O935   O     0.74615   0.77123   0.38996   0.00000  Uiso   1.00
O936   O     0.80090   0.72785   0.36219   0.00000  Uiso   1.00
O937   O     0.16666   0.10558   0.87154   0.00000  Uiso   1.00
O938   O     0.16667   0.22775   0.79513   0.00000  Uiso   1.00
O939   O     0.16666   0.10559   0.79510   0.00000  Uiso   1.00
O940   O     0.16667   0.22774   0.87157   0.00000  Uiso   1.00
C941   C     0.16632   0.08684   0.83303   0.00000  Uiso   1.00
C942   C     0.16701   0.24649   0.83363   0.00000  Uiso   1.00
O943   O     0.09058   0.16666   0.86261   0.00000  Uiso   1.00
O944   O     0.24275   0.16667   0.80405   0.00000  Uiso   1.00
O945   O     0.09058   0.16667   0.78617   0.00000  Uiso   1.00
O946   O     0.24275   0.16666   0.88050   0.00000  Uiso   1.00
C947   C     0.06729   0.16755   0.82144   0.00000  Uiso   1.00
C948   C     0.26605   0.16579   0.84522   0.00000  Uiso   1.00
Zn949  Zn    0.16667   0.16666   0.88437   0.00000  Uiso   1.00
Zn950  Zn    0.16667   0.16667   0.78229   0.00000  Uiso   1.00
N951   N     0.16665   0.16666   0.95240   0.00000  Uiso   1.00
N952   N     0.16668   0.16668   0.71427   0.00000  Uiso   1.00
C953   C     0.01263   0.16471   0.81497   0.00000  Uiso   1.00
C954   C     0.32070   0.16863   0.85169   0.00000  Uiso   1.00
C955   C     0.20891   0.02166   0.81914   0.00000  Uiso   1.00
C956   C     0.12442   0.31167   0.84752   0.00000  Uiso   1.00
C957   C     0.20851   0.31178   0.81922   0.00000  Uiso   1.00
C958   C     0.12482   0.02155   0.84744   0.00000  Uiso   1.00
C959   C     0.16678   0.29061   0.83393   0.00000  Uiso   1.00
C960   C     0.16656   0.04272   0.83274   0.00000  Uiso   1.00
C961   C     0.18786   0.19933   0.69438   0.00000  Uiso   1.00
C962   C     0.14547   0.13401   0.97228   0.00000  Uiso   1.00
H963   H     0.20528   0.22519   0.71558   0.00000  Uiso   1.00
H964   H     0.12806   0.10814   0.95108   0.00000  Uiso   1.00
C965   C     0.18822   0.19948   0.97996   0.00000  Uiso   1.00
C966   C     0.14511   0.13386   0.68671   0.00000  Uiso   1.00
N967   N     0.32082   0.15312   0.76959   0.00000  Uiso   1.00
O968   O     0.32197   0.17877   0.73605   0.00000  Uiso   1.00
O969   O     0.30443   0.11482   0.76070   0.00000  Uiso   1.00
N970   N     0.01251   0.18023   0.89708   0.00000  Uiso   1.00
O971   O     0.01136   0.15457   0.93062   0.00000  Uiso   1.00
O972   O     0.02891   0.21852   0.90596   0.00000  Uiso   1.00
O973   O     0.25212   0.04195   0.80763   0.00000  Uiso   1.00
H974   H     0.25447   0.07095   0.81993   0.00000  Uiso   1.00
O975   O     0.08121   0.29138   0.85903   0.00000  Uiso   1.00
H976   H     0.07886   0.26238   0.84672   0.00000  Uiso   1.00
N977   N     0.25187   0.28953   0.80656   0.00000  Uiso   1.00
O978   O     0.26965   0.29878   0.76925   0.00000  Uiso   1.00
O979   O     0.27680   0.26293   0.83446   0.00000  Uiso   1.00
N980   N     0.08145   0.04381   0.86011   0.00000  Uiso   1.00
O981   O     0.06363   0.03451   0.89738   0.00000  Uiso   1.00
O982   O     0.05656   0.07044   0.83223   0.00000  Uiso   1.00
N983   N     0.21193   0.23427   0.96115   0.00000  Uiso   1.00
O984   O     0.25394   0.22877   0.94348   0.00000  Uiso   1.00
O985   O     0.19899   0.27215   0.97100   0.00000  Uiso   1.00
N986   N     0.12141   0.09905   0.70550   0.00000  Uiso   1.00
O987   O     0.07948   0.10457   0.72329   0.00000  Uiso   1.00
O988   O     0.13423   0.06118   0.69553   0.00000  Uiso   1.00
O989   O     0.50000   0.10558   0.87154   0.00000  Uiso   1.00
O990   O     0.50000   0.22775   0.79513   0.00000  Uiso   1.00
O991   O     0.50000   0.10559   0.79510   0.00000  Uiso   1.00
O992   O     0.50000   0.22774   0.87157   0.00000  Uiso   1.00
C993   C     0.49965   0.08684   0.83303   0.00000  Uiso   1.00
C994   C     0.50035   0.24649   0.83363   0.00000  Uiso   1.00
O995   O     0.42392   0.16666   0.86261   0.00000  Uiso   1.00
O996   O     0.57608   0.16667   0.80405   0.00000  Uiso   1.00
O997   O     0.42392   0.16667   0.78617   0.00000  Uiso   1.00
O998   O     0.57608   0.16666   0.88050   0.00000  Uiso   1.00
C999   C     0.40062   0.16755   0.82144   0.00000  Uiso   1.00
C1000  C     0.59938   0.16579   0.84522   0.00000  Uiso   1.00
Zn1001 Zn    0.50000   0.16666   0.88437   0.00000  Uiso   1.00
Zn1002 Zn    0.50000   0.16667   0.78229   0.00000  Uiso   1.00
N1003  N     0.49999   0.16666   0.95240   0.00000  Uiso   1.00
N1004  N     0.50001   0.16668   0.71427   0.00000  Uiso   1.00
C1005  C     0.34596   0.16471   0.81497   0.00000  Uiso   1.00
C1006  C     0.65404   0.16863   0.85169   0.00000  Uiso   1.00
C1007  C     0.54224   0.02166   0.81914   0.00000  Uiso   1.00
C1008  C     0.45775   0.31167   0.84752   0.00000  Uiso   1.00
C1009  C     0.54185   0.31178   0.81922   0.00000  Uiso   1.00
C1010  C     0.45815   0.02155   0.84744   0.00000  Uiso   1.00
C1011  C     0.50011   0.29061   0.83393   0.00000  Uiso   1.00
C1012  C     0.49989   0.04272   0.83274   0.00000  Uiso   1.00
C1013  C     0.52120   0.19933   0.69438   0.00000  Uiso   1.00
C1014  C     0.47881   0.13401   0.97228   0.00000  Uiso   1.00
H1015  H     0.53861   0.22519   0.71558   0.00000  Uiso   1.00
H1016  H     0.46139   0.10814   0.95108   0.00000  Uiso   1.00
C1017  C     0.52155   0.19948   0.97996   0.00000  Uiso   1.00
C1018  C     0.47845   0.13386   0.68671   0.00000  Uiso   1.00
N1019  N     0.65416   0.15312   0.76959   0.00000  Uiso   1.00
O1020  O     0.65530   0.17877   0.73605   0.00000  Uiso   1.00
O1021  O     0.63776   0.11482   0.76070   0.00000  Uiso   1.00
N1022  N     0.34585   0.18023   0.89708   0.00000  Uiso   1.00
O1023  O     0.34469   0.15457   0.93062   0.00000  Uiso   1.00
O1024  O     0.36224   0.21852   0.90596   0.00000  Uiso   1.00
O1025  O     0.58545   0.04195   0.80763   0.00000  Uiso   1.00
H1026  H     0.58781   0.07095   0.81993   0.00000  Uiso   1.00
O1027  O     0.41454   0.29138   0.85903   0.00000  Uiso   1.00
H1028  H     0.41219   0.26238   0.84672   0.00000  Uiso   1.00
N1029  N     0.58521   0.28953   0.80656   0.00000  Uiso   1.00
O1030  O     0.60299   0.29878   0.76925   0.00000  Uiso   1.00
O1031  O     0.61014   0.26293   0.83446   0.00000  Uiso   1.00
N1032  N     0.41479   0.04381   0.86011   0.00000  Uiso   1.00
O1033  O     0.39696   0.03451   0.89738   0.00000  Uiso   1.00
O1034  O     0.38989   0.07044   0.83223   0.00000  Uiso   1.00
N1035  N     0.54526   0.23427   0.96115   0.00000  Uiso   1.00
O1036  O     0.58728   0.22877   0.94348   0.00000  Uiso   1.00
O1037  O     0.53232   0.27215   0.97100   0.00000  Uiso   1.00
N1038  N     0.45475   0.09905   0.70550   0.00000  Uiso   1.00
O1039  O     0.41281   0.10457   0.72329   0.00000  Uiso   1.00
O1040  O     0.46757   0.06118   0.69553   0.00000  Uiso   1.00
O1041  O     0.83333   0.10558   0.87154   0.00000  Uiso   1.00
O1042  O     0.83334   0.22775   0.79513   0.00000  Uiso   1.00
O1043  O     0.83333   0.10559   0.79510   0.00000  Uiso   1.00
O1044  O     0.83334   0.22774   0.87157   0.00000  Uiso   1.00
C1045  C     0.83299   0.08684   0.83303   0.00000  Uiso   1.00
C1046  C     0.83368   0.24649   0.83363   0.00000  Uiso   1.00
O1047  O     0.75725   0.16666   0.86261   0.00000  Uiso   1.00
O1048  O     0.90942   0.16667   0.80405   0.00000  Uiso   1.00
O1049  O     0.75725   0.16667   0.78617   0.00000  Uiso   1.00
O1050  O     0.90942   0.16666   0.88050   0.00000  Uiso   1.00
C1051  C     0.73395   0.16755   0.82144   0.00000  Uiso   1.00
C1052  C     0.93272   0.16579   0.84522   0.00000  Uiso   1.00
Zn1053 Zn    0.83333   0.16666   0.88437   0.00000  Uiso   1.00
Zn1054 Zn    0.83333   0.16667   0.78229   0.00000  Uiso   1.00
N1055  N     0.83332   0.16666   0.95240   0.00000  Uiso   1.00
N1056  N     0.83335   0.16668   0.71427   0.00000  Uiso   1.00
C1057  C     0.67930   0.16471   0.81497   0.00000  Uiso   1.00
C1058  C     0.98737   0.16863   0.85169   0.00000  Uiso   1.00
C1059  C     0.87557   0.02166   0.81914   0.00000  Uiso   1.00
C1060  C     0.79109   0.31167   0.84752   0.00000  Uiso   1.00
C1061  C     0.87518   0.31178   0.81922   0.00000  Uiso   1.00
C1062  C     0.79148   0.02155   0.84744   0.00000  Uiso   1.00
C1063  C     0.83344   0.29061   0.83393   0.00000  Uiso   1.00
C1064  C     0.83322   0.04272   0.83274   0.00000  Uiso   1.00
C1065  C     0.85453   0.19933   0.69438   0.00000  Uiso   1.00
C1066  C     0.81214   0.13401   0.97228   0.00000  Uiso   1.00
H1067  H     0.87194   0.22519   0.71558   0.00000  Uiso   1.00
H1068  H     0.79472   0.10814   0.95108   0.00000  Uiso   1.00
C1069  C     0.85489   0.19948   0.97996   0.00000  Uiso   1.00
C1070  C     0.81178   0.13386   0.68671   0.00000  Uiso   1.00
N1071  N     0.98749   0.15312   0.76959   0.00000  Uiso   1.00
O1072  O     0.98864   0.17877   0.73605   0.00000  Uiso   1.00
O1073  O     0.97110   0.11482   0.76070   0.00000  Uiso   1.00
N1074  N     0.67918   0.18023   0.89708   0.00000  Uiso   1.00
O1075  O     0.67803   0.15457   0.93062   0.00000  Uiso   1.00
O1076  O     0.69558   0.21852   0.90596   0.00000  Uiso   1.00
O1077  O     0.91878   0.04195   0.80763   0.00000  Uiso   1.00
H1078  H     0.92114   0.07095   0.81993   0.00000  Uiso   1.00
O1079  O     0.74788   0.29138   0.85903   0.00000  Uiso   1.00
H1080  H     0.74552   0.26238   0.84672   0.00000  Uiso   1.00
N1081  N     0.91854   0.28953   0.80656   0.00000  Uiso   1.00
O1082  O     0.93632   0.29878   0.76925   0.00000  Uiso   1.00
O1083  O     0.94347   0.26293   0.83446   0.00000  Uiso   1.00
N1084  N     0.74812   0.04381   0.86011   0.00000  Uiso   1.00
O1085  O     0.73030   0.03451   0.89738   0.00000  Uiso   1.00
O1086  O     0.72322   0.07044   0.83223   0.00000  Uiso   1.00
N1087  N     0.87859   0.23427   0.96115   0.00000  Uiso   1.00
O1088  O     0.92061   0.22877   0.94348   0.00000  Uiso   1.00
O1089  O     0.86566   0.27215   0.97100   0.00000  Uiso   1.00
N1090  N     0.78808   0.09905   0.70550   0.00000  Uiso   1.00
O1091  O     0.74615   0.10457   0.72329   0.00000  Uiso   1.00
O1092  O     0.80090   0.06118   0.69553   0.00000  Uiso   1.00
O1093  O     0.16666   0.43892   0.87154   0.00000  Uiso   1.00
O1094  O     0.16667   0.56108   0.79513   0.00000  Uiso   1.00
O1095  O     0.16666   0.43893   0.79510   0.00000  Uiso   1.00
O1096  O     0.16667   0.56107   0.87157   0.00000  Uiso   1.00
C1097  C     0.16632   0.42018   0.83303   0.00000  Uiso   1.00
C1098  C     0.16701   0.57982   0.83363   0.00000  Uiso   1.00
O1099  O     0.09058   0.50000   0.86261   0.00000  Uiso   1.00
O1100  O     0.24275   0.50000   0.80405   0.00000  Uiso   1.00
O1101  O     0.09058   0.50000   0.78617   0.00000  Uiso   1.00
O1102  O     0.24275   0.50000   0.88050   0.00000  Uiso   1.00
C1103  C     0.06729   0.50088   0.82144   0.00000  Uiso   1.00
C1104  C     0.26605   0.49912   0.84522   0.00000  Uiso   1.00
Zn1105 Zn    0.16667   0.49999   0.88437   0.00000  Uiso   1.00
Zn1106 Zn    0.16667   0.50001   0.78229   0.00000  Uiso   1.00
N1107  N     0.16665   0.49999   0.95240   0.00000  Uiso   1.00
N1108  N     0.16668   0.50001   0.71427   0.00000  Uiso   1.00
C1109  C     0.01263   0.49805   0.81497   0.00000  Uiso   1.00
C1110  C     0.32070   0.50196   0.85169   0.00000  Uiso   1.00
C1111  C     0.20891   0.35500   0.81914   0.00000  Uiso   1.00
C1112  C     0.12442   0.64500   0.84752   0.00000  Uiso   1.00
C1113  C     0.20851   0.64511   0.81922   0.00000  Uiso   1.00
C1114  C     0.12482   0.35489   0.84744   0.00000  Uiso   1.00
C1115  C     0.16678   0.62395   0.83393   0.00000  Uiso   1.00
C1116  C     0.16656   0.37605   0.83274   0.00000  Uiso   1.00
C1117  C     0.18786   0.53266   0.69438   0.00000  Uiso   1.00
C1118  C     0.14547   0.46734   0.97228   0.00000  Uiso   1.00
H1119  H     0.20528   0.55853   0.71558   0.00000  Uiso   1.00
H1120  H     0.12806   0.44148   0.95108   0.00000  Uiso   1.00
C1121  C     0.18822   0.53281   0.97996   0.00000  Uiso   1.00
C1122  C     0.14511   0.46719   0.68671   0.00000  Uiso   1.00
N1123  N     0.32082   0.48645   0.76959   0.00000  Uiso   1.00
O1124  O     0.32197   0.51211   0.73605   0.00000  Uiso   1.00
O1125  O     0.30443   0.44816   0.76070   0.00000  Uiso   1.00
N1126  N     0.01251   0.51356   0.89708   0.00000  Uiso   1.00
O1127  O     0.01136   0.48790   0.93062   0.00000  Uiso   1.00
O1128  O     0.02891   0.55185   0.90596   0.00000  Uiso   1.00
O1129  O     0.25212   0.37529   0.80763   0.00000  Uiso   1.00
H1130  H     0.25447   0.40429   0.81993   0.00000  Uiso   1.00
O1131  O     0.08121   0.62471   0.85903   0.00000  Uiso   1.00
H1132  H     0.07886   0.59571   0.84672   0.00000  Uiso   1.00
N1133  N     0.25187   0.62286   0.80656   0.00000  Uiso   1.00
O1134  O     0.26965   0.63212   0.76925   0.00000  Uiso   1.00
O1135  O     0.27680   0.59626   0.83446   0.00000  Uiso   1.00
N1136  N     0.08145   0.37714   0.86011   0.00000  Uiso   1.00
O1137  O     0.06363   0.36784   0.89738   0.00000  Uiso   1.00
O1138  O     0.05656   0.40377   0.83223   0.00000  Uiso   1.00
N1139  N     0.21193   0.56760   0.96115   0.00000  Uiso   1.00
O1140  O     0.25394   0.56210   0.94348   0.00000  Uiso   1.00
O1141  O     0.19899   0.60548   0.97100   0.00000  Uiso   1.00
N1142  N     0.12141   0.43239   0.70550   0.00000  Uiso   1.00
O1143  O     0.07948   0.43790   0.72329   0.00000  Uiso   1.00
O1144  O     0.13423   0.39451   0.69553   0.00000  Uiso   1.00
O1145  O     0.50000   0.43892   0.87154   0.00000  Uiso   1.00
O1146  O     0.50000   0.56108   0.79513   0.00000  Uiso   1.00
O1147  O     0.50000   0.43893   0.79510   0.00000  Uiso   1.00
O1148  O     0.50000   0.56107   0.87157   0.00000  Uiso   1.00
C1149  C     0.49965   0.42018   0.83303   0.00000  Uiso   1.00
C1150  C     0.50035   0.57982   0.83363   0.00000  Uiso   1.00
O1151  O     0.42392   0.50000   0.86261   0.00000  Uiso   1.00
O1152  O     0.57608   0.50000   0.80405   0.00000  Uiso   1.00
O1153  O     0.42392   0.50000   0.78617   0.00000  Uiso   1.00
O1154  O     0.57608   0.50000   0.88050   0.00000  Uiso   1.00
C1155  C     0.40062   0.50088   0.82144   0.00000  Uiso   1.00
C1156  C     0.59938   0.49912   0.84522   0.00000  Uiso   1.00
Zn1157 Zn    0.50000   0.49999   0.88437   0.00000  Uiso   1.00
Zn1158 Zn    0.50000   0.50001   0.78229   0.00000  Uiso   1.00
N1159  N     0.49999   0.49999   0.95240   0.00000  Uiso   1.00
N1160  N     0.50001   0.50001   0.71427   0.00000  Uiso   1.00
C1161  C     0.34596   0.49805   0.81497   0.00000  Uiso   1.00
C1162  C     0.65404   0.50196   0.85169   0.00000  Uiso   1.00
C1163  C     0.54224   0.35500   0.81914   0.00000  Uiso   1.00
C1164  C     0.45775   0.64500   0.84752   0.00000  Uiso   1.00
C1165  C     0.54185   0.64511   0.81922   0.00000  Uiso   1.00
C1166  C     0.45815   0.35489   0.84744   0.00000  Uiso   1.00
C1167  C     0.50011   0.62395   0.83393   0.00000  Uiso   1.00
C1168  C     0.49989   0.37605   0.83274   0.00000  Uiso   1.00
C1169  C     0.52120   0.53266   0.69438   0.00000  Uiso   1.00
C1170  C     0.47881   0.46734   0.97228   0.00000  Uiso   1.00
H1171  H     0.53861   0.55853   0.71558   0.00000  Uiso   1.00
H1172  H     0.46139   0.44148   0.95108   0.00000  Uiso   1.00
C1173  C     0.52155   0.53281   0.97996   0.00000  Uiso   1.00
C1174  C     0.47845   0.46719   0.68671   0.00000  Uiso   1.00
N1175  N     0.65416   0.48645   0.76959   0.00000  Uiso   1.00
O1176  O     0.65530   0.51211   0.73605   0.00000  Uiso   1.00
O1177  O     0.63776   0.44816   0.76070   0.00000  Uiso   1.00
N1178  N     0.34585   0.51356   0.89708   0.00000  Uiso   1.00
O1179  O     0.34469   0.48790   0.93062   0.00000  Uiso   1.00
O1180  O     0.36224   0.55185   0.90596   0.00000  Uiso   1.00
O1181  O     0.58545   0.37529   0.80763   0.00000  Uiso   1.00
H1182  H     0.58781   0.40429   0.81993   0.00000  Uiso   1.00
O1183  O     0.41454   0.62471   0.85903   0.00000  Uiso   1.00
H1184  H     0.41219   0.59571   0.84672   0.00000  Uiso   1.00
N1185  N     0.58521   0.62286   0.80656   0.00000  Uiso   1.00
O1186  O     0.60299   0.63212   0.76925   0.00000  Uiso   1.00
O1187  O     0.61014   0.59626   0.83446   0.00000  Uiso   1.00
N1188  N     0.41479   0.37714   0.86011   0.00000  Uiso   1.00
O1189  O     0.39696   0.36784   0.89738   0.00000  Uiso   1.00
O1190  O     0.38989   0.40377   0.83223   0.00000  Uiso   1.00
N1191  N     0.54526   0.56760   0.96115   0.00000  Uiso   1.00
O1192  O     0.58728   0.56210   0.94348   0.00000  Uiso   1.00
O1193  O     0.53232   0.60548   0.97100   0.00000  Uiso   1.00
N1194  N     0.45475   0.43239   0.70550   0.00000  Uiso   1.00
O1195  O     0.41281   0.43790   0.72329   0.00000  Uiso   1.00
O1196  O     0.46757   0.39451   0.69553   0.00000  Uiso   1.00
O1197  O     0.83333   0.43892   0.87154   0.00000  Uiso   1.00
O1198  O     0.83334   0.56108   0.79513   0.00000  Uiso   1.00
O1199  O     0.83333   0.43893   0.79510   0.00000  Uiso   1.00
O1200  O     0.83334   0.56107   0.87157   0.00000  Uiso   1.00
C1201  C     0.83299   0.42018   0.83303   0.00000  Uiso   1.00
C1202  C     0.83368   0.57982   0.83363   0.00000  Uiso   1.00
O1203  O     0.75725   0.50000   0.86261   0.00000  Uiso   1.00
O1204  O     0.90942   0.50000   0.80405   0.00000  Uiso   1.00
O1205  O     0.75725   0.50000   0.78617   0.00000  Uiso   1.00
O1206  O     0.90942   0.50000   0.88050   0.00000  Uiso   1.00
C1207  C     0.73395   0.50088   0.82144   0.00000  Uiso   1.00
C1208  C     0.93272   0.49912   0.84522   0.00000  Uiso   1.00
Zn1209 Zn    0.83333   0.49999   0.88437   0.00000  Uiso   1.00
Zn1210 Zn    0.83333   0.50001   0.78229   0.00000  Uiso   1.00
N1211  N     0.83332   0.49999   0.95240   0.00000  Uiso   1.00
N1212  N     0.83335   0.50001   0.71427   0.00000  Uiso   1.00
C1213  C     0.67930   0.49805   0.81497   0.00000  Uiso   1.00
C1214  C     0.98737   0.50196   0.85169   0.00000  Uiso   1.00
C1215  C     0.87557   0.35500   0.81914   0.00000  Uiso   1.00
C1216  C     0.79109   0.64500   0.84752   0.00000  Uiso   1.00
C1217  C     0.87518   0.64511   0.81922   0.00000  Uiso   1.00
C1218  C     0.79148   0.35489   0.84744   0.00000  Uiso   1.00
C1219  C     0.83344   0.62395   0.83393   0.00000  Uiso   1.00
C1220  C     0.83322   0.37605   0.83274   0.00000  Uiso   1.00
C1221  C     0.85453   0.53266   0.69438   0.00000  Uiso   1.00
C1222  C     0.81214   0.46734   0.97228   0.00000  Uiso   1.00
H1223  H     0.87194   0.55853   0.71558   0.00000  Uiso   1.00
H1224  H     0.79472   0.44148   0.95108   0.00000  Uiso   1.00
C1225  C     0.85489   0.53281   0.97996   0.00000  Uiso   1.00
C1226  C     0.81178   0.46719   0.68671   0.00000  Uiso   1.00
N1227  N     0.98749   0.48645   0.76959   0.00000  Uiso   1.00
O1228  O     0.98864   0.51211   0.73605   0.00000  Uiso   1.00
O1229  O     0.97110   0.44816   0.76070   0.00000  Uiso   1.00
N1230  N     0.67918   0.51356   0.89708   0.00000  Uiso   1.00
O1231  O     0.67803   0.48790   0.93062   0.00000  Uiso   1.00
O1232  O     0.69558   0.55185   0.90596   0.00000  Uiso   1.00
O1233  O     0.91878   0.37529   0.80763   0.00000  Uiso   1.00
H1234  H     0.92114   0.40429   0.81993   0.00000  Uiso   1.00
O1235  O     0.74788   0.62471   0.85903   0.00000  Uiso   1.00
H1236  H     0.74552   0.59571   0.84672   0.00000  Uiso   1.00
N1237  N     0.91854   0.62286   0.80656   0.00000  Uiso   1.00
O1238  O     0.93632   0.63212   0.76925   0.00000  Uiso   1.00
O1239  O     0.94347   0.59626   0.83446   0.00000  Uiso   1.00
N1240  N     0.74812   0.37714   0.86011   0.00000  Uiso   1.00
O1241  O     0.73030   0.36784   0.89738   0.00000  Uiso   1.00
O1242  O     0.72322   0.40377   0.83223   0.00000  Uiso   1.00
N1243  N     0.87859   0.56760   0.96115   0.00000  Uiso   1.00
O1244  O     0.92061   0.56210   0.94348   0.00000  Uiso   1.00
O1245  O     0.86566   0.60548   0.97100   0.00000  Uiso   1.00
N1246  N     0.78808   0.43239   0.70550   0.00000  Uiso   1.00
O1247  O     0.74615   0.43790   0.72329   0.00000  Uiso   1.00
O1248  O     0.80090   0.39451   0.69553   0.00000  Uiso   1.00
O1249  O     0.16666   0.77225   0.87154   0.00000  Uiso   1.00
O1250  O     0.16667   0.89442   0.79513   0.00000  Uiso   1.00
O1251  O     0.16666   0.77226   0.79510   0.00000  Uiso   1.00
O1252  O     0.16667   0.89441   0.87157   0.00000  Uiso   1.00
C1253  C     0.16632   0.75351   0.83303   0.00000  Uiso   1.00
C1254  C     0.16701   0.91316   0.83363   0.00000  Uiso   1.00
O1255  O     0.09058   0.83333   0.86261   0.00000  Uiso   1.00
O1256  O     0.24275   0.83334   0.80405   0.00000  Uiso   1.00
O1257  O     0.09058   0.83334   0.78617   0.00000  Uiso   1.00
O1258  O     0.24275   0.83333   0.88050   0.00000  Uiso   1.00
C1259  C     0.06729   0.83422   0.82144   0.00000  Uiso   1.00
C1260  C     0.26605   0.83245   0.84522   0.00000  Uiso   1.00
Zn1261 Zn    0.16667   0.83333   0.88437   0.00000  Uiso   1.00
Zn1262 Zn    0.16667   0.83334   0.78229   0.00000  Uiso   1.00
N1263  N     0.16665   0.83332   0.95240   0.00000  Uiso   1.00
N1264  N     0.16668   0.83334   0.71427   0.00000  Uiso   1.00
C1265  C     0.01263   0.83138   0.81497   0.00000  Uiso   1.00
C1266  C     0.32070   0.83529   0.85169   0.00000  Uiso   1.00
C1267  C     0.20891   0.68833   0.81914   0.00000  Uiso   1.00
C1268  C     0.12442   0.97833   0.84752   0.00000  Uiso   1.00
C1269  C     0.20851   0.97845   0.81922   0.00000  Uiso   1.00
C1270  C     0.12482   0.68822   0.84744   0.00000  Uiso   1.00
C1271  C     0.16678   0.95728   0.83393   0.00000  Uiso   1.00
C1272  C     0.16656   0.70939   0.83274   0.00000  Uiso   1.00
C1273  C     0.18786   0.86600   0.69438   0.00000  Uiso   1.00
C1274  C     0.14547   0.80067   0.97228   0.00000  Uiso   1.00
H1275  H     0.20528   0.89186   0.71558   0.00000  Uiso   1.00
H1276  H     0.12806   0.77481   0.95108   0.00000  Uiso   1.00
C1277  C     0.18822   0.86614   0.97996   0.00000  Uiso   1.00
C1278  C     0.14511   0.80052   0.68671   0.00000  Uiso   1.00
N1279  N     0.32082   0.81978   0.76959   0.00000  Uiso   1.00
O1280  O     0.32197   0.84544   0.73605   0.00000  Uiso   1.00
O1281  O     0.30443   0.78149   0.76070   0.00000  Uiso   1.00
N1282  N     0.01251   0.84689   0.89708   0.00000  Uiso   1.00
O1283  O     0.01136   0.82124   0.93062   0.00000  Uiso   1.00
O1284  O     0.02891   0.88519   0.90596   0.00000  Uiso   1.00
O1285  O     0.25212   0.70862   0.80763   0.00000  Uiso   1.00
H1286  H     0.25447   0.73762   0.81993   0.00000  Uiso   1.00
O1287  O     0.08121   0.95804   0.85903   0.00000  Uiso   1.00
H1288  H     0.07886   0.92905   0.84672   0.00000  Uiso   1.00
N1289  N     0.25187   0.95619   0.80656   0.00000  Uiso   1.00
O1290  O     0.26965   0.96545   0.76925   0.00000  Uiso   1.00
O1291  O     0.27680   0.92959   0.83446   0.00000  Uiso   1.00
N1292  N     0.08145   0.71047   0.86011   0.00000  Uiso   1.00
O1293  O     0.06363   0.70118   0.89738   0.00000  Uiso   1.00
O1294  O     0.05656   0.73711   0.83223   0.00000  Uiso   1.00
N1295  N     0.21193   0.90094   0.96115   0.00000  Uiso   1.00
O1296  O     0.25394   0.89543   0.94348   0.00000  Uiso   1.00
O1297  O     0.19899   0.93881   0.97100   0.00000  Uiso   1.00
N1298  N     0.12141   0.76572   0.70550   0.00000  Uiso   1.00
O1299  O     0.07948   0.77123   0.72329   0.00000  Uiso   1.00
O1300  O     0.13423   0.72785   0.69553   0.00000  Uiso   1.00
O1301  O     0.50000   0.77225   0.87154   0.00000  Uiso   1.00
O1302  O     0.50000   0.89442   0.79513   0.00000  Uiso   1.00
O1303  O     0.50000   0.77226   0.79510   0.00000  Uiso   1.00
O1304  O     0.50000   0.89441   0.87157   0.00000  Uiso   1.00
C1305  C     0.49965   0.75351   0.83303   0.00000  Uiso   1.00
C1306  C     0.50035   0.91316   0.83363   0.00000  Uiso   1.00
O1307  O     0.42392   0.83333   0.86261   0.00000  Uiso   1.00
O1308  O     0.57608   0.83334   0.80405   0.00000  Uiso   1.00
O1309  O     0.42392   0.83334   0.78617   0.00000  Uiso   1.00
O1310  O     0.57608   0.83333   0.88050   0.00000  Uiso   1.00
C1311  C     0.40062   0.83422   0.82144   0.00000  Uiso   1.00
C1312  C     0.59938   0.83245   0.84522   0.00000  Uiso   1.00
Zn1313 Zn    0.50000   0.83333   0.88437   0.00000  Uiso   1.00
Zn1314 Zn    0.50000   0.83334   0.78229   0.00000  Uiso   1.00
N1315  N     0.49999   0.83332   0.95240   0.00000  Uiso   1.00
N1316  N     0.50001   0.83334   0.71427   0.00000  Uiso   1.00
C1317  C     0.34596   0.83138   0.81497   0.00000  Uiso   1.00
C1318  C     0.65404   0.83529   0.85169   0.00000  Uiso   1.00
C1319  C     0.54224   0.68833   0.81914   0.00000  Uiso   1.00
C1320  C     0.45775   0.97833   0.84752   0.00000  Uiso   1.00
C1321  C     0.54185   0.97845   0.81922   0.00000  Uiso   1.00
C1322  C     0.45815   0.68822   0.84744   0.00000  Uiso   1.00
C1323  C     0.50011   0.95728   0.83393   0.00000  Uiso   1.00
C1324  C     0.49989   0.70939   0.83274   0.00000  Uiso   1.00
C1325  C     0.52120   0.86600   0.69438   0.00000  Uiso   1.00
C1326  C     0.47881   0.80067   0.97228   0.00000  Uiso   1.00
H1327  H     0.53861   0.89186   0.71558   0.00000  Uiso   1.00
H1328  H     0.46139   0.77481   0.95108   0.00000  Uiso   1.00
C1329  C     0.52155   0.86614   0.97996   0.00000  Uiso   1.00
C1330  C     0.47845   0.80052   0.68671   0.00000  Uiso   1.00
N1331  N     0.65416   0.81978   0.76959   0.00000  Uiso   1.00
O1332  O     0.65530   0.84544   0.73605   0.00000  Uiso   1.00
O1333  O     0.63776   0.78149   0.76070   0.00000  Uiso   1.00
N1334  N     0.34585   0.84689   0.89708   0.00000  Uiso   1.00
O1335  O     0.34469   0.82124   0.93062   0.00000  Uiso   1.00
O1336  O     0.36224   0.88519   0.90596   0.00000  Uiso   1.00
O1337  O     0.58545   0.70862   0.80763   0.00000  Uiso   1.00
H1338  H     0.58781   0.73762   0.81993   0.00000  Uiso   1.00
O1339  O     0.41454   0.95804   0.85903   0.00000  Uiso   1.00
H1340  H     0.41219   0.92905   0.84672   0.00000  Uiso   1.00
N1341  N     0.58521   0.95619   0.80656   0.00000  Uiso   1.00
O1342  O     0.60299   0.96545   0.76925   0.00000  Uiso   1.00
O1343  O     0.61014   0.92959   0.83446   0.00000  Uiso   1.00
N1344  N     0.41479   0.71047   0.86011   0.00000  Uiso   1.00
O1345  O     0.39696   0.70118   0.89738   0.00000  Uiso   1.00
O1346  O     0.38989   0.73711   0.83223   0.00000  Uiso   1.00
N1347  N     0.54526   0.90094   0.96115   0.00000  Uiso   1.00
O1348  O     0.58728   0.89543   0.94348   0.00000  Uiso   1.00
O1349  O     0.53232   0.93881   0.97100   0.00000  Uiso   1.00
N1350  N     0.45475   0.76572   0.70550   0.00000  Uiso   1.00
O1351  O     0.41281   0.77123   0.72329   0.00000  Uiso   1.00
O1352  O     0.46757   0.72785   0.69553   0.00000  Uiso   1.00
O1353  O     0.83333   0.77225   0.87154   0.00000  Uiso   1.00
O1354  O     0.83334   0.89442   0.79513   0.00000  Uiso   1.00
O1355  O     0.83333   0.77226   0.79510   0.00000  Uiso   1.00
O1356  O     0.83334   0.89441   0.87157   0.00000  Uiso   1.00
C1357  C     0.83299   0.75351   0.83303   0.00000  Uiso   1.00
C1358  C     0.83368   0.91316   0.83363   0.00000  Uiso   1.00
O1359  O     0.75725   0.83333   0.86261   0.00000  Uiso   1.00
O1360  O     0.90942   0.83334   0.80405   0.00000  Uiso   1.00
O1361  O     0.75725   0.83334   0.78617   0.00000  Uiso   1.00
O1362  O     0.90942   0.83333   0.88050   0.00000  Uiso   1.00
C1363  C     0.73395   0.83422   0.82144   0.00000  Uiso   1.00
C1364  C     0.93272   0.83245   0.84522   0.00000  Uiso   1.00
Zn1365 Zn    0.83333   0.83333   0.88437   0.00000  Uiso   1.00
Zn1366 Zn    0.83333   0.83334   0.78229   0.00000  Uiso   1.00
N1367  N     0.83332   0.83332   0.95240   0.00000  Uiso   1.00
N1368  N     0.83335   0.83334   0.71427   0.00000  Uiso   1.00
C1369  C     0.67930   0.83138   0.81497   0.00000  Uiso   1.00
C1370  C     0.98737   0.83529   0.85169   0.00000  Uiso   1.00
C1371  C     0.87557   0.68833   0.81914   0.00000  Uiso   1.00
C1372  C     0.79109   0.97833   0.84752   0.00000  Uiso   1.00
C1373  C     0.87518   0.97845   0.81922   0.00000  Uiso   1.00
C1374  C     0.79148   0.68822   0.84744   0.00000  Uiso   1.00
C1375  C     0.83344   0.95728   0.83393   0.00000  Uiso   1.00
C1376  C     0.83322   0.70939   0.83274   0.00000  Uiso   1.00
C1377  C     0.85453   0.86600   0.69438   0.00000  Uiso   1.00
C1378  C     0.81214   0.80067   0.97228   0.00000  Uiso   1.00
H1379  H     0.87194   0.89186   0.71558   0.00000  Uiso   1.00
H1380  H     0.79472   0.77481   0.95108   0.00000  Uiso   1.00
C1381  C     0.85489   0.86614   0.97996   0.00000  Uiso   1.00
C1382  C     0.81178   0.80052   0.68671   0.00000  Uiso   1.00
N1383  N     0.98749   0.81978   0.76959   0.00000  Uiso   1.00
O1384  O     0.98864   0.84544   0.73605   0.00000  Uiso   1.00
O1385  O     0.97110   0.78149   0.76070   0.00000  Uiso   1.00
N1386  N     0.67918   0.84689   0.89708   0.00000  Uiso   1.00
O1387  O     0.67803   0.82124   0.93062   0.00000  Uiso   1.00
O1388  O     0.69558   0.88519   0.90596   0.00000  Uiso   1.00
O1389  O     0.91878   0.70862   0.80763   0.00000  Uiso   1.00
H1390  H     0.92114   0.73762   0.81993   0.00000  Uiso   1.00
O1391  O     0.74788   0.95804   0.85903   0.00000  Uiso   1.00
H1392  H     0.74552   0.92905   0.84672   0.00000  Uiso   1.00
N1393  N     0.91854   0.95619   0.80656   0.00000  Uiso   1.00
O1394  O     0.93632   0.96545   0.76925   0.00000  Uiso   1.00
O1395  O     0.94347   0.92959   0.83446   0.00000  Uiso   1.00
N1396  N     0.74812   0.71047   0.86011   0.00000  Uiso   1.00
O1397  O     0.73030   0.70118   0.89738   0.00000  Uiso   1.00
O1398  O     0.72322   0.73711   0.83223   0.00000  Uiso   1.00
N1399  N     0.87859   0.90094   0.96115   0.00000  Uiso   1.00
O1400  O     0.92061   0.89543   0.94348   0.00000  Uiso   1.00
O1401  O     0.86566   0.93881   0.97100   0.00000  Uiso   1.00
N1402  N     0.78808   0.76572   0.70550   0.00000  Uiso   1.00
O1403  O     0.74615   0.77123   0.72329   0.00000  Uiso   1.00
O1404  O     0.80090   0.72785   0.69553   0.00000  Uiso   1.00
loop_
_geom_bond_atom_site_label_1
_geom_bond_atom_site_label_2
_geom_bond_distance
_geom_bond_site_symmetry_2
_ccdc_geom_bond_type
O1     C5      1.280   .     A
O1     Zn13    1.983   .     S
O2     C6      1.280   .     A
O2     Zn14    1.983   .     S
O3     Zn14    1.993   .     S
O3     C5      1.283   .     A
O4     C6      1.283   .     A
O4     Zn13    1.993   .     S
C5     C24     1.410   .     S
C6     C23     1.410   .     S
O7     C11     1.275   .     A
O7     Zn13    1.987   .     S
O8     C12     1.275   .     A
O8     Zn14    1.987   .     S
O9     Zn14    2.006   .     S
O9     C11     1.290   .     A
O10    C12     1.290   .     A
O10    Zn13    2.006   .     S
C11    C17     1.410   .     S
C12    C18     1.410   .     S
Zn13   N15     2.016   .     S
Zn14   N16     2.016   .     S
N15    C29     1.379   .     A
N15    C26     1.359   .     A
N16    C30     1.379   .     A
N16    C25     1.360   .     A
C17    C122    1.364   1_455 S
C17    N135    1.442   1_455 S
C18    C69     1.364   .     S
C18    N86     1.442   .     S
C19    O37     1.385   .     S
C19    C24     1.409   .     A
C19    C333    1.381   1_545 S
C20    C23     1.409   .     A
C20    O39     1.385   .     S
C20    C178    1.381   .     S
C21    C23     1.405   .     A
C21    N41     1.439   .     S
C21    C175    1.381   .     S
C22    C24     1.405   .     A
C22    N44     1.439   .     S
C22    C332    1.381   1_545 S
C25    H27     1.082   .     S
C25    C965    1.417   1_554 S
C26    H28     1.082   .     S
C26    C498    1.417   .     S
C29    N47     1.428   .     S
C29    C493    1.417   .     S
C30    N50     1.428   .     S
C30    C962    1.417   1_554 S
N31    O33     1.301   .     A
N31    O32     1.301   .     A
N31    C69     1.442   .     S
N34    O36     1.301   .     A
N34    O35     1.301   .     A
N34    C122    1.442   1_455 S
O37    H38     0.988   .     S
O39    H40     0.988   .     S
N41    O42     1.301   .     A
N41    O43     1.300   .     A
N44    O45     1.301   .     A
N44    O46     1.301   .     A
N47    O48     1.300   .     A
N47    O49     1.302   .     A
N50    O52     1.301   .     A
N50    O51     1.300   .     A
O53    C57     1.280   .     A
O53    Zn65    1.983   .     S
O54    C58     1.280   .     A
O54    Zn66    1.983   .     S
O55    Zn66    1.993   .     S
O55    C57     1.283   .     A
O56    C58     1.283   .     A
O56    Zn65    1.993   .     S
C57    C76     1.410   .     S
C58    C75     1.410   .     S
O59    C63     1.275   .     A
O59    Zn65    1.987   .     S
O60    C64     1.275   .     A
O60    Zn66    1.987   .     S
O61    Zn66    2.006   .     S
O61    C63     1.290   .     A
O62    C64     1.290   .     A
O62    Zn65    2.006   .     S
C63    C69     1.410   .     S
C64    C70     1.410   .     S
Zn65   N67     2.016   .     S
Zn66   N68     2.016   .     S
N67    C81     1.379   .     A
N67    C78     1.359   .     A
N68    C82     1.379   .     A
N68    C77     1.360   .     A
C70    C121    1.364   .     S
C70    N138    1.442   .     S
C71    O89     1.385   .     S
C71    C76     1.409   .     A
C71    C385    1.381   1_545 S
C72    C75     1.409   .     A
C72    O91     1.385   .     S
C72    C230    1.381   .     S
C73    C75     1.405   .     A
C73    N93     1.439   .     S
C73    C227    1.381   .     S
C74    C76     1.405   .     A
C74    N96     1.439   .     S
C74    C384    1.381   1_545 S
C77    H79     1.082   .     S
C77    C1017   1.417   1_554 S
C78    H80     1.082   .     S
C78    C550    1.417   .     S
C81    N99     1.428   .     S
C81    C545    1.417   .     S
C82    N102    1.428   .     S
C82    C1014   1.417   1_554 S
N83    O85     1.301   .     A
N83    O84     1.301   .     A
N83    C121    1.442   .     S
N86    O88     1.301   .     A
N86    O87     1.301   .     A
O89    H90     0.988   .     S
O91    H92     0.988   .     S
N93    O94     1.301   .     A
N93    O95     1.300   .     A
N96    O97     1.301   .     A
N96    O98     1.301   .     A
N99    O100    1.300   .     A
N99    O101    1.302   .     A
N102   O104    1.301   .     A
N102   O103    1.300   .     A
O105   C109    1.280   .     A
O105   Zn117   1.983   .     S
O106   C110    1.280   .     A
O106   Zn118   1.983   .     S
O107   Zn118   1.993   .     S
O107   C109    1.283   .     A
O108   C110    1.283   .     A
O108   Zn117   1.993   .     S
C109   C128    1.410   .     S
C110   C127    1.410   .     S
O111   C115    1.275   .     A
O111   Zn117   1.987   .     S
O112   C116    1.275   .     A
O112   Zn118   1.987   .     S
O113   Zn118   2.006   .     S
O113   C115    1.290   .     A
O114   C116    1.290   .     A
O114   Zn117   2.006   .     S
C115   C121    1.410   .     S
C116   C122    1.410   .     S
Zn117  N119    2.016   .     S
Zn118  N120    2.016   .     S
N119   C133    1.379   .     A
N119   C130    1.359   .     A
N120   C134    1.379   .     A
N120   C129    1.360   .     A
C122   C17     1.364   1_655 S
C122   N34     1.442   1_655 S
C123   O141    1.385   .     S
C123   C128    1.409   .     A
C123   C437    1.381   1_545 S
C124   C127    1.409   .     A
C124   O143    1.385   .     S
C124   C282    1.381   .     S
C125   C127    1.405   .     A
C125   N145    1.439   .     S
C125   C279    1.381   .     S
C126   C128    1.405   .     A
C126   N148    1.439   .     S
C126   C436    1.381   1_545 S
C129   H131    1.082   .     S
C129   C1069   1.417   1_554 S
C130   H132    1.082   .     S
C130   C602    1.417   .     S
C133   N151    1.428   .     S
C133   C597    1.417   .     S
C134   N154    1.428   .     S
C134   C1066   1.417   1_554 S
N135   O137    1.301   .     A
N135   O136    1.301   .     A
N135   C17     1.442   1_655 S
N138   O140    1.301   .     A
N138   O139    1.301   .     A
O141   H142    0.988   .     S
O143   H144    0.988   .     S
N145   O146    1.301   .     A
N145   O147    1.300   .     A
N148   O149    1.301   .     A
N148   O150    1.301   .     A
N151   O152    1.300   .     A
N151   O153    1.302   .     A
N154   O156    1.301   .     A
N154   O155    1.300   .     A
O157   C161    1.280   .     A
O157   Zn169   1.983   .     S
O158   C162    1.280   .     A
O158   Zn170   1.983   .     S
O159   Zn170   1.993   .     S
O159   C161    1.283   .     A
O160   C162    1.283   .     A
O160   Zn169   1.993   .     S
C161   C180    1.410   .     S
C162   C179    1.410   .     S
O163   C167    1.275   .     A
O163   Zn169   1.987   .     S
O164   C168    1.275   .     A
O164   Zn170   1.987   .     S
O165   Zn170   2.006   .     S
O165   C167    1.290   .     A
O166   C168    1.290   .     A
O166   Zn169   2.006   .     S
C167   C173    1.410   .     S
C168   C174    1.410   .     S
Zn169  N171    2.016   .     S
Zn170  N172    2.016   .     S
N171   C185    1.379   .     A
N171   C182    1.359   .     A
N172   C186    1.379   .     A
N172   C181    1.360   .     A
C173   C278    1.364   1_455 S
C173   N291    1.442   1_455 S
C174   C225    1.364   .     S
C174   N242    1.442   .     S
C175   O193    1.385   .     S
C175   C180    1.409   .     A
C176   C179    1.409   .     A
C176   O195    1.385   .     S
C176   C334    1.381   .     S
C177   C179    1.405   .     A
C177   N197    1.439   .     S
C177   C331    1.381   .     S
C178   C180    1.405   .     A
C178   N200    1.439   .     S
C181   H183    1.082   .     S
C181   C1121   1.417   1_554 S
C182   H184    1.082   .     S
C182   C654    1.417   .     S
C185   N203    1.428   .     S
C185   C649    1.417   .     S
C186   N206    1.428   .     S
C186   C1118   1.417   1_554 S
N187   O189    1.301   .     A
N187   O188    1.301   .     A
N187   C225    1.442   .     S
N190   O192    1.301   .     A
N190   O191    1.301   .     A
N190   C278    1.442   1_455 S
O193   H194    0.988   .     S
O195   H196    0.988   .     S
N197   O198    1.301   .     A
N197   O199    1.300   .     A
N200   O201    1.301   .     A
N200   O202    1.301   .     A
N203   O204    1.300   .     A
N203   O205    1.302   .     A
N206   O208    1.301   .     A
N206   O207    1.300   .     A
O209   C213    1.280   .     A
O209   Zn221   1.983   .     S
O210   C214    1.280   .     A
O210   Zn222   1.983   .     S
O211   Zn222   1.993   .     S
O211   C213    1.283   .     A
O212   C214    1.283   .     A
O212   Zn221   1.993   .     S
C213   C232    1.410   .     S
C214   C231    1.410   .     S
O215   C219    1.275   .     A
O215   Zn221   1.987   .     S
O216   C220    1.275   .     A
O216   Zn222   1.987   .     S
O217   Zn222   2.006   .     S
O217   C219    1.290   .     A
O218   C220    1.290   .     A
O218   Zn221   2.006   .     S
C219   C225    1.410   .     S
C220   C226    1.410   .     S
Zn221  N223    2.016   .     S
Zn222  N224    2.016   .     S
N223   C237    1.379   .     A
N223   C234    1.359   .     A
N224   C238    1.379   .     A
N224   C233    1.360   .     A
C226   C277    1.364   .     S
C226   N294    1.442   .     S
C227   O245    1.385   .     S
C227   C232    1.409   .     A
C228   C231    1.409   .     A
C228   O247    1.385   .     S
C228   C386    1.381   .     S
C229   C231    1.405   .     A
C229   N249    1.439   .     S
C229   C383    1.381   .     S
C230   C232    1.405   .     A
C230   N252    1.439   .     S
C233   H235    1.082   .     S
C233   C1173   1.417   1_554 S
C234   H236    1.082   .     S
C234   C706    1.417   .     S
C237   N255    1.428   .     S
C237   C701    1.417   .     S
C238   N258    1.428   .     S
C238   C1170   1.417   1_554 S
N239   O241    1.301   .     A
N239   O240    1.301   .     A
N239   C277    1.442   .     S
N242   O244    1.301   .     A
N242   O243    1.301   .     A
O245   H246    0.988   .     S
O247   H248    0.988   .     S
N249   O250    1.301   .     A
N249   O251    1.300   .     A
N252   O253    1.301   .     A
N252   O254    1.301   .     A
N255   O256    1.300   .     A
N255   O257    1.302   .     A
N258   O260    1.301   .     A
N258   O259    1.300   .     A
O261   C265    1.280   .     A
O261   Zn273   1.983   .     S
O262   C266    1.280   .     A
O262   Zn274   1.983   .     S
O263   Zn274   1.993   .     S
O263   C265    1.283   .     A
O264   C266    1.283   .     A
O264   Zn273   1.993   .     S
C265   C284    1.410   .     S
C266   C283    1.410   .     S
O267   C271    1.275   .     A
O267   Zn273   1.987   .     S
O268   C272    1.275   .     A
O268   Zn274   1.987   .     S
O269   Zn274   2.006   .     S
O269   C271    1.290   .     A
O270   C272    1.290   .     A
O270   Zn273   2.006   .     S
C271   C277    1.410   .     S
C272   C278    1.410   .     S
Zn273  N275    2.016   .     S
Zn274  N276    2.016   .     S
N275   C289    1.379   .     A
N275   C286    1.359   .     A
N276   C290    1.379   .     A
N276   C285    1.360   .     A
C278   C173    1.364   1_655 S
C278   N190    1.442   1_655 S
C279   O297    1.385   .     S
C279   C284    1.409   .     A
C280   C283    1.409   .     A
C280   O299    1.385   .     S
C280   C438    1.381   .     S
C281   C283    1.405   .     A
C281   N301    1.439   .     S
C281   C435    1.381   .     S
C282   C284    1.405   .     A
C282   N304    1.439   .     S
C285   H287    1.082   .     S
C285   C1225   1.417   1_554 S
C286   H288    1.082   .     S
C286   C758    1.417   .     S
C289   N307    1.428   .     S
C289   C753    1.417   .     S
C290   N310    1.428   .     S
C290   C1222   1.417   1_554 S
N291   O293    1.301   .     A
N291   O292    1.301   .     A
N291   C173    1.442   1_655 S
N294   O296    1.301   .     A
N294   O295    1.301   .     A
O297   H298    0.988   .     S
O299   H300    0.988   .     S
N301   O302    1.301   .     A
N301   O303    1.300   .     A
N304   O305    1.301   .     A
N304   O306    1.301   .     A
N307   O308    1.300   .     A
N307   O309    1.302   .     A
N310   O312    1.301   .     A
N310   O311    1.300   .     A
O313   C317    1.280   .     A
O313   Zn325   1.983   .     S
O314   C318    1.280   .     A
O314   Zn326   1.983   .     S
O315   Zn326   1.993   .     S
O315   C317    1.283   .     A
O316   C318    1.283   .     A
O316   Zn325   1.993   .     S
C317   C336    1.410   .     S
C318   C335    1.410   .     S
O319   C323    1.275   .     A
O319   Zn325   1.987   .     S
O320   C324    1.275   .     A
O320   Zn326   1.987   .     S
O321   Zn326   2.006   .     S
O321   C323    1.290   .     A
O322   C324    1.290   .     A
O322   Zn325   2.006   .     S
C323   C329    1.410   .     S
C324   C330    1.410   .     S
Zn325  N327    2.016   .     S
Zn326  N328    2.016   .     S
N327   C341    1.379   .     A
N327   C338    1.359   .     A
N328   C342    1.379   .     A
N328   C337    1.360   .     A
C329   C434    1.364   1_455 S
C329   N447    1.442   1_455 S
C330   C381    1.364   .     S
C330   N398    1.442   .     S
C331   O349    1.385   .     S
C331   C336    1.409   .     A
C332   C335    1.409   .     A
C332   O351    1.385   .     S
C332   C22     1.381   1_565 S
C333   C335    1.405   .     A
C333   N353    1.439   .     S
C333   C19     1.381   1_565 S
C334   C336    1.405   .     A
C334   N356    1.439   .     S
C337   H339    1.082   .     S
C337   C1277   1.417   1_554 S
C338   H340    1.082   .     S
C338   C810    1.417   .     S
C341   N359    1.428   .     S
C341   C805    1.417   .     S
C342   N362    1.428   .     S
C342   C1274   1.417   1_554 S
N343   O345    1.301   .     A
N343   O344    1.301   .     A
N343   C381    1.442   .     S
N346   O348    1.301   .     A
N346   O347    1.301   .     A
N346   C434    1.442   1_455 S
O349   H350    0.988   .     S
O351   H352    0.988   .     S
N353   O354    1.301   .     A
N353   O355    1.300   .     A
N356   O357    1.301   .     A
N356   O358    1.301   .     A
N359   O360    1.300   .     A
N359   O361    1.302   .     A
N362   O364    1.301   .     A
N362   O363    1.300   .     A
O365   C369    1.280   .     A
O365   Zn377   1.983   .     S
O366   C370    1.280   .     A
O366   Zn378   1.983   .     S
O367   Zn378   1.993   .     S
O367   C369    1.283   .     A
O368   C370    1.283   .     A
O368   Zn377   1.993   .     S
C369   C388    1.410   .     S
C370   C387    1.410   .     S
O371   C375    1.275   .     A
O371   Zn377   1.987   .     S
O372   C376    1.275   .     A
O372   Zn378   1.987   .     S
O373   Zn378   2.006   .     S
O373   C375    1.290   .     A
O374   C376    1.290   .     A
O374   Zn377   2.006   .     S
C375   C381    1.410   .     S
C376   C382    1.410   .     S
Zn377  N379    2.016   .     S
Zn378  N380    2.016   .     S
N379   C393    1.379   .     A
N379   C390    1.359   .     A
N380   C394    1.379   .     A
N380   C389    1.360   .     A
C382   C433    1.364   .     S
C382   N450    1.442   .     S
C383   O401    1.385   .     S
C383   C388    1.409   .     A
C384   C387    1.409   .     A
C384   O403    1.385   .     S
C384   C74     1.381   1_565 S
C385   C387    1.405   .     A
C385   N405    1.439   .     S
C385   C71     1.381   1_565 S
C386   C388    1.405   .     A
C386   N408    1.439   .     S
C389   H391    1.082   .     S
C389   C1329   1.417   1_554 S
C390   H392    1.082   .     S
C390   C862    1.417   .     S
C393   N411    1.428   .     S
C393   C857    1.417   .     S
C394   N414    1.428   .     S
C394   C1326   1.417   1_554 S
N395   O397    1.301   .     A
N395   O396    1.301   .     A
N395   C433    1.442   .     S
N398   O400    1.301   .     A
N398   O399    1.301   .     A
O401   H402    0.988   .     S
O403   H404    0.988   .     S
N405   O406    1.301   .     A
N405   O407    1.300   .     A
N408   O409    1.301   .     A
N408   O410    1.301   .     A
N411   O412    1.300   .     A
N411   O413    1.302   .     A
N414   O416    1.301   .     A
N414   O415    1.300   .     A
O417   C421    1.280   .     A
O417   Zn429   1.983   .     S
O418   C422    1.280   .     A
O418   Zn430   1.983   .     S
O419   Zn430   1.993   .     S
O419   C421    1.283   .     A
O420   C422    1.283   .     A
O420   Zn429   1.993   .     S
C421   C440    1.410   .     S
C422   C439    1.410   .     S
O423   C427    1.275   .     A
O423   Zn429   1.987   .     S
O424   C428    1.275   .     A
O424   Zn430   1.987   .     S
O425   Zn430   2.006   .     S
O425   C427    1.290   .     A
O426   C428    1.290   .     A
O426   Zn429   2.006   .     S
C427   C433    1.410   .     S
C428   C434    1.410   .     S
Zn429  N431    2.016   .     S
Zn430  N432    2.016   .     S
N431   C445    1.379   .     A
N431   C442    1.359   .     A
N432   C446    1.379   .     A
N432   C441    1.360   .     A
C434   C329    1.364   1_655 S
C434   N346    1.442   1_655 S
C435   O453    1.385   .     S
C435   C440    1.409   .     A
C436   C439    1.409   .     A
C436   O455    1.385   .     S
C436   C126    1.381   1_565 S
C437   C439    1.405   .     A
C437   N457    1.439   .     S
C437   C123    1.381   1_565 S
C438   C440    1.405   .     A
C438   N460    1.439   .     S
C441   H443    1.082   .     S
C441   C1381   1.417   1_554 S
C442   H444    1.082   .     S
C442   C914    1.417   .     S
C445   N463    1.428   .     S
C445   C909    1.417   .     S
C446   N466    1.428   .     S
C446   C1378   1.417   1_554 S
N447   O449    1.301   .     A
N447   O448    1.301   .     A
N447   C329    1.442   1_655 S
N450   O452    1.301   .     A
N450   O451    1.301   .     A
O453   H454    0.988   .     S
O455   H456    0.988   .     S
N457   O458    1.301   .     A
N457   O459    1.300   .     A
N460   O461    1.301   .     A
N460   O462    1.301   .     A
N463   O464    1.300   .     A
N463   O465    1.302   .     A
N466   O468    1.301   .     A
N466   O467    1.300   .     A
O469   C473    1.280   .     A
O469   Zn481   1.983   .     S
O470   C474    1.280   .     A
O470   Zn482   1.983   .     S
O471   Zn482   1.993   .     S
O471   C473    1.283   .     A
O472   C474    1.283   .     A
O472   Zn481   1.993   .     S
C473   C492    1.410   .     S
C474   C491    1.410   .     S
O475   C479    1.275   .     A
O475   Zn481   1.987   .     S
O476   C480    1.275   .     A
O476   Zn482   1.987   .     S
O477   Zn482   2.006   .     S
O477   C479    1.290   .     A
O478   C480    1.290   .     A
O478   Zn481   2.006   .     S
C479   C485    1.410   .     S
C480   C486    1.410   .     S
Zn481  N483    2.016   .     S
Zn482  N484    2.016   .     S
N483   C497    1.379   .     A
N483   C494    1.359   .     A
N484   C498    1.379   .     A
N484   C493    1.360   .     A
C485   C590    1.364   1_455 S
C485   N603    1.442   1_455 S
C486   C537    1.364   .     S
C486   N554    1.442   .     S
C487   O505    1.385   .     S
C487   C492    1.409   .     A
C487   C801    1.381   1_545 S
C488   C491    1.409   .     A
C488   O507    1.385   .     S
C488   C646    1.381   .     S
C489   C491    1.405   .     A
C489   N509    1.439   .     S
C489   C643    1.381   .     S
C490   C492    1.405   .     A
C490   N512    1.439   .     S
C490   C800    1.381   1_545 S
C493   H495    1.082   .     S
C494   H496    1.082   .     S
C494   C966    1.417   .     S
C497   N515    1.428   .     S
C497   C961    1.417   .     S
C498   N518    1.428   .     S
N499   O501    1.301   .     A
N499   O500    1.301   .     A
N499   C537    1.442   .     S
N502   O504    1.301   .     A
N502   O503    1.301   .     A
N502   C590    1.442   1_455 S
O505   H506    0.988   .     S
O507   H508    0.988   .     S
N509   O510    1.301   .     A
N509   O511    1.300   .     A
N512   O513    1.301   .     A
N512   O514    1.301   .     A
N515   O516    1.300   .     A
N515   O517    1.302   .     A
N518   O520    1.301   .     A
N518   O519    1.300   .     A
O521   C525    1.280   .     A
O521   Zn533   1.983   .     S
O522   C526    1.280   .     A
O522   Zn534   1.983   .     S
O523   Zn534   1.993   .     S
O523   C525    1.283   .     A
O524   C526    1.283   .     A
O524   Zn533   1.993   .     S
C525   C544    1.410   .     S
C526   C543    1.410   .     S
O527   C531    1.275   .     A
O527   Zn533   1.987   .     S
O528   C532    1.275   .     A
O528   Zn534   1.987   .     S
O529   Zn534   2.006   .     S
O529   C531    1.290   .     A
O530   C532    1.290   .     A
O530   Zn533   2.006   .     S
C531   C537    1.410   .     S
C532   C538    1.410   .     S
Zn533  N535    2.016   .     S
Zn534  N536    2.016   .     S
N535   C549    1.379   .     A
N535   C546    1.359   .     A
N536   C550    1.379   .     A
N536   C545    1.360   .     A
C538   C589    1.364   .     S
C538   N606    1.442   .     S
C539   O557    1.385   .     S
C539   C544    1.409   .     A
C539   C853    1.381   1_545 S
C540   C543    1.409   .     A
C540   O559    1.385   .     S
C540   C698    1.381   .     S
C541   C543    1.405   .     A
C541   N561    1.439   .     S
C541   C695    1.381   .     S
C542   C544    1.405   .     A
C542   N564    1.439   .     S
C542   C852    1.381   1_545 S
C545   H547    1.082   .     S
C546   H548    1.082   .     S
C546   C1018   1.417   .     S
C549   N567    1.428   .     S
C549   C1013   1.417   .     S
C550   N570    1.428   .     S
N551   O553    1.301   .     A
N551   O552    1.301   .     A
N551   C589    1.442   .     S
N554   O556    1.301   .     A
N554   O555    1.301   .     A
O557   H558    0.988   .     S
O559   H560    0.988   .     S
N561   O562    1.301   .     A
N561   O563    1.300   .     A
N564   O565    1.301   .     A
N564   O566    1.301   .     A
N567   O568    1.300   .     A
N567   O569    1.302   .     A
N570   O572    1.301   .     A
N570   O571    1.300   .     A
O573   C577    1.280   .     A
O573   Zn585   1.983   .     S
O574   C578    1.280   .     A
O574   Zn586   1.983   .     S
O575   Zn586   1.993   .     S
O575   C577    1.283   .     A
O576   C578    1.283   .     A
O576   Zn585   1.993   .     S
C577   C596    1.410   .     S
C578   C595    1.410   .     S
O579   C583    1.275   .     A
O579   Zn585   1.987   .     S
O580   C584    1.275   .     A
O580   Zn586   1.987   .     S
O581   Zn586   2.006   .     S
O581   C583    1.290   .     A
O582   C584    1.290   .     A
O582   Zn585   2.006   .     S
C583   C589    1.410   .     S
C584   C590    1.410   .     S
Zn585  N587    2.016   .     S
Zn586  N588    2.016   .     S
N587   C601    1.379   .     A
N587   C598    1.359   .     A
N588   C602    1.379   .     A
N588   C597    1.360   .     A
C590   C485    1.364   1_655 S
C590   N502    1.442   1_655 S
C591   O609    1.385   .     S
C591   C596    1.409   .     A
C591   C905    1.381   1_545 S
C592   C595    1.409   .     A
C592   O611    1.385   .     S
C592   C750    1.381   .     S
C593   C595    1.405   .     A
C593   N613    1.439   .     S
C593   C747    1.381   .     S
C594   C596    1.405   .     A
C594   N616    1.439   .     S
C594   C904    1.381   1_545 S
C597   H599    1.082   .     S
C598   H600    1.082   .     S
C598   C1070   1.417   .     S
C601   N619    1.428   .     S
C601   C1065   1.417   .     S
C602   N622    1.428   .     S
N603   O605    1.301   .     A
N603   O604    1.301   .     A
N603   C485    1.442   1_655 S
N606   O608    1.301   .     A
N606   O607    1.301   .     A
O609   H610    0.988   .     S
O611   H612    0.988   .     S
N613   O614    1.301   .     A
N613   O615    1.300   .     A
N616   O617    1.301   .     A
N616   O618    1.301   .     A
N619   O620    1.300   .     A
N619   O621    1.302   .     A
N622   O624    1.301   .     A
N622   O623    1.300   .     A
O625   C629    1.280   .     A
O625   Zn637   1.983   .     S
O626   C630    1.280   .     A
O626   Zn638   1.983   .     S
O627   Zn638   1.993   .     S
O627   C629    1.283   .     A
O628   C630    1.283   .     A
O628   Zn637   1.993   .     S
C629   C648    1.410   .     S
C630   C647    1.410   .     S
O631   C635    1.275   .     A
O631   Zn637   1.987   .     S
O632   C636    1.275   .     A
O632   Zn638   1.987   .     S
O633   Zn638   2.006   .     S
O633   C635    1.290   .     A
O634   C636    1.290   .     A
O634   Zn637   2.006   .     S
C635   C641    1.410   .     S
C636   C642    1.410   .     S
Zn637  N639    2.016   .     S
Zn638  N640    2.016   .     S
N639   C653    1.379   .     A
N639   C650    1.359   .     A
N640   C654    1.379   .     A
N640   C649    1.360   .     A
C641   C746    1.364   1_455 S
C641   N759    1.442   1_455 S
C642   C693    1.364   .     S
C642   N710    1.442   .     S
C643   O661    1.385   .     S
C643   C648    1.409   .     A
C644   C647    1.409   .     A
C644   O663    1.385   .     S
C644   C802    1.381   .     S
C645   C647    1.405   .     A
C645   N665    1.439   .     S
C645   C799    1.381   .     S
C646   C648    1.405   .     A
C646   N668    1.439   .     S
C649   H651    1.082   .     S
C650   H652    1.082   .     S
C650   C1122   1.417   .     S
C653   N671    1.428   .     S
C653   C1117   1.417   .     S
C654   N674    1.428   .     S
N655   O657    1.301   .     A
N655   O656    1.301   .     A
N655   C693    1.442   .     S
N658   O660    1.301   .     A
N658   O659    1.301   .     A
N658   C746    1.442   1_455 S
O661   H662    0.988   .     S
O663   H664    0.988   .     S
N665   O666    1.301   .     A
N665   O667    1.300   .     A
N668   O669    1.301   .     A
N668   O670    1.301   .     A
N671   O672    1.300   .     A
N671   O673    1.302   .     A
N674   O676    1.301   .     A
N674   O675    1.300   .     A
O677   C681    1.280   .     A
O677   Zn689   1.983   .     S
O678   C682    1.280   .     A
O678   Zn690   1.983   .     S
O679   Zn690   1.993   .     S
O679   C681    1.283   .     A
O680   C682    1.283   .     A
O680   Zn689   1.993   .     S
C681   C700    1.410   .     S
C682   C699    1.410   .     S
O683   C687    1.275   .     A
O683   Zn689   1.987   .     S
O684   C688    1.275   .     A
O684   Zn690   1.987   .     S
O685   Zn690   2.006   .     S
O685   C687    1.290   .     A
O686   C688    1.290   .     A
O686   Zn689   2.006   .     S
C687   C693    1.410   .     S
C688   C694    1.410   .     S
Zn689  N691    2.016   .     S
Zn690  N692    2.016   .     S
N691   C705    1.379   .     A
N691   C702    1.359   .     A
N692   C706    1.379   .     A
N692   C701    1.360   .     A
C694   C745    1.364   .     S
C694   N762    1.442   .     S
C695   O713    1.385   .     S
C695   C700    1.409   .     A
C696   C699    1.409   .     A
C696   O715    1.385   .     S
C696   C854    1.381   .     S
C697   C699    1.405   .     A
C697   N717    1.439   .     S
C697   C851    1.381   .     S
C698   C700    1.405   .     A
C698   N720    1.439   .     S
C701   H703    1.082   .     S
C702   H704    1.082   .     S
C702   C1174   1.417   .     S
C705   N723    1.428   .     S
C705   C1169   1.417   .     S
C706   N726    1.428   .     S
N707   O709    1.301   .     A
N707   O708    1.301   .     A
N707   C745    1.442   .     S
N710   O712    1.301   .     A
N710   O711    1.301   .     A
O713   H714    0.988   .     S
O715   H716    0.988   .     S
N717   O718    1.301   .     A
N717   O719    1.300   .     A
N720   O721    1.301   .     A
N720   O722    1.301   .     A
N723   O724    1.300   .     A
N723   O725    1.302   .     A
N726   O728    1.301   .     A
N726   O727    1.300   .     A
O729   C733    1.280   .     A
O729   Zn741   1.983   .     S
O730   C734    1.280   .     A
O730   Zn742   1.983   .     S
O731   Zn742   1.993   .     S
O731   C733    1.283   .     A
O732   C734    1.283   .     A
O732   Zn741   1.993   .     S
C733   C752    1.410   .     S
C734   C751    1.410   .     S
O735   C739    1.275   .     A
O735   Zn741   1.987   .     S
O736   C740    1.275   .     A
O736   Zn742   1.987   .     S
O737   Zn742   2.006   .     S
O737   C739    1.290   .     A
O738   C740    1.290   .     A
O738   Zn741   2.006   .     S
C739   C745    1.410   .     S
C740   C746    1.410   .     S
Zn741  N743    2.016   .     S
Zn742  N744    2.016   .     S
N743   C757    1.379   .     A
N743   C754    1.359   .     A
N744   C758    1.379   .     A
N744   C753    1.360   .     A
C746   C641    1.364   1_655 S
C746   N658    1.442   1_655 S
C747   O765    1.385   .     S
C747   C752    1.409   .     A
C748   C751    1.409   .     A
C748   O767    1.385   .     S
C748   C906    1.381   .     S
C749   C751    1.405   .     A
C749   N769    1.439   .     S
C749   C903    1.381   .     S
C750   C752    1.405   .     A
C750   N772    1.439   .     S
C753   H755    1.082   .     S
C754   H756    1.082   .     S
C754   C1226   1.417   .     S
C757   N775    1.428   .     S
C757   C1221   1.417   .     S
C758   N778    1.428   .     S
N759   O761    1.301   .     A
N759   O760    1.301   .     A
N759   C641    1.442   1_655 S
N762   O764    1.301   .     A
N762   O763    1.301   .     A
O765   H766    0.988   .     S
O767   H768    0.988   .     S
N769   O770    1.301   .     A
N769   O771    1.300   .     A
N772   O773    1.301   .     A
N772   O774    1.301   .     A
N775   O776    1.300   .     A
N775   O777    1.302   .     A
N778   O780    1.301   .     A
N778   O779    1.300   .     A
O781   C785    1.280   .     A
O781   Zn793   1.983   .     S
O782   C786    1.280   .     A
O782   Zn794   1.983   .     S
O783   Zn794   1.993   .     S
O783   C785    1.283   .     A
O784   C786    1.283   .     A
O784   Zn793   1.993   .     S
C785   C804    1.410   .     S
C786   C803    1.410   .     S
O787   C791    1.275   .     A
O787   Zn793   1.987   .     S
O788   C792    1.275   .     A
O788   Zn794   1.987   .     S
O789   Zn794   2.006   .     S
O789   C791    1.290   .     A
O790   C792    1.290   .     A
O790   Zn793   2.006   .     S
C791   C797    1.410   .     S
C792   C798    1.410   .     S
Zn793  N795    2.016   .     S
Zn794  N796    2.016   .     S
N795   C809    1.379   .     A
N795   C806    1.359   .     A
N796   C810    1.379   .     A
N796   C805    1.360   .     A
C797   C902    1.364   1_455 S
C797   N915    1.442   1_455 S
C798   C849    1.364   .     S
C798   N866    1.442   .     S
C799   O817    1.385   .     S
C799   C804    1.409   .     A
C800   C803    1.409   .     A
C800   O819    1.385   .     S
C800   C490    1.381   1_565 S
C801   C803    1.405   .     A
C801   N821    1.439   .     S
C801   C487    1.381   1_565 S
C802   C804    1.405   .     A
C802   N824    1.439   .     S
C805   H807    1.082   .     S
C806   H808    1.082   .     S
C806   C1278   1.417   .     S
C809   N827    1.428   .     S
C809   C1273   1.417   .     S
C810   N830    1.428   .     S
N811   O813    1.301   .     A
N811   O812    1.301   .     A
N811   C849    1.442   .     S
N814   O816    1.301   .     A
N814   O815    1.301   .     A
N814   C902    1.442   1_455 S
O817   H818    0.988   .     S
O819   H820    0.988   .     S
N821   O822    1.301   .     A
N821   O823    1.300   .     A
N824   O825    1.301   .     A
N824   O826    1.301   .     A
N827   O828    1.300   .     A
N827   O829    1.302   .     A
N830   O832    1.301   .     A
N830   O831    1.300   .     A
O833   C837    1.280   .     A
O833   Zn845   1.983   .     S
O834   C838    1.280   .     A
O834   Zn846   1.983   .     S
O835   Zn846   1.993   .     S
O835   C837    1.283   .     A
O836   C838    1.283   .     A
O836   Zn845   1.993   .     S
C837   C856    1.410   .     S
C838   C855    1.410   .     S
O839   C843    1.275   .     A
O839   Zn845   1.987   .     S
O840   C844    1.275   .     A
O840   Zn846   1.987   .     S
O841   Zn846   2.006   .     S
O841   C843    1.290   .     A
O842   C844    1.290   .     A
O842   Zn845   2.006   .     S
C843   C849    1.410   .     S
C844   C850    1.410   .     S
Zn845  N847    2.016   .     S
Zn846  N848    2.016   .     S
N847   C861    1.379   .     A
N847   C858    1.359   .     A
N848   C862    1.379   .     A
N848   C857    1.360   .     A
C850   C901    1.364   .     S
C850   N918    1.442   .     S
C851   O869    1.385   .     S
C851   C856    1.409   .     A
C852   C855    1.409   .     A
C852   O871    1.385   .     S
C852   C542    1.381   1_565 S
C853   C855    1.405   .     A
C853   N873    1.439   .     S
C853   C539    1.381   1_565 S
C854   C856    1.405   .     A
C854   N876    1.439   .     S
C857   H859    1.082   .     S
C858   H860    1.082   .     S
C858   C1330   1.417   .     S
C861   N879    1.428   .     S
C861   C1325   1.417   .     S
C862   N882    1.428   .     S
N863   O865    1.301   .     A
N863   O864    1.301   .     A
N863   C901    1.442   .     S
N866   O868    1.301   .     A
N866   O867    1.301   .     A
O869   H870    0.988   .     S
O871   H872    0.988   .     S
N873   O874    1.301   .     A
N873   O875    1.300   .     A
N876   O877    1.301   .     A
N876   O878    1.301   .     A
N879   O880    1.300   .     A
N879   O881    1.302   .     A
N882   O884    1.301   .     A
N882   O883    1.300   .     A
O885   C889    1.280   .     A
O885   Zn897   1.983   .     S
O886   C890    1.280   .     A
O886   Zn898   1.983   .     S
O887   Zn898   1.993   .     S
O887   C889    1.283   .     A
O888   C890    1.283   .     A
O888   Zn897   1.993   .     S
C889   C908    1.410   .     S
C890   C907    1.410   .     S
O891   C895    1.275   .     A
O891   Zn897   1.987   .     S
O892   C896    1.275   .     A
O892   Zn898   1.987   .     S
O893   Zn898   2.006   .     S
O893   C895    1.290   .     A
O894   C896    1.290   .     A
O894   Zn897   2.006   .     S
C895   C901    1.410   .     S
C896   C902    1.410   .     S
Zn897  N899    2.016   .     S
Zn898  N900    2.016   .     S
N899   C913    1.379   .     A
N899   C910    1.359   .     A
N900   C914    1.379   .     A
N900   C909    1.360   .     A
C902   C797    1.364   1_655 S
C902   N814    1.442   1_655 S
C903   O921    1.385   .     S
C903   C908    1.409   .     A
C904   C907    1.409   .     A
C904   O923    1.385   .     S
C904   C594    1.381   1_565 S
C905   C907    1.405   .     A
C905   N925    1.439   .     S
C905   C591    1.381   1_565 S
C906   C908    1.405   .     A
C906   N928    1.439   .     S
C909   H911    1.082   .     S
C910   H912    1.082   .     S
C910   C1382   1.417   .     S
C913   N931    1.428   .     S
C913   C1377   1.417   .     S
C914   N934    1.428   .     S
N915   O917    1.301   .     A
N915   O916    1.301   .     A
N915   C797    1.442   1_655 S
N918   O920    1.301   .     A
N918   O919    1.301   .     A
O921   H922    0.988   .     S
O923   H924    0.988   .     S
N925   O926    1.301   .     A
N925   O927    1.300   .     A
N928   O929    1.301   .     A
N928   O930    1.301   .     A
N931   O932    1.300   .     A
N931   O933    1.302   .     A
N934   O936    1.301   .     A
N934   O935    1.300   .     A
O937   C941    1.280   .     A
O937   Zn949   1.983   .     S
O938   C942    1.280   .     A
O938   Zn950   1.983   .     S
O939   Zn950   1.993   .     S
O939   C941    1.283   .     A
O940   C942    1.283   .     A
O940   Zn949   1.993   .     S
C941   C960    1.410   .     S
C942   C959    1.410   .     S
O943   C947    1.275   .     A
O943   Zn949   1.987   .     S
O944   C948    1.275   .     A
O944   Zn950   1.987   .     S
O945   Zn950   2.006   .     S
O945   C947    1.290   .     A
O946   C948    1.290   .     A
O946   Zn949   2.006   .     S
C947   C953    1.410   .     S
C948   C954    1.410   .     S
Zn949  N951    2.016   .     S
Zn950  N952    2.016   .     S
N951   C965    1.379   .     A
N951   C962    1.359   .     A
N952   C966    1.379   .     A
N952   C961    1.360   .     A
C953   C1058   1.364   1_455 S
C953   N1071   1.442   1_455 S
C954   C1005   1.364   .     S
C954   N1022   1.442   .     S
C955   O973    1.385   .     S
C955   C960    1.409   .     A
C955   C1269   1.381   1_545 S
C956   C959    1.409   .     A
C956   O975    1.385   .     S
C956   C1114   1.381   .     S
C957   C959    1.405   .     A
C957   N977    1.439   .     S
C957   C1111   1.381   .     S
C958   C960    1.405   .     A
C958   N980    1.439   .     S
C958   C1268   1.381   1_545 S
C961   H963    1.082   .     S
C962   H964    1.082   .     S
C962   C30     1.417   1_556 S
C965   N983    1.428   .     S
C965   C25     1.417   1_556 S
C966   N986    1.428   .     S
N967   O969    1.301   .     A
N967   O968    1.301   .     A
N967   C1005   1.442   .     S
N970   O972    1.301   .     A
N970   O971    1.301   .     A
N970   C1058   1.442   1_455 S
O973   H974    0.988   .     S
O975   H976    0.988   .     S
N977   O978    1.301   .     A
N977   O979    1.300   .     A
N980   O981    1.301   .     A
N980   O982    1.301   .     A
N983   O984    1.300   .     A
N983   O985    1.302   .     A
N986   O988    1.301   .     A
N986   O987    1.300   .     A
O989   C993    1.280   .     A
O989   Zn1001  1.983   .     S
O990   C994    1.280   .     A
O990   Zn1002  1.983   .     S
O991   Zn1002  1.993   .     S
O991   C993    1.283   .     A
O992   C994    1.283   .     A
O992   Zn1001  1.993   .     S
C993   C1012   1.410   .     S
C994   C1011   1.410   .     S
O995   C999    1.275   .     A
O995   Zn1001  1.987   .     S
O996   C1000   1.275   .     A
O996   Zn1002  1.987   .     S
O997   Zn1002  2.006   .     S
O997   C999    1.290   .     A
O998   C1000   1.290   .     A
O998   Zn1001  2.006   .     S
C999   C1005   1.410   .     S
C1000  C1006   1.410   .     S
Zn1001 N1003   2.016   .     S
Zn1002 N1004   2.016   .     S
N1003  C1017   1.379   .     A
N1003  C1014   1.359   .     A
N1004  C1018   1.379   .     A
N1004  C1013   1.360   .     A
C1006  C1057   1.364   .     S
C1006  N1074   1.442   .     S
C1007  O1025   1.385   .     S
C1007  C1012   1.409   .     A
C1007  C1321   1.381   1_545 S
C1008  C1011   1.409   .     A
C1008  O1027   1.385   .     S
C1008  C1166   1.381   .     S
C1009  C1011   1.405   .     A
C1009  N1029   1.439   .     S
C1009  C1163   1.381   .     S
C1010  C1012   1.405   .     A
C1010  N1032   1.439   .     S
C1010  C1320   1.381   1_545 S
C1013  H1015   1.082   .     S
C1014  H1016   1.082   .     S
C1014  C82     1.417   1_556 S
C1017  N1035   1.428   .     S
C1017  C77     1.417   1_556 S
C1018  N1038   1.428   .     S
N1019  O1021   1.301   .     A
N1019  O1020   1.301   .     A
N1019  C1057   1.442   .     S
N1022  O1024   1.301   .     A
N1022  O1023   1.301   .     A
O1025  H1026   0.988   .     S
O1027  H1028   0.988   .     S
N1029  O1030   1.301   .     A
N1029  O1031   1.300   .     A
N1032  O1033   1.301   .     A
N1032  O1034   1.301   .     A
N1035  O1036   1.300   .     A
N1035  O1037   1.302   .     A
N1038  O1040   1.301   .     A
N1038  O1039   1.300   .     A
O1041  C1045   1.280   .     A
O1041  Zn1053  1.983   .     S
O1042  C1046   1.280   .     A
O1042  Zn1054  1.983   .     S
O1043  Zn1054  1.993   .     S
O1043  C1045   1.283   .     A
O1044  C1046   1.283   .     A
O1044  Zn1053  1.993   .     S
C1045  C1064   1.410   .     S
C1046  C1063   1.410   .     S
O1047  C1051   1.275   .     A
O1047  Zn1053  1.987   .     S
O1048  C1052   1.275   .     A
O1048  Zn1054  1.987   .     S
O1049  Zn1054  2.006   .     S
O1049  C1051   1.290   .     A
O1050  C1052   1.290   .     A
O1050  Zn1053  2.006   .     S
C1051  C1057   1.410   .     S
C1052  C1058   1.410   .     S
Zn1053 N1055   2.016   .     S
Zn1054 N1056   2.016   .     S
N1055  C1069   1.379   .     A
N1055  C1066   1.359   .     A
N1056  C1070   1.379   .     A
N1056  C1065   1.360   .     A
C1058  C953    1.364   1_655 S
C1058  N970    1.442   1_655 S
C1059  O1077   1.385   .     S
C1059  C1064   1.409   .     A
C1059  C1373   1.381   1_545 S
C1060  C1063   1.409   .     A
C1060  O1079   1.385   .     S
C1060  C1218   1.381   .     S
C1061  C1063   1.405   .     A
C1061  N1081   1.439   .     S
C1061  C1215   1.381   .     S
C1062  C1064   1.405   .     A
C1062  N1084   1.439   .     S
C1062  C1372   1.381   1_545 S
C1065  H1067   1.082   .     S
C1066  H1068   1.082   .     S
C1066  C134    1.417   1_556 S
C1069  N1087   1.428   .     S
C1069  C129    1.417   1_556 S
C1070  N1090   1.428   .     S
N1071  O1073   1.301   .     A
N1071  O1072   1.301   .     A
N1071  C953    1.442   1_655 S
N1074  O1076   1.301   .     A
N1074  O1075   1.301   .     A
O1077  H1078   0.988   .     S
O1079  H1080   0.988   .     S
N1081  O1082   1.301   .     A
N1081  O1083   1.300   .     A
N1084  O1085   1.301   .     A
N1084  O1086   1.301   .     A
N1087  O1088   1.300   .     A
N1087  O1089   1.302   .     A
N1090  O1092   1.301   .     A
N1090  O1091   1.300   .     A
O1093  C1097   1.280   .     A
O1093  Zn1105  1.983   .     S
O1094  C1098   1.280   .     A
O1094  Zn1106  1.983   .     S
O1095  Zn1106  1.993   .     S
O1095  C1097   1.283   .     A
O1096  C1098   1.283   .     A
O1096  Zn1105  1.993   .     S
C1097  C1116   1.410   .     S
C1098  C1115   1.410   .     S
O1099  C1103   1.275   .     A
O1099  Zn1105  1.987   .     S
O1100  C1104   1.275   .     A
O1100  Zn1106  1.987   .     S
O1101  Zn1106  2.006   .     S
O1101  C1103   1.290   .     A
O1102  C1104   1.290   .     A
O1102  Zn1105  2.006   .     S
C1103  C1109   1.410   .     S
C1104  C1110   1.410   .     S
Zn1105 N1107   2.016   .     S
Zn1106 N1108   2.016   .     S
N1107  C1121   1.379   .     A
N1107  C1118   1.359   .     A
N1108  C1122   1.379   .     A
N1108  C1117   1.360   .     A
C1109  C1214   1.364   1_455 S
C1109  N1227   1.442   1_455 S
C1110  C1161   1.364   .     S
C1110  N1178   1.442   .     S
C1111  O1129   1.385   .     S
C1111  C1116   1.409   .     A
C1112  C1115   1.409   .     A
C1112  O1131   1.385   .     S
C1112  C1270   1.381   .     S
C1113  C1115   1.405   .     A
C1113  N1133   1.439   .     S
C1113  C1267   1.381   .     S
C1114  C1116   1.405   .     A
C1114  N1136   1.439   .     S
C1117  H1119   1.082   .     S
C1118  H1120   1.082   .     S
C1118  C186    1.417   1_556 S
C1121  N1139   1.428   .     S
C1121  C181    1.417   1_556 S
C1122  N1142   1.428   .     S
N1123  O1125   1.301   .     A
N1123  O1124   1.301   .     A
N1123  C1161   1.442   .     S
N1126  O1128   1.301   .     A
N1126  O1127   1.301   .     A
N1126  C1214   1.442   1_455 S
O1129  H1130   0.988   .     S
O1131  H1132   0.988   .     S
N1133  O1134   1.301   .     A
N1133  O1135   1.300   .     A
N1136  O1137   1.301   .     A
N1136  O1138   1.301   .     A
N1139  O1140   1.300   .     A
N1139  O1141   1.302   .     A
N1142  O1144   1.301   .     A
N1142  O1143   1.300   .     A
O1145  C1149   1.280   .     A
O1145  Zn1157  1.983   .     S
O1146  C1150   1.280   .     A
O1146  Zn1158  1.983   .     S
O1147  Zn1158  1.993   .     S
O1147  C1149   1.283   .     A
O1148  C1150   1.283   .     A
O1148  Zn1157  1.993   .     S
C1149  C1168   1.410   .     S
C1150  C1167   1.410   .     S
O1151  C1155   1.275   .     A
O1151  Zn1157  1.987   .     S
O1152  C1156   1.275   .     A
O1152  Zn1158  1.987   .     S
O1153  Zn1158  2.006   .     S
O1153  C1155   1.290   .     A
O1154  C1156   1.290   .     A
O1154  Zn1157  2.006   .     S
C1155  C1161   1.410   .     S
C1156  C1162   1.410   .     S
Zn1157 N1159   2.016   .     S
Zn1158 N1160   2.016   .     S
N1159  C1173   1.379   .     A
N1159  C1170   1.359   .     A
N1160  C1174   1.379   .     A
N1160  C1169   1.360   .     A
C1162  C1213   1.364   .     S
C1162  N1230   1.442   .     S
C1163  O1181   1.385   .     S
C1163  C1168   1.409   .     A
C1164  C1167   1.409   .     A
C1164  O1183   1.385   .     S
C1164  C1322   1.381   .     S
C1165  C1167   1.405   .     A
C1165  N1185   1.439   .     S
C1165  C1319   1.381   .     S
C1166  C1168   1.405   .     A
C1166  N1188   1.439   .     S
C1169  H1171   1.082   .     S
C1170  H1172   1.082   .     S
C1170  C238    1.417   1_556 S
C1173  N1191   1.428   .     S
C1173  C233    1.417   1_556 S
C1174  N1194   1.428   .     S
N1175  O1177   1.301   .     A
N1175  O1176   1.301   .     A
N1175  C1213   1.442   .     S
N1178  O1180   1.301   .     A
N1178  O1179   1.301   .     A
O1181  H1182   0.988   .     S
O1183  H1184   0.988   .     S
N1185  O1186   1.301   .     A
N1185  O1187   1.300   .     A
N1188  O1189   1.301   .     A
N1188  O1190   1.301   .     A
N1191  O1192   1.300   .     A
N1191  O1193   1.302   .     A
N1194  O1196   1.301   .     A
N1194  O1195   1.300   .     A
O1197  C1201   1.280   .     A
O1197  Zn1209  1.983   .     S
O1198  C1202   1.280   .     A
O1198  Zn1210  1.983   .     S
O1199  Zn1210  1.993   .     S
O1199  C1201   1.283   .     A
O1200  C1202   1.283   .     A
O1200  Zn1209  1.993   .     S
C1201  C1220   1.410   .     S
C1202  C1219   1.410   .     S
O1203  C1207   1.275   .     A
O1203  Zn1209  1.987   .     S
O1204  C1208   1.275   .     A
O1204  Zn1210  1.987   .     S
O1205  Zn1210  2.006   .     S
O1205  C1207   1.290   .     A
O1206  C1208   1.290   .     A
O1206  Zn1209  2.006   .     S
C1207  C1213   1.410   .     S
C1208  C1214   1.410   .     S
Zn1209 N1211   2.016   .     S
Zn1210 N1212   2.016   .     S
N1211  C1225   1.379   .     A
N1211  C1222   1.359   .     A
N1212  C1226   1.379   .     A
N1212  C1221   1.360   .     A
C1214  C1109   1.364   1_655 S
C1214  N1126   1.442   1_655 S
C1215  O1233   1.385   .     S
C1215  C1220   1.409   .     A
C1216  C1219   1.409   .     A
C1216  O1235   1.385   .     S
C1216  C1374   1.381   .     S
C1217  C1219   1.405   .     A
C1217  N1237   1.439   .     S
C1217  C1371   1.381   .     S
C1218  C1220   1.405   .     A
C1218  N1240   1.439   .     S
C1221  H1223   1.082   .     S
C1222  H1224   1.082   .     S
C1222  C290    1.417   1_556 S
C1225  N1243   1.428   .     S
C1225  C285    1.417   1_556 S
C1226  N1246   1.428   .     S
N1227  O1229   1.301   .     A
N1227  O1228   1.301   .     A
N1227  C1109   1.442   1_655 S
N1230  O1232   1.301   .     A
N1230  O1231   1.301   .     A
O1233  H1234   0.988   .     S
O1235  H1236   0.988   .     S
N1237  O1238   1.301   .     A
N1237  O1239   1.300   .     A
N1240  O1241   1.301   .     A
N1240  O1242   1.301   .     A
N1243  O1244   1.300   .     A
N1243  O1245   1.302   .     A
N1246  O1248   1.301   .     A
N1246  O1247   1.300   .     A
O1249  C1253   1.280   .     A
O1249  Zn1261  1.983   .     S
O1250  C1254   1.280   .     A
O1250  Zn1262  1.983   .     S
O1251  Zn1262  1.993   .     S
O1251  C1253   1.283   .     A
O1252  C1254   1.283   .     A
O1252  Zn1261  1.993   .     S
C1253  C1272   1.410   .     S
C1254  C1271   1.410   .     S
O1255  C1259   1.275   .     A
O1255  Zn1261  1.987   .     S
O1256  C1260   1.275   .     A
O1256  Zn1262  1.987   .     S
O1257  Zn1262  2.006   .     S
O1257  C1259   1.290   .     A
O1258  C1260   1.290   .     A
O1258  Zn1261  2.006   .     S
C1259  C1265   1.410   .     S
C1260  C1266   1.410   .     S
Zn1261 N1263   2.016   .     S
Zn1262 N1264   2.016   .     S
N1263  C1277   1.379   .     A
N1263  C1274   1.359   .     A
N1264  C1278   1.379   .     A
N1264  C1273   1.360   .     A
C1265  C1370   1.364   1_455 S
C1265  N1383   1.442   1_455 S
C1266  C1317   1.364   .     S
C1266  N1334   1.442   .     S
C1267  O1285   1.385   .     S
C1267  C1272   1.409   .     A
C1268  C1271   1.409   .     A
C1268  O1287   1.385   .     S
C1268  C958    1.381   1_565 S
C1269  C1271   1.405   .     A
C1269  N1289   1.439   .     S
C1269  C955    1.381   1_565 S
C1270  C1272   1.405   .     A
C1270  N1292   1.439   .     S
C1273  H1275   1.082   .     S
C1274  H1276   1.082   .     S
C1274  C342    1.417   1_556 S
C1277  N1295   1.428   .     S
C1277  C337    1.417   1_556 S
C1278  N1298   1.428   .     S
N1279  O1281   1.301   .     A
N1279  O1280   1.301   .     A
N1279  C1317   1.442   .     S
N1282  O1284   1.301   .     A
N1282  O1283   1.301   .     A
N1282  C1370   1.442   1_455 S
O1285  H1286   0.988   .     S
O1287  H1288   0.988   .     S
N1289  O1290   1.301   .     A
N1289  O1291   1.300   .     A
N1292  O1293   1.301   .     A
N1292  O1294   1.301   .     A
N1295  O1296   1.300   .     A
N1295  O1297   1.302   .     A
N1298  O1300   1.301   .     A
N1298  O1299   1.300   .     A
O1301  C1305   1.280   .     A
O1301  Zn1313  1.983   .     S
O1302  C1306   1.280   .     A
O1302  Zn1314  1.983   .     S
O1303  Zn1314  1.993   .     S
O1303  C1305   1.283   .     A
O1304  C1306   1.283   .     A
O1304  Zn1313  1.993   .     S
C1305  C1324   1.410   .     S
C1306  C1323   1.410   .     S
O1307  C1311   1.275   .     A
O1307  Zn1313  1.987   .     S
O1308  C1312   1.275   .     A
O1308  Zn1314  1.987   .     S
O1309  Zn1314  2.006   .     S
O1309  C1311   1.290   .     A
O1310  C1312   1.290   .     A
O1310  Zn1313  2.006   .     S
C1311  C1317   1.410   .     S
C1312  C1318   1.410   .     S
Zn1313 N1315   2.016   .     S
Zn1314 N1316   2.016   .     S
N1315  C1329   1.379   .     A
N1315  C1326   1.359   .     A
N1316  C1330   1.379   .     A
N1316  C1325   1.360   .     A
C1318  C1369   1.364   .     S
C1318  N1386   1.442   .     S
C1319  O1337   1.385   .     S
C1319  C1324   1.409   .     A
C1320  C1323   1.409   .     A
C1320  O1339   1.385   .     S
C1320  C1010   1.381   1_565 S
C1321  C1323   1.405   .     A
C1321  N1341   1.439   .     S
C1321  C1007   1.381   1_565 S
C1322  C1324   1.405   .     A
C1322  N1344   1.439   .     S
C1325  H1327   1.082   .     S
C1326  H1328   1.082   .     S
C1326  C394    1.417   1_556 S
C1329  N1347   1.428   .     S
C1329  C389    1.417   1_556 S
C1330  N1350   1.428   .     S
N1331  O1333   1.301   .     A
N1331  O1332   1.301   .     A
N1331  C1369   1.442   .     S
N1334  O1336   1.301   .     A
N1334  O1335   1.301   .     A
O1337  H1338   0.988   .     S
O1339  H1340   0.988   .     S
N1341  O1342   1.301   .     A
N1341  O1343   1.300   .     A
N1344  O1345   1.301   .     A
N1344  O1346   1.301   .     A
N1347  O1348   1.300   .     A
N1347  O1349   1.302   .     A
N1350  O1352   1.301   .     A
N1350  O1351   1.300   .     A
O1353  C1357   1.280   .     A
O1353  Zn1365  1.983   .     S
O1354  C1358   1.280   .     A
O1354  Zn1366  1.983   .     S
O1355  Zn1366  1.993   .     S
O1355  C1357   1.283   .     A
O1356  C1358   1.283   .     A
O1356  Zn1365  1.993   .     S
C1357  C1376   1.410   .     S
C1358  C1375   1.410   .     S
O1359  C1363   1.275   .     A
O1359  Zn1365  1.987   .     S
O1360  C1364   1.275   .     A
O1360  Zn1366  1.987   .     S
O1361  Zn1366  2.006   .     S
O1361  C1363   1.290   .     A
O1362  C1364   1.290   .     A
O1362  Zn1365  2.006   .     S
C1363  C1369   1.410   .     S
C1364  C1370   1.410   .     S
Zn1365 N1367   2.016   .     S
Zn1366 N1368   2.016   .     S
N1367  C1381   1.379   .     A
N1367  C1378   1.359   .     A
N1368  C1382   1.379   .     A
N1368  C1377   1.360   .     A
C1370  C1265   1.364   1_655 S
C1370  N1282   1.442   1_655 S
C1371  O1389   1.385   .     S
C1371  C1376   1.409   .     A
C1372  C1375   1.409   .     A
C1372  O1391   1.385   .     S
C1372  C1062   1.381   1_565 S
C1373  C1375   1.405   .     A
C1373  N1393   1.439   .     S
C1373  C1059   1.381   1_565 S
C1374  C1376   1.405   .     A
C1374  N1396   1.439   .     S
C1377  H1379   1.082   .     S
C1378  H1380   1.082   .     S
C1378  C446    1.417   1_556 S
C1381  N1399   1.428   .     S
C1381  C441    1.417   1_556 S
C1382  N1402   1.428   .     S
N1383  O1385   1.301   .     A
N1383  O1384   1.301   .     A
N1383  C1265   1.442   1_655 S
N1386  O1388   1.301   .     A
N1386  O1387   1.301   .     A
O1389  H1390   0.988   .     S
O1391  H1392   0.988   .     S
N1393  O1394   1.301   .     A
N1393  O1395   1.300   .     A
N1396  O1397   1.301   .     A
N1396  O1398   1.301   .     A
N1399  O1400   1.300   .     A
N1399  O1401   1.302   .     A
N1402  O1404   1.301   .     A
N1402  O1403   1.300   .     A
