data_str_m3_o1_o5_pcu_sym.55
_audit_creation_date              2020-01-03
_audit_creation_method            'Materials Studio'
_symmetry_space_group_name_H-M    'P1'
_symmetry_Int_Tables_number       1
_symmetry_cell_setting            triclinic
loop_
_symmetry_equiv_pos_as_xyz
  x,y,z
_cell_length_a                    32.1786
_cell_length_b                    29.8713
_cell_length_c                    26.6879
_cell_angle_alpha                 90.0584
_cell_angle_beta                  91.5704
_cell_angle_gamma                 89.9132
loop_
_atom_site_label
_atom_site_type_symbol
_atom_site_fract_x
_atom_site_fract_y
_atom_site_fract_z
_atom_site_U_iso_or_equiv
_atom_site_adp_type
_atom_site_occupancy
C1     C     0.08674   0.16669   0.16691   0.00000  Uiso   1.00
C2     C     0.02115   0.20741   0.16419   0.00000  Uiso   1.00
C3     C     0.29081   0.16662   0.16613   0.00000  Uiso   1.00
C4     C     0.04253   0.16672   0.16720   0.00000  Uiso   1.00
C5     C     0.18724   0.02391   0.20382   0.00000  Uiso   1.00
C6     C     0.14610   0.30942   0.12951   0.00000  Uiso   1.00
C7     C     0.14610   0.02391   0.12951   0.00000  Uiso   1.00
C8     C     0.18724   0.30942   0.20382   0.00000  Uiso   1.00
C9     C     0.20976   0.04785   0.24446   0.00000  Uiso   1.00
C10    C     0.12357   0.28549   0.08888   0.00000  Uiso   1.00
C11    C     0.12296   0.04784   0.08936   0.00000  Uiso   1.00
C12    C     0.24660   0.16664   0.16643   0.00000  Uiso   1.00
C13    C     0.21037   0.28549   0.24397   0.00000  Uiso   1.00
C14    C     0.16656   0.16665   0.07300   0.00000  Uiso   1.00
C15    C     0.16677   0.16668   0.26033   0.00000  Uiso   1.00
C16    C     0.16663   0.16664   0.02183   0.00000  Uiso   1.00
C17    C     0.16670   0.16669   0.31150   0.00000  Uiso   1.00
C18    C     0.02142   0.12599   0.17005   0.00000  Uiso   1.00
C19    C     0.31192   0.20734   0.16329   0.00000  Uiso   1.00
C20    C     0.31219   0.12592   0.16915   0.00000  Uiso   1.00
H21    H     0.03758   0.09425   0.17305   0.00000  Uiso   1.00
H22    H     0.29575   0.23908   0.16028   0.00000  Uiso   1.00
H23    H     0.29626   0.09410   0.17088   0.00000  Uiso   1.00
H24    H     0.03708   0.23923   0.16245   0.00000  Uiso   1.00
H25    H     0.21169   0.06590   0.31729   0.00000  Uiso   1.00
H26    H     0.12164   0.26744   0.01604   0.00000  Uiso   1.00
H27    H     0.07035   0.07977   0.06750   0.00000  Uiso   1.00
H28    H     0.26298   0.25356   0.26584   0.00000  Uiso   1.00
N29    N     0.16667   0.28573   0.16667   0.00000  Uiso   1.00
N30    N     0.16667   0.04760   0.16667   0.00000  Uiso   1.00
O31    O     0.10559   0.20487   0.16666   0.00000  Uiso   1.00
O32    O     0.19324   0.04909   0.29230   0.00000  Uiso   1.00
O33    O     0.08983   0.26858   0.09651   0.00000  Uiso   1.00
O34    O     0.14010   0.28425   0.04103   0.00000  Uiso   1.00
O35    O     0.13775   0.05092   0.04781   0.00000  Uiso   1.00
O36    O     0.08326   0.06446   0.09804   0.00000  Uiso   1.00
O37    O     0.19558   0.28242   0.28552   0.00000  Uiso   1.00
O38    O     0.25008   0.26887   0.23529   0.00000  Uiso   1.00
O39    O     0.22774   0.12846   0.16667   0.00000  Uiso   1.00
O40    O     0.22774   0.20487   0.16667   0.00000  Uiso   1.00
O41    O     0.10559   0.12846   0.16666   0.00000  Uiso   1.00
O42    O     0.16667   0.20488   0.09511   0.00000  Uiso   1.00
O43    O     0.16666   0.12845   0.23822   0.00000  Uiso   1.00
O44    O     0.16666   0.20488   0.23822   0.00000  Uiso   1.00
O45    O     0.16667   0.12845   0.09511   0.00000  Uiso   1.00
O46    O     0.24350   0.06476   0.23682   0.00000  Uiso   1.00
Zn47   Zn    0.16667   0.21771   0.16667   0.00000  Uiso   1.00
Zn48   Zn    0.16667   0.11563   0.16667   0.00000  Uiso   1.00
C49    C     0.42007   0.16669   0.16691   0.00000  Uiso   1.00
C50    C     0.35448   0.20741   0.16419   0.00000  Uiso   1.00
C51    C     0.62414   0.16662   0.16613   0.00000  Uiso   1.00
C52    C     0.37586   0.16672   0.16720   0.00000  Uiso   1.00
C53    C     0.52057   0.02391   0.20382   0.00000  Uiso   1.00
C54    C     0.47943   0.30942   0.12951   0.00000  Uiso   1.00
C55    C     0.47943   0.02391   0.12951   0.00000  Uiso   1.00
C56    C     0.52057   0.30942   0.20382   0.00000  Uiso   1.00
C57    C     0.54310   0.04785   0.24446   0.00000  Uiso   1.00
C58    C     0.45691   0.28549   0.08888   0.00000  Uiso   1.00
C59    C     0.45629   0.04784   0.08936   0.00000  Uiso   1.00
C60    C     0.57993   0.16664   0.16643   0.00000  Uiso   1.00
C61    C     0.54371   0.28549   0.24397   0.00000  Uiso   1.00
C62    C     0.49990   0.16665   0.07300   0.00000  Uiso   1.00
C63    C     0.50010   0.16668   0.26033   0.00000  Uiso   1.00
C64    C     0.49996   0.16664   0.02183   0.00000  Uiso   1.00
C65    C     0.50004   0.16669   0.31150   0.00000  Uiso   1.00
C66    C     0.35475   0.12599   0.17005   0.00000  Uiso   1.00
C67    C     0.64525   0.20734   0.16329   0.00000  Uiso   1.00
C68    C     0.64552   0.12592   0.16915   0.00000  Uiso   1.00
H69    H     0.37091   0.09425   0.17305   0.00000  Uiso   1.00
H70    H     0.62909   0.23908   0.16028   0.00000  Uiso   1.00
H71    H     0.62959   0.09410   0.17088   0.00000  Uiso   1.00
H72    H     0.37041   0.23923   0.16245   0.00000  Uiso   1.00
H73    H     0.54502   0.06590   0.31729   0.00000  Uiso   1.00
H74    H     0.45498   0.26744   0.01604   0.00000  Uiso   1.00
H75    H     0.40368   0.07977   0.06750   0.00000  Uiso   1.00
H76    H     0.59631   0.25356   0.26584   0.00000  Uiso   1.00
N77    N     0.50000   0.28573   0.16667   0.00000  Uiso   1.00
N78    N     0.50000   0.04760   0.16667   0.00000  Uiso   1.00
O79    O     0.43892   0.20487   0.16666   0.00000  Uiso   1.00
O80    O     0.52657   0.04909   0.29230   0.00000  Uiso   1.00
O81    O     0.42316   0.26858   0.09651   0.00000  Uiso   1.00
O82    O     0.47343   0.28425   0.04103   0.00000  Uiso   1.00
O83    O     0.47108   0.05092   0.04781   0.00000  Uiso   1.00
O84    O     0.41659   0.06446   0.09804   0.00000  Uiso   1.00
O85    O     0.52892   0.28242   0.28552   0.00000  Uiso   1.00
O86    O     0.58341   0.26887   0.23529   0.00000  Uiso   1.00
O87    O     0.56108   0.12846   0.16667   0.00000  Uiso   1.00
O88    O     0.56108   0.20487   0.16667   0.00000  Uiso   1.00
O89    O     0.43892   0.12846   0.16666   0.00000  Uiso   1.00
O90    O     0.50000   0.20488   0.09511   0.00000  Uiso   1.00
O91    O     0.50000   0.12845   0.23822   0.00000  Uiso   1.00
O92    O     0.50000   0.20488   0.23822   0.00000  Uiso   1.00
O93    O     0.50000   0.12845   0.09511   0.00000  Uiso   1.00
O94    O     0.57684   0.06476   0.23682   0.00000  Uiso   1.00
Zn95   Zn    0.50000   0.21771   0.16667   0.00000  Uiso   1.00
Zn96   Zn    0.50000   0.11563   0.16667   0.00000  Uiso   1.00
C97    C     0.75341   0.16669   0.16691   0.00000  Uiso   1.00
C98    C     0.68781   0.20741   0.16419   0.00000  Uiso   1.00
C99    C     0.95747   0.16662   0.16613   0.00000  Uiso   1.00
C100   C     0.70919   0.16672   0.16720   0.00000  Uiso   1.00
C101   C     0.85390   0.02391   0.20382   0.00000  Uiso   1.00
C102   C     0.81277   0.30942   0.12951   0.00000  Uiso   1.00
C103   C     0.81276   0.02391   0.12951   0.00000  Uiso   1.00
C104   C     0.85390   0.30942   0.20382   0.00000  Uiso   1.00
C105   C     0.87643   0.04785   0.24446   0.00000  Uiso   1.00
C106   C     0.79024   0.28549   0.08888   0.00000  Uiso   1.00
C107   C     0.78963   0.04784   0.08936   0.00000  Uiso   1.00
C108   C     0.91326   0.16664   0.16643   0.00000  Uiso   1.00
C109   C     0.87704   0.28549   0.24397   0.00000  Uiso   1.00
C110   C     0.83323   0.16665   0.07300   0.00000  Uiso   1.00
C111   C     0.83344   0.16668   0.26033   0.00000  Uiso   1.00
C112   C     0.83330   0.16664   0.02183   0.00000  Uiso   1.00
C113   C     0.83337   0.16669   0.31150   0.00000  Uiso   1.00
C114   C     0.68808   0.12599   0.17005   0.00000  Uiso   1.00
C115   C     0.97858   0.20734   0.16329   0.00000  Uiso   1.00
C116   C     0.97885   0.12592   0.16915   0.00000  Uiso   1.00
H117   H     0.70425   0.09425   0.17305   0.00000  Uiso   1.00
H118   H     0.96242   0.23908   0.16028   0.00000  Uiso   1.00
H119   H     0.96292   0.09410   0.17088   0.00000  Uiso   1.00
H120   H     0.70375   0.23923   0.16245   0.00000  Uiso   1.00
H121   H     0.87836   0.06590   0.31729   0.00000  Uiso   1.00
H122   H     0.78831   0.26744   0.01604   0.00000  Uiso   1.00
H123   H     0.73702   0.07977   0.06750   0.00000  Uiso   1.00
H124   H     0.92965   0.25356   0.26584   0.00000  Uiso   1.00
N125   N     0.83333   0.28573   0.16667   0.00000  Uiso   1.00
N126   N     0.83333   0.04760   0.16667   0.00000  Uiso   1.00
O127   O     0.77226   0.20487   0.16666   0.00000  Uiso   1.00
O128   O     0.85990   0.04909   0.29230   0.00000  Uiso   1.00
O129   O     0.75650   0.26858   0.09651   0.00000  Uiso   1.00
O130   O     0.80676   0.28425   0.04103   0.00000  Uiso   1.00
O131   O     0.80442   0.05092   0.04781   0.00000  Uiso   1.00
O132   O     0.74992   0.06446   0.09804   0.00000  Uiso   1.00
O133   O     0.86225   0.28242   0.28552   0.00000  Uiso   1.00
O134   O     0.91674   0.26887   0.23529   0.00000  Uiso   1.00
O135   O     0.89441   0.12846   0.16667   0.00000  Uiso   1.00
O136   O     0.89441   0.20487   0.16667   0.00000  Uiso   1.00
O137   O     0.77226   0.12846   0.16666   0.00000  Uiso   1.00
O138   O     0.83334   0.20488   0.09511   0.00000  Uiso   1.00
O139   O     0.83333   0.12845   0.23822   0.00000  Uiso   1.00
O140   O     0.83333   0.20488   0.23822   0.00000  Uiso   1.00
O141   O     0.83334   0.12845   0.09511   0.00000  Uiso   1.00
O142   O     0.91017   0.06476   0.23682   0.00000  Uiso   1.00
Zn143  Zn    0.83333   0.21771   0.16667   0.00000  Uiso   1.00
Zn144  Zn    0.83333   0.11563   0.16667   0.00000  Uiso   1.00
C145   C     0.08674   0.50003   0.16691   0.00000  Uiso   1.00
C146   C     0.02115   0.54074   0.16419   0.00000  Uiso   1.00
C147   C     0.29081   0.49995   0.16613   0.00000  Uiso   1.00
C148   C     0.04253   0.50005   0.16720   0.00000  Uiso   1.00
C149   C     0.18724   0.35725   0.20382   0.00000  Uiso   1.00
C150   C     0.14610   0.64275   0.12951   0.00000  Uiso   1.00
C151   C     0.14610   0.35724   0.12951   0.00000  Uiso   1.00
C152   C     0.18724   0.64276   0.20382   0.00000  Uiso   1.00
C153   C     0.20976   0.38118   0.24446   0.00000  Uiso   1.00
C154   C     0.12357   0.61882   0.08888   0.00000  Uiso   1.00
C155   C     0.12296   0.38118   0.08936   0.00000  Uiso   1.00
C156   C     0.24660   0.49997   0.16643   0.00000  Uiso   1.00
C157   C     0.21037   0.61882   0.24397   0.00000  Uiso   1.00
C158   C     0.16656   0.49999   0.07300   0.00000  Uiso   1.00
C159   C     0.16677   0.50001   0.26033   0.00000  Uiso   1.00
C160   C     0.16663   0.49998   0.02183   0.00000  Uiso   1.00
C161   C     0.16670   0.50002   0.31150   0.00000  Uiso   1.00
C162   C     0.02142   0.45933   0.17005   0.00000  Uiso   1.00
C163   C     0.31192   0.54067   0.16329   0.00000  Uiso   1.00
C164   C     0.31219   0.45926   0.16915   0.00000  Uiso   1.00
H165   H     0.03758   0.42759   0.17305   0.00000  Uiso   1.00
H166   H     0.29575   0.57241   0.16028   0.00000  Uiso   1.00
H167   H     0.29626   0.42744   0.17088   0.00000  Uiso   1.00
H168   H     0.03708   0.57256   0.16245   0.00000  Uiso   1.00
H169   H     0.21169   0.39923   0.31729   0.00000  Uiso   1.00
H170   H     0.12164   0.60077   0.01604   0.00000  Uiso   1.00
H171   H     0.07035   0.41311   0.06750   0.00000  Uiso   1.00
H172   H     0.26298   0.58689   0.26584   0.00000  Uiso   1.00
N173   N     0.16667   0.61907   0.16667   0.00000  Uiso   1.00
N174   N     0.16667   0.38093   0.16667   0.00000  Uiso   1.00
O175   O     0.10559   0.53821   0.16666   0.00000  Uiso   1.00
O176   O     0.19324   0.38242   0.29230   0.00000  Uiso   1.00
O177   O     0.08983   0.60191   0.09651   0.00000  Uiso   1.00
O178   O     0.14010   0.61758   0.04103   0.00000  Uiso   1.00
O179   O     0.13775   0.38425   0.04781   0.00000  Uiso   1.00
O180   O     0.08326   0.39779   0.09804   0.00000  Uiso   1.00
O181   O     0.19558   0.61575   0.28552   0.00000  Uiso   1.00
O182   O     0.25008   0.60221   0.23529   0.00000  Uiso   1.00
O183   O     0.22774   0.46179   0.16667   0.00000  Uiso   1.00
O184   O     0.22774   0.53821   0.16667   0.00000  Uiso   1.00
O185   O     0.10559   0.46179   0.16666   0.00000  Uiso   1.00
O186   O     0.16667   0.53821   0.09511   0.00000  Uiso   1.00
O187   O     0.16666   0.46179   0.23822   0.00000  Uiso   1.00
O188   O     0.16666   0.53821   0.23822   0.00000  Uiso   1.00
O189   O     0.16667   0.46179   0.09511   0.00000  Uiso   1.00
O190   O     0.24350   0.39809   0.23682   0.00000  Uiso   1.00
Zn191  Zn    0.16667   0.55104   0.16667   0.00000  Uiso   1.00
Zn192  Zn    0.16667   0.44896   0.16667   0.00000  Uiso   1.00
C193   C     0.42007   0.50003   0.16691   0.00000  Uiso   1.00
C194   C     0.35448   0.54074   0.16419   0.00000  Uiso   1.00
C195   C     0.62414   0.49995   0.16613   0.00000  Uiso   1.00
C196   C     0.37586   0.50005   0.16720   0.00000  Uiso   1.00
C197   C     0.52057   0.35725   0.20382   0.00000  Uiso   1.00
C198   C     0.47943   0.64275   0.12951   0.00000  Uiso   1.00
C199   C     0.47943   0.35724   0.12951   0.00000  Uiso   1.00
C200   C     0.52057   0.64276   0.20382   0.00000  Uiso   1.00
C201   C     0.54310   0.38118   0.24446   0.00000  Uiso   1.00
C202   C     0.45691   0.61882   0.08888   0.00000  Uiso   1.00
C203   C     0.45629   0.38118   0.08936   0.00000  Uiso   1.00
C204   C     0.57993   0.49997   0.16643   0.00000  Uiso   1.00
C205   C     0.54371   0.61882   0.24397   0.00000  Uiso   1.00
C206   C     0.49990   0.49999   0.07300   0.00000  Uiso   1.00
C207   C     0.50010   0.50001   0.26033   0.00000  Uiso   1.00
C208   C     0.49996   0.49998   0.02183   0.00000  Uiso   1.00
C209   C     0.50004   0.50002   0.31150   0.00000  Uiso   1.00
C210   C     0.35475   0.45933   0.17005   0.00000  Uiso   1.00
C211   C     0.64525   0.54067   0.16329   0.00000  Uiso   1.00
C212   C     0.64552   0.45926   0.16915   0.00000  Uiso   1.00
H213   H     0.37091   0.42759   0.17305   0.00000  Uiso   1.00
H214   H     0.62909   0.57241   0.16028   0.00000  Uiso   1.00
H215   H     0.62959   0.42744   0.17088   0.00000  Uiso   1.00
H216   H     0.37041   0.57256   0.16245   0.00000  Uiso   1.00
H217   H     0.54502   0.39923   0.31729   0.00000  Uiso   1.00
H218   H     0.45498   0.60077   0.01604   0.00000  Uiso   1.00
H219   H     0.40368   0.41311   0.06750   0.00000  Uiso   1.00
H220   H     0.59631   0.58689   0.26584   0.00000  Uiso   1.00
N221   N     0.50000   0.61907   0.16667   0.00000  Uiso   1.00
N222   N     0.50000   0.38093   0.16667   0.00000  Uiso   1.00
O223   O     0.43892   0.53821   0.16666   0.00000  Uiso   1.00
O224   O     0.52657   0.38242   0.29230   0.00000  Uiso   1.00
O225   O     0.42316   0.60191   0.09651   0.00000  Uiso   1.00
O226   O     0.47343   0.61758   0.04103   0.00000  Uiso   1.00
O227   O     0.47108   0.38425   0.04781   0.00000  Uiso   1.00
O228   O     0.41659   0.39779   0.09804   0.00000  Uiso   1.00
O229   O     0.52892   0.61575   0.28552   0.00000  Uiso   1.00
O230   O     0.58341   0.60221   0.23529   0.00000  Uiso   1.00
O231   O     0.56108   0.46179   0.16667   0.00000  Uiso   1.00
O232   O     0.56108   0.53821   0.16667   0.00000  Uiso   1.00
O233   O     0.43892   0.46179   0.16666   0.00000  Uiso   1.00
O234   O     0.50000   0.53821   0.09511   0.00000  Uiso   1.00
O235   O     0.50000   0.46179   0.23822   0.00000  Uiso   1.00
O236   O     0.50000   0.53821   0.23822   0.00000  Uiso   1.00
O237   O     0.50000   0.46179   0.09511   0.00000  Uiso   1.00
O238   O     0.57684   0.39809   0.23682   0.00000  Uiso   1.00
Zn239  Zn    0.50000   0.55104   0.16667   0.00000  Uiso   1.00
Zn240  Zn    0.50000   0.44896   0.16667   0.00000  Uiso   1.00
C241   C     0.75341   0.50003   0.16691   0.00000  Uiso   1.00
C242   C     0.68781   0.54074   0.16419   0.00000  Uiso   1.00
C243   C     0.95747   0.49995   0.16613   0.00000  Uiso   1.00
C244   C     0.70919   0.50005   0.16720   0.00000  Uiso   1.00
C245   C     0.85390   0.35725   0.20382   0.00000  Uiso   1.00
C246   C     0.81277   0.64275   0.12951   0.00000  Uiso   1.00
C247   C     0.81276   0.35724   0.12951   0.00000  Uiso   1.00
C248   C     0.85390   0.64276   0.20382   0.00000  Uiso   1.00
C249   C     0.87643   0.38118   0.24446   0.00000  Uiso   1.00
C250   C     0.79024   0.61882   0.08888   0.00000  Uiso   1.00
C251   C     0.78963   0.38118   0.08936   0.00000  Uiso   1.00
C252   C     0.91326   0.49997   0.16643   0.00000  Uiso   1.00
C253   C     0.87704   0.61882   0.24397   0.00000  Uiso   1.00
C254   C     0.83323   0.49999   0.07300   0.00000  Uiso   1.00
C255   C     0.83344   0.50001   0.26033   0.00000  Uiso   1.00
C256   C     0.83330   0.49998   0.02183   0.00000  Uiso   1.00
C257   C     0.83337   0.50002   0.31150   0.00000  Uiso   1.00
C258   C     0.68808   0.45933   0.17005   0.00000  Uiso   1.00
C259   C     0.97858   0.54067   0.16329   0.00000  Uiso   1.00
C260   C     0.97885   0.45926   0.16915   0.00000  Uiso   1.00
H261   H     0.70425   0.42759   0.17305   0.00000  Uiso   1.00
H262   H     0.96242   0.57241   0.16028   0.00000  Uiso   1.00
H263   H     0.96292   0.42744   0.17088   0.00000  Uiso   1.00
H264   H     0.70375   0.57256   0.16245   0.00000  Uiso   1.00
H265   H     0.87836   0.39923   0.31729   0.00000  Uiso   1.00
H266   H     0.78831   0.60077   0.01604   0.00000  Uiso   1.00
H267   H     0.73702   0.41311   0.06750   0.00000  Uiso   1.00
H268   H     0.92965   0.58689   0.26584   0.00000  Uiso   1.00
N269   N     0.83333   0.61907   0.16667   0.00000  Uiso   1.00
N270   N     0.83333   0.38093   0.16667   0.00000  Uiso   1.00
O271   O     0.77226   0.53821   0.16666   0.00000  Uiso   1.00
O272   O     0.85990   0.38242   0.29230   0.00000  Uiso   1.00
O273   O     0.75650   0.60191   0.09651   0.00000  Uiso   1.00
O274   O     0.80676   0.61758   0.04103   0.00000  Uiso   1.00
O275   O     0.80442   0.38425   0.04781   0.00000  Uiso   1.00
O276   O     0.74992   0.39779   0.09804   0.00000  Uiso   1.00
O277   O     0.86225   0.61575   0.28552   0.00000  Uiso   1.00
O278   O     0.91674   0.60221   0.23529   0.00000  Uiso   1.00
O279   O     0.89441   0.46179   0.16667   0.00000  Uiso   1.00
O280   O     0.89441   0.53821   0.16667   0.00000  Uiso   1.00
O281   O     0.77226   0.46179   0.16666   0.00000  Uiso   1.00
O282   O     0.83334   0.53821   0.09511   0.00000  Uiso   1.00
O283   O     0.83333   0.46179   0.23822   0.00000  Uiso   1.00
O284   O     0.83333   0.53821   0.23822   0.00000  Uiso   1.00
O285   O     0.83334   0.46179   0.09511   0.00000  Uiso   1.00
O286   O     0.91017   0.39809   0.23682   0.00000  Uiso   1.00
Zn287  Zn    0.83333   0.55104   0.16667   0.00000  Uiso   1.00
Zn288  Zn    0.83333   0.44896   0.16667   0.00000  Uiso   1.00
C289   C     0.08674   0.83336   0.16691   0.00000  Uiso   1.00
C290   C     0.02115   0.87408   0.16419   0.00000  Uiso   1.00
C291   C     0.29081   0.83328   0.16613   0.00000  Uiso   1.00
C292   C     0.04253   0.83338   0.16720   0.00000  Uiso   1.00
C293   C     0.18724   0.69058   0.20382   0.00000  Uiso   1.00
C294   C     0.14610   0.97609   0.12951   0.00000  Uiso   1.00
C295   C     0.14610   0.69058   0.12951   0.00000  Uiso   1.00
C296   C     0.18724   0.97609   0.20382   0.00000  Uiso   1.00
C297   C     0.20976   0.71451   0.24446   0.00000  Uiso   1.00
C298   C     0.12357   0.95215   0.08888   0.00000  Uiso   1.00
C299   C     0.12296   0.71451   0.08936   0.00000  Uiso   1.00
C300   C     0.24660   0.83331   0.16643   0.00000  Uiso   1.00
C301   C     0.21037   0.95216   0.24397   0.00000  Uiso   1.00
C302   C     0.16656   0.83332   0.07300   0.00000  Uiso   1.00
C303   C     0.16677   0.83335   0.26033   0.00000  Uiso   1.00
C304   C     0.16663   0.83331   0.02183   0.00000  Uiso   1.00
C305   C     0.16670   0.83336   0.31150   0.00000  Uiso   1.00
C306   C     0.02142   0.79266   0.17005   0.00000  Uiso   1.00
C307   C     0.31192   0.87401   0.16329   0.00000  Uiso   1.00
C308   C     0.31219   0.79259   0.16915   0.00000  Uiso   1.00
H309   H     0.03758   0.76092   0.17305   0.00000  Uiso   1.00
H310   H     0.29575   0.90575   0.16028   0.00000  Uiso   1.00
H311   H     0.29626   0.76077   0.17088   0.00000  Uiso   1.00
H312   H     0.03708   0.90590   0.16245   0.00000  Uiso   1.00
H313   H     0.21169   0.73257   0.31729   0.00000  Uiso   1.00
H314   H     0.12164   0.93410   0.01604   0.00000  Uiso   1.00
H315   H     0.07035   0.74644   0.06750   0.00000  Uiso   1.00
H316   H     0.26298   0.92022   0.26584   0.00000  Uiso   1.00
N317   N     0.16667   0.95240   0.16667   0.00000  Uiso   1.00
N318   N     0.16667   0.71427   0.16667   0.00000  Uiso   1.00
O319   O     0.10559   0.87154   0.16666   0.00000  Uiso   1.00
O320   O     0.19324   0.71575   0.29230   0.00000  Uiso   1.00
O321   O     0.08983   0.93524   0.09651   0.00000  Uiso   1.00
O322   O     0.14010   0.95091   0.04103   0.00000  Uiso   1.00
O323   O     0.13775   0.71758   0.04781   0.00000  Uiso   1.00
O324   O     0.08326   0.73112   0.09804   0.00000  Uiso   1.00
O325   O     0.19558   0.94909   0.28552   0.00000  Uiso   1.00
O326   O     0.25008   0.93554   0.23529   0.00000  Uiso   1.00
O327   O     0.22774   0.79513   0.16667   0.00000  Uiso   1.00
O328   O     0.22774   0.87154   0.16667   0.00000  Uiso   1.00
O329   O     0.10559   0.79513   0.16666   0.00000  Uiso   1.00
O330   O     0.16667   0.87155   0.09511   0.00000  Uiso   1.00
O331   O     0.16666   0.79512   0.23822   0.00000  Uiso   1.00
O332   O     0.16666   0.87155   0.23822   0.00000  Uiso   1.00
O333   O     0.16667   0.79512   0.09511   0.00000  Uiso   1.00
O334   O     0.24350   0.73142   0.23682   0.00000  Uiso   1.00
Zn335  Zn    0.16667   0.88437   0.16667   0.00000  Uiso   1.00
Zn336  Zn    0.16667   0.78229   0.16667   0.00000  Uiso   1.00
C337   C     0.42007   0.83336   0.16691   0.00000  Uiso   1.00
C338   C     0.35448   0.87408   0.16419   0.00000  Uiso   1.00
C339   C     0.62414   0.83328   0.16613   0.00000  Uiso   1.00
C340   C     0.37586   0.83338   0.16720   0.00000  Uiso   1.00
C341   C     0.52057   0.69058   0.20382   0.00000  Uiso   1.00
C342   C     0.47943   0.97609   0.12951   0.00000  Uiso   1.00
C343   C     0.47943   0.69058   0.12951   0.00000  Uiso   1.00
C344   C     0.52057   0.97609   0.20382   0.00000  Uiso   1.00
C345   C     0.54310   0.71451   0.24446   0.00000  Uiso   1.00
C346   C     0.45691   0.95215   0.08888   0.00000  Uiso   1.00
C347   C     0.45629   0.71451   0.08936   0.00000  Uiso   1.00
C348   C     0.57993   0.83331   0.16643   0.00000  Uiso   1.00
C349   C     0.54371   0.95216   0.24397   0.00000  Uiso   1.00
C350   C     0.49990   0.83332   0.07300   0.00000  Uiso   1.00
C351   C     0.50010   0.83335   0.26033   0.00000  Uiso   1.00
C352   C     0.49996   0.83331   0.02183   0.00000  Uiso   1.00
C353   C     0.50004   0.83336   0.31150   0.00000  Uiso   1.00
C354   C     0.35475   0.79266   0.17005   0.00000  Uiso   1.00
C355   C     0.64525   0.87401   0.16329   0.00000  Uiso   1.00
C356   C     0.64552   0.79259   0.16915   0.00000  Uiso   1.00
H357   H     0.37091   0.76092   0.17305   0.00000  Uiso   1.00
H358   H     0.62909   0.90575   0.16028   0.00000  Uiso   1.00
H359   H     0.62959   0.76077   0.17088   0.00000  Uiso   1.00
H360   H     0.37041   0.90590   0.16245   0.00000  Uiso   1.00
H361   H     0.54502   0.73257   0.31729   0.00000  Uiso   1.00
H362   H     0.45498   0.93410   0.01604   0.00000  Uiso   1.00
H363   H     0.40368   0.74644   0.06750   0.00000  Uiso   1.00
H364   H     0.59631   0.92022   0.26584   0.00000  Uiso   1.00
N365   N     0.50000   0.95240   0.16667   0.00000  Uiso   1.00
N366   N     0.50000   0.71427   0.16667   0.00000  Uiso   1.00
O367   O     0.43892   0.87154   0.16666   0.00000  Uiso   1.00
O368   O     0.52657   0.71575   0.29230   0.00000  Uiso   1.00
O369   O     0.42316   0.93524   0.09651   0.00000  Uiso   1.00
O370   O     0.47343   0.95091   0.04103   0.00000  Uiso   1.00
O371   O     0.47108   0.71758   0.04781   0.00000  Uiso   1.00
O372   O     0.41659   0.73112   0.09804   0.00000  Uiso   1.00
O373   O     0.52892   0.94909   0.28552   0.00000  Uiso   1.00
O374   O     0.58341   0.93554   0.23529   0.00000  Uiso   1.00
O375   O     0.56108   0.79513   0.16667   0.00000  Uiso   1.00
O376   O     0.56108   0.87154   0.16667   0.00000  Uiso   1.00
O377   O     0.43892   0.79513   0.16666   0.00000  Uiso   1.00
O378   O     0.50000   0.87155   0.09511   0.00000  Uiso   1.00
O379   O     0.50000   0.79512   0.23822   0.00000  Uiso   1.00
O380   O     0.50000   0.87155   0.23822   0.00000  Uiso   1.00
O381   O     0.50000   0.79512   0.09511   0.00000  Uiso   1.00
O382   O     0.57684   0.73142   0.23682   0.00000  Uiso   1.00
Zn383  Zn    0.50000   0.88437   0.16667   0.00000  Uiso   1.00
Zn384  Zn    0.50000   0.78229   0.16667   0.00000  Uiso   1.00
C385   C     0.75341   0.83336   0.16691   0.00000  Uiso   1.00
C386   C     0.68781   0.87408   0.16419   0.00000  Uiso   1.00
C387   C     0.95747   0.83328   0.16613   0.00000  Uiso   1.00
C388   C     0.70919   0.83338   0.16720   0.00000  Uiso   1.00
C389   C     0.85390   0.69058   0.20382   0.00000  Uiso   1.00
C390   C     0.81277   0.97609   0.12951   0.00000  Uiso   1.00
C391   C     0.81276   0.69058   0.12951   0.00000  Uiso   1.00
C392   C     0.85390   0.97609   0.20382   0.00000  Uiso   1.00
C393   C     0.87643   0.71451   0.24446   0.00000  Uiso   1.00
C394   C     0.79024   0.95215   0.08888   0.00000  Uiso   1.00
C395   C     0.78963   0.71451   0.08936   0.00000  Uiso   1.00
C396   C     0.91326   0.83331   0.16643   0.00000  Uiso   1.00
C397   C     0.87704   0.95216   0.24397   0.00000  Uiso   1.00
C398   C     0.83323   0.83332   0.07300   0.00000  Uiso   1.00
C399   C     0.83344   0.83335   0.26033   0.00000  Uiso   1.00
C400   C     0.83330   0.83331   0.02183   0.00000  Uiso   1.00
C401   C     0.83337   0.83336   0.31150   0.00000  Uiso   1.00
C402   C     0.68808   0.79266   0.17005   0.00000  Uiso   1.00
C403   C     0.97858   0.87401   0.16329   0.00000  Uiso   1.00
C404   C     0.97885   0.79259   0.16915   0.00000  Uiso   1.00
H405   H     0.70425   0.76092   0.17305   0.00000  Uiso   1.00
H406   H     0.96242   0.90575   0.16028   0.00000  Uiso   1.00
H407   H     0.96292   0.76077   0.17088   0.00000  Uiso   1.00
H408   H     0.70375   0.90590   0.16245   0.00000  Uiso   1.00
H409   H     0.87836   0.73257   0.31729   0.00000  Uiso   1.00
H410   H     0.78831   0.93410   0.01604   0.00000  Uiso   1.00
H411   H     0.73702   0.74644   0.06750   0.00000  Uiso   1.00
H412   H     0.92965   0.92022   0.26584   0.00000  Uiso   1.00
N413   N     0.83333   0.95240   0.16667   0.00000  Uiso   1.00
N414   N     0.83333   0.71427   0.16667   0.00000  Uiso   1.00
O415   O     0.77226   0.87154   0.16666   0.00000  Uiso   1.00
O416   O     0.85990   0.71575   0.29230   0.00000  Uiso   1.00
O417   O     0.75650   0.93524   0.09651   0.00000  Uiso   1.00
O418   O     0.80676   0.95091   0.04103   0.00000  Uiso   1.00
O419   O     0.80442   0.71758   0.04781   0.00000  Uiso   1.00
O420   O     0.74992   0.73112   0.09804   0.00000  Uiso   1.00
O421   O     0.86225   0.94909   0.28552   0.00000  Uiso   1.00
O422   O     0.91674   0.93554   0.23529   0.00000  Uiso   1.00
O423   O     0.89441   0.79513   0.16667   0.00000  Uiso   1.00
O424   O     0.89441   0.87154   0.16667   0.00000  Uiso   1.00
O425   O     0.77226   0.79513   0.16666   0.00000  Uiso   1.00
O426   O     0.83334   0.87155   0.09511   0.00000  Uiso   1.00
O427   O     0.83333   0.79512   0.23822   0.00000  Uiso   1.00
O428   O     0.83333   0.87155   0.23822   0.00000  Uiso   1.00
O429   O     0.83334   0.79512   0.09511   0.00000  Uiso   1.00
O430   O     0.91017   0.73142   0.23682   0.00000  Uiso   1.00
Zn431  Zn    0.83333   0.88437   0.16667   0.00000  Uiso   1.00
Zn432  Zn    0.83333   0.78229   0.16667   0.00000  Uiso   1.00
C433   C     0.08674   0.16669   0.50024   0.00000  Uiso   1.00
C434   C     0.02115   0.20741   0.49752   0.00000  Uiso   1.00
C435   C     0.29081   0.16662   0.49946   0.00000  Uiso   1.00
C436   C     0.04253   0.16672   0.50054   0.00000  Uiso   1.00
C437   C     0.18724   0.02391   0.53715   0.00000  Uiso   1.00
C438   C     0.14610   0.30942   0.46285   0.00000  Uiso   1.00
C439   C     0.14610   0.02391   0.46284   0.00000  Uiso   1.00
C440   C     0.18724   0.30942   0.53715   0.00000  Uiso   1.00
C441   C     0.20976   0.04785   0.57779   0.00000  Uiso   1.00
C442   C     0.12357   0.28549   0.42221   0.00000  Uiso   1.00
C443   C     0.12296   0.04784   0.42270   0.00000  Uiso   1.00
C444   C     0.24660   0.16664   0.49976   0.00000  Uiso   1.00
C445   C     0.21037   0.28549   0.57731   0.00000  Uiso   1.00
C446   C     0.16656   0.16665   0.40634   0.00000  Uiso   1.00
C447   C     0.16677   0.16668   0.59366   0.00000  Uiso   1.00
C448   C     0.16663   0.16664   0.35516   0.00000  Uiso   1.00
C449   C     0.16670   0.16669   0.64484   0.00000  Uiso   1.00
C450   C     0.02142   0.12599   0.50338   0.00000  Uiso   1.00
C451   C     0.31192   0.20734   0.49662   0.00000  Uiso   1.00
C452   C     0.31219   0.12592   0.50248   0.00000  Uiso   1.00
H453   H     0.03758   0.09425   0.50639   0.00000  Uiso   1.00
H454   H     0.29575   0.23908   0.49361   0.00000  Uiso   1.00
H455   H     0.29626   0.09410   0.50421   0.00000  Uiso   1.00
H456   H     0.03708   0.23923   0.49579   0.00000  Uiso   1.00
H457   H     0.21169   0.06590   0.65062   0.00000  Uiso   1.00
H458   H     0.12164   0.26744   0.34937   0.00000  Uiso   1.00
H459   H     0.07035   0.07977   0.40083   0.00000  Uiso   1.00
H460   H     0.26298   0.25356   0.59917   0.00000  Uiso   1.00
N461   N     0.16667   0.28573   0.50000   0.00000  Uiso   1.00
N462   N     0.16667   0.04760   0.50000   0.00000  Uiso   1.00
O463   O     0.10559   0.20487   0.50000   0.00000  Uiso   1.00
O464   O     0.19324   0.04909   0.62564   0.00000  Uiso   1.00
O465   O     0.08983   0.26858   0.42984   0.00000  Uiso   1.00
O466   O     0.14010   0.28425   0.37436   0.00000  Uiso   1.00
O467   O     0.13775   0.05092   0.38115   0.00000  Uiso   1.00
O468   O     0.08326   0.06446   0.43137   0.00000  Uiso   1.00
O469   O     0.19558   0.28242   0.61885   0.00000  Uiso   1.00
O470   O     0.25008   0.26887   0.56863   0.00000  Uiso   1.00
O471   O     0.22774   0.12846   0.50000   0.00000  Uiso   1.00
O472   O     0.22774   0.20487   0.50000   0.00000  Uiso   1.00
O473   O     0.10559   0.12846   0.50000   0.00000  Uiso   1.00
O474   O     0.16667   0.20488   0.42845   0.00000  Uiso   1.00
O475   O     0.16666   0.12845   0.57155   0.00000  Uiso   1.00
O476   O     0.16666   0.20488   0.57155   0.00000  Uiso   1.00
O477   O     0.16667   0.12845   0.42845   0.00000  Uiso   1.00
O478   O     0.24350   0.06476   0.57016   0.00000  Uiso   1.00
Zn479  Zn    0.16667   0.21771   0.50000   0.00000  Uiso   1.00
Zn480  Zn    0.16667   0.11563   0.50000   0.00000  Uiso   1.00
C481   C     0.42007   0.16669   0.50024   0.00000  Uiso   1.00
C482   C     0.35448   0.20741   0.49752   0.00000  Uiso   1.00
C483   C     0.62414   0.16662   0.49946   0.00000  Uiso   1.00
C484   C     0.37586   0.16672   0.50054   0.00000  Uiso   1.00
C485   C     0.52057   0.02391   0.53715   0.00000  Uiso   1.00
C486   C     0.47943   0.30942   0.46285   0.00000  Uiso   1.00
C487   C     0.47943   0.02391   0.46284   0.00000  Uiso   1.00
C488   C     0.52057   0.30942   0.53715   0.00000  Uiso   1.00
C489   C     0.54310   0.04785   0.57779   0.00000  Uiso   1.00
C490   C     0.45691   0.28549   0.42221   0.00000  Uiso   1.00
C491   C     0.45629   0.04784   0.42270   0.00000  Uiso   1.00
C492   C     0.57993   0.16664   0.49976   0.00000  Uiso   1.00
C493   C     0.54371   0.28549   0.57731   0.00000  Uiso   1.00
C494   C     0.49990   0.16665   0.40634   0.00000  Uiso   1.00
C495   C     0.50010   0.16668   0.59366   0.00000  Uiso   1.00
C496   C     0.49996   0.16664   0.35516   0.00000  Uiso   1.00
C497   C     0.50004   0.16669   0.64484   0.00000  Uiso   1.00
C498   C     0.35475   0.12599   0.50338   0.00000  Uiso   1.00
C499   C     0.64525   0.20734   0.49662   0.00000  Uiso   1.00
C500   C     0.64552   0.12592   0.50248   0.00000  Uiso   1.00
H501   H     0.37091   0.09425   0.50639   0.00000  Uiso   1.00
H502   H     0.62909   0.23908   0.49361   0.00000  Uiso   1.00
H503   H     0.62959   0.09410   0.50421   0.00000  Uiso   1.00
H504   H     0.37041   0.23923   0.49579   0.00000  Uiso   1.00
H505   H     0.54502   0.06590   0.65062   0.00000  Uiso   1.00
H506   H     0.45498   0.26744   0.34937   0.00000  Uiso   1.00
H507   H     0.40368   0.07977   0.40083   0.00000  Uiso   1.00
H508   H     0.59631   0.25356   0.59917   0.00000  Uiso   1.00
N509   N     0.50000   0.28573   0.50000   0.00000  Uiso   1.00
N510   N     0.50000   0.04760   0.50000   0.00000  Uiso   1.00
O511   O     0.43892   0.20487   0.50000   0.00000  Uiso   1.00
O512   O     0.52657   0.04909   0.62564   0.00000  Uiso   1.00
O513   O     0.42316   0.26858   0.42984   0.00000  Uiso   1.00
O514   O     0.47343   0.28425   0.37436   0.00000  Uiso   1.00
O515   O     0.47108   0.05092   0.38115   0.00000  Uiso   1.00
O516   O     0.41659   0.06446   0.43137   0.00000  Uiso   1.00
O517   O     0.52892   0.28242   0.61885   0.00000  Uiso   1.00
O518   O     0.58341   0.26887   0.56863   0.00000  Uiso   1.00
O519   O     0.56108   0.12846   0.50000   0.00000  Uiso   1.00
O520   O     0.56108   0.20487   0.50000   0.00000  Uiso   1.00
O521   O     0.43892   0.12846   0.50000   0.00000  Uiso   1.00
O522   O     0.50000   0.20488   0.42845   0.00000  Uiso   1.00
O523   O     0.50000   0.12845   0.57155   0.00000  Uiso   1.00
O524   O     0.50000   0.20488   0.57155   0.00000  Uiso   1.00
O525   O     0.50000   0.12845   0.42845   0.00000  Uiso   1.00
O526   O     0.57684   0.06476   0.57016   0.00000  Uiso   1.00
Zn527  Zn    0.50000   0.21771   0.50000   0.00000  Uiso   1.00
Zn528  Zn    0.50000   0.11563   0.50000   0.00000  Uiso   1.00
C529   C     0.75341   0.16669   0.50024   0.00000  Uiso   1.00
C530   C     0.68781   0.20741   0.49752   0.00000  Uiso   1.00
C531   C     0.95747   0.16662   0.49946   0.00000  Uiso   1.00
C532   C     0.70919   0.16672   0.50054   0.00000  Uiso   1.00
C533   C     0.85390   0.02391   0.53715   0.00000  Uiso   1.00
C534   C     0.81277   0.30942   0.46285   0.00000  Uiso   1.00
C535   C     0.81276   0.02391   0.46284   0.00000  Uiso   1.00
C536   C     0.85390   0.30942   0.53715   0.00000  Uiso   1.00
C537   C     0.87643   0.04785   0.57779   0.00000  Uiso   1.00
C538   C     0.79024   0.28549   0.42221   0.00000  Uiso   1.00
C539   C     0.78963   0.04784   0.42270   0.00000  Uiso   1.00
C540   C     0.91326   0.16664   0.49976   0.00000  Uiso   1.00
C541   C     0.87704   0.28549   0.57731   0.00000  Uiso   1.00
C542   C     0.83323   0.16665   0.40634   0.00000  Uiso   1.00
C543   C     0.83344   0.16668   0.59366   0.00000  Uiso   1.00
C544   C     0.83330   0.16664   0.35516   0.00000  Uiso   1.00
C545   C     0.83337   0.16669   0.64484   0.00000  Uiso   1.00
C546   C     0.68808   0.12599   0.50338   0.00000  Uiso   1.00
C547   C     0.97858   0.20734   0.49662   0.00000  Uiso   1.00
C548   C     0.97885   0.12592   0.50248   0.00000  Uiso   1.00
H549   H     0.70425   0.09425   0.50639   0.00000  Uiso   1.00
H550   H     0.96242   0.23908   0.49361   0.00000  Uiso   1.00
H551   H     0.96292   0.09410   0.50421   0.00000  Uiso   1.00
H552   H     0.70375   0.23923   0.49579   0.00000  Uiso   1.00
H553   H     0.87836   0.06590   0.65062   0.00000  Uiso   1.00
H554   H     0.78831   0.26744   0.34937   0.00000  Uiso   1.00
H555   H     0.73702   0.07977   0.40083   0.00000  Uiso   1.00
H556   H     0.92965   0.25356   0.59917   0.00000  Uiso   1.00
N557   N     0.83333   0.28573   0.50000   0.00000  Uiso   1.00
N558   N     0.83333   0.04760   0.50000   0.00000  Uiso   1.00
O559   O     0.77226   0.20487   0.50000   0.00000  Uiso   1.00
O560   O     0.85990   0.04909   0.62564   0.00000  Uiso   1.00
O561   O     0.75650   0.26858   0.42984   0.00000  Uiso   1.00
O562   O     0.80676   0.28425   0.37436   0.00000  Uiso   1.00
O563   O     0.80442   0.05092   0.38115   0.00000  Uiso   1.00
O564   O     0.74992   0.06446   0.43137   0.00000  Uiso   1.00
O565   O     0.86225   0.28242   0.61885   0.00000  Uiso   1.00
O566   O     0.91674   0.26887   0.56863   0.00000  Uiso   1.00
O567   O     0.89441   0.12846   0.50000   0.00000  Uiso   1.00
O568   O     0.89441   0.20487   0.50000   0.00000  Uiso   1.00
O569   O     0.77226   0.12846   0.50000   0.00000  Uiso   1.00
O570   O     0.83334   0.20488   0.42845   0.00000  Uiso   1.00
O571   O     0.83333   0.12845   0.57155   0.00000  Uiso   1.00
O572   O     0.83333   0.20488   0.57155   0.00000  Uiso   1.00
O573   O     0.83334   0.12845   0.42845   0.00000  Uiso   1.00
O574   O     0.91017   0.06476   0.57016   0.00000  Uiso   1.00
Zn575  Zn    0.83333   0.21771   0.50000   0.00000  Uiso   1.00
Zn576  Zn    0.83333   0.11563   0.50000   0.00000  Uiso   1.00
C577   C     0.08674   0.50003   0.50024   0.00000  Uiso   1.00
C578   C     0.02115   0.54074   0.49752   0.00000  Uiso   1.00
C579   C     0.29081   0.49995   0.49946   0.00000  Uiso   1.00
C580   C     0.04253   0.50005   0.50054   0.00000  Uiso   1.00
C581   C     0.18724   0.35725   0.53715   0.00000  Uiso   1.00
C582   C     0.14610   0.64275   0.46285   0.00000  Uiso   1.00
C583   C     0.14610   0.35724   0.46284   0.00000  Uiso   1.00
C584   C     0.18724   0.64276   0.53715   0.00000  Uiso   1.00
C585   C     0.20976   0.38118   0.57779   0.00000  Uiso   1.00
C586   C     0.12357   0.61882   0.42221   0.00000  Uiso   1.00
C587   C     0.12296   0.38118   0.42270   0.00000  Uiso   1.00
C588   C     0.24660   0.49997   0.49976   0.00000  Uiso   1.00
C589   C     0.21037   0.61882   0.57731   0.00000  Uiso   1.00
C590   C     0.16656   0.49999   0.40634   0.00000  Uiso   1.00
C591   C     0.16677   0.50001   0.59366   0.00000  Uiso   1.00
C592   C     0.16663   0.49998   0.35516   0.00000  Uiso   1.00
C593   C     0.16670   0.50002   0.64484   0.00000  Uiso   1.00
C594   C     0.02142   0.45933   0.50338   0.00000  Uiso   1.00
C595   C     0.31192   0.54067   0.49662   0.00000  Uiso   1.00
C596   C     0.31219   0.45926   0.50248   0.00000  Uiso   1.00
H597   H     0.03758   0.42759   0.50639   0.00000  Uiso   1.00
H598   H     0.29575   0.57241   0.49361   0.00000  Uiso   1.00
H599   H     0.29626   0.42744   0.50421   0.00000  Uiso   1.00
H600   H     0.03708   0.57256   0.49579   0.00000  Uiso   1.00
H601   H     0.21169   0.39923   0.65062   0.00000  Uiso   1.00
H602   H     0.12164   0.60077   0.34937   0.00000  Uiso   1.00
H603   H     0.07035   0.41311   0.40083   0.00000  Uiso   1.00
H604   H     0.26298   0.58689   0.59917   0.00000  Uiso   1.00
N605   N     0.16667   0.61907   0.50000   0.00000  Uiso   1.00
N606   N     0.16667   0.38093   0.50000   0.00000  Uiso   1.00
O607   O     0.10559   0.53821   0.50000   0.00000  Uiso   1.00
O608   O     0.19324   0.38242   0.62564   0.00000  Uiso   1.00
O609   O     0.08983   0.60191   0.42984   0.00000  Uiso   1.00
O610   O     0.14010   0.61758   0.37436   0.00000  Uiso   1.00
O611   O     0.13775   0.38425   0.38115   0.00000  Uiso   1.00
O612   O     0.08326   0.39779   0.43137   0.00000  Uiso   1.00
O613   O     0.19558   0.61575   0.61885   0.00000  Uiso   1.00
O614   O     0.25008   0.60221   0.56863   0.00000  Uiso   1.00
O615   O     0.22774   0.46179   0.50000   0.00000  Uiso   1.00
O616   O     0.22774   0.53821   0.50000   0.00000  Uiso   1.00
O617   O     0.10559   0.46179   0.50000   0.00000  Uiso   1.00
O618   O     0.16667   0.53821   0.42845   0.00000  Uiso   1.00
O619   O     0.16666   0.46179   0.57155   0.00000  Uiso   1.00
O620   O     0.16666   0.53821   0.57155   0.00000  Uiso   1.00
O621   O     0.16667   0.46179   0.42845   0.00000  Uiso   1.00
O622   O     0.24350   0.39809   0.57016   0.00000  Uiso   1.00
Zn623  Zn    0.16667   0.55104   0.50000   0.00000  Uiso   1.00
Zn624  Zn    0.16667   0.44896   0.50000   0.00000  Uiso   1.00
C625   C     0.42007   0.50003   0.50024   0.00000  Uiso   1.00
C626   C     0.35448   0.54074   0.49752   0.00000  Uiso   1.00
C627   C     0.62414   0.49995   0.49946   0.00000  Uiso   1.00
C628   C     0.37586   0.50005   0.50054   0.00000  Uiso   1.00
C629   C     0.52057   0.35725   0.53715   0.00000  Uiso   1.00
C630   C     0.47943   0.64275   0.46285   0.00000  Uiso   1.00
C631   C     0.47943   0.35724   0.46284   0.00000  Uiso   1.00
C632   C     0.52057   0.64276   0.53715   0.00000  Uiso   1.00
C633   C     0.54310   0.38118   0.57779   0.00000  Uiso   1.00
C634   C     0.45691   0.61882   0.42221   0.00000  Uiso   1.00
C635   C     0.45629   0.38118   0.42270   0.00000  Uiso   1.00
C636   C     0.57993   0.49997   0.49976   0.00000  Uiso   1.00
C637   C     0.54371   0.61882   0.57731   0.00000  Uiso   1.00
C638   C     0.49990   0.49999   0.40634   0.00000  Uiso   1.00
C639   C     0.50010   0.50001   0.59366   0.00000  Uiso   1.00
C640   C     0.49996   0.49998   0.35516   0.00000  Uiso   1.00
C641   C     0.50004   0.50002   0.64484   0.00000  Uiso   1.00
C642   C     0.35475   0.45933   0.50338   0.00000  Uiso   1.00
C643   C     0.64525   0.54067   0.49662   0.00000  Uiso   1.00
C644   C     0.64552   0.45926   0.50248   0.00000  Uiso   1.00
H645   H     0.37091   0.42759   0.50639   0.00000  Uiso   1.00
H646   H     0.62909   0.57241   0.49361   0.00000  Uiso   1.00
H647   H     0.62959   0.42744   0.50421   0.00000  Uiso   1.00
H648   H     0.37041   0.57256   0.49579   0.00000  Uiso   1.00
H649   H     0.54502   0.39923   0.65062   0.00000  Uiso   1.00
H650   H     0.45498   0.60077   0.34937   0.00000  Uiso   1.00
H651   H     0.40368   0.41311   0.40083   0.00000  Uiso   1.00
H652   H     0.59631   0.58689   0.59917   0.00000  Uiso   1.00
N653   N     0.50000   0.61907   0.50000   0.00000  Uiso   1.00
N654   N     0.50000   0.38093   0.50000   0.00000  Uiso   1.00
O655   O     0.43892   0.53821   0.50000   0.00000  Uiso   1.00
O656   O     0.52657   0.38242   0.62564   0.00000  Uiso   1.00
O657   O     0.42316   0.60191   0.42984   0.00000  Uiso   1.00
O658   O     0.47343   0.61758   0.37436   0.00000  Uiso   1.00
O659   O     0.47108   0.38425   0.38115   0.00000  Uiso   1.00
O660   O     0.41659   0.39779   0.43137   0.00000  Uiso   1.00
O661   O     0.52892   0.61575   0.61885   0.00000  Uiso   1.00
O662   O     0.58341   0.60221   0.56863   0.00000  Uiso   1.00
O663   O     0.56108   0.46179   0.50000   0.00000  Uiso   1.00
O664   O     0.56108   0.53821   0.50000   0.00000  Uiso   1.00
O665   O     0.43892   0.46179   0.50000   0.00000  Uiso   1.00
O666   O     0.50000   0.53821   0.42845   0.00000  Uiso   1.00
O667   O     0.50000   0.46179   0.57155   0.00000  Uiso   1.00
O668   O     0.50000   0.53821   0.57155   0.00000  Uiso   1.00
O669   O     0.50000   0.46179   0.42845   0.00000  Uiso   1.00
O670   O     0.57684   0.39809   0.57016   0.00000  Uiso   1.00
Zn671  Zn    0.50000   0.55104   0.50000   0.00000  Uiso   1.00
Zn672  Zn    0.50000   0.44896   0.50000   0.00000  Uiso   1.00
C673   C     0.75341   0.50003   0.50024   0.00000  Uiso   1.00
C674   C     0.68781   0.54074   0.49752   0.00000  Uiso   1.00
C675   C     0.95747   0.49995   0.49946   0.00000  Uiso   1.00
C676   C     0.70919   0.50005   0.50054   0.00000  Uiso   1.00
C677   C     0.85390   0.35725   0.53715   0.00000  Uiso   1.00
C678   C     0.81277   0.64275   0.46285   0.00000  Uiso   1.00
C679   C     0.81276   0.35724   0.46284   0.00000  Uiso   1.00
C680   C     0.85390   0.64276   0.53715   0.00000  Uiso   1.00
C681   C     0.87643   0.38118   0.57779   0.00000  Uiso   1.00
C682   C     0.79024   0.61882   0.42221   0.00000  Uiso   1.00
C683   C     0.78963   0.38118   0.42270   0.00000  Uiso   1.00
C684   C     0.91326   0.49997   0.49976   0.00000  Uiso   1.00
C685   C     0.87704   0.61882   0.57731   0.00000  Uiso   1.00
C686   C     0.83323   0.49999   0.40634   0.00000  Uiso   1.00
C687   C     0.83344   0.50001   0.59366   0.00000  Uiso   1.00
C688   C     0.83330   0.49998   0.35516   0.00000  Uiso   1.00
C689   C     0.83337   0.50002   0.64484   0.00000  Uiso   1.00
C690   C     0.68808   0.45933   0.50338   0.00000  Uiso   1.00
C691   C     0.97858   0.54067   0.49662   0.00000  Uiso   1.00
C692   C     0.97885   0.45926   0.50248   0.00000  Uiso   1.00
H693   H     0.70425   0.42759   0.50639   0.00000  Uiso   1.00
H694   H     0.96242   0.57241   0.49361   0.00000  Uiso   1.00
H695   H     0.96292   0.42744   0.50421   0.00000  Uiso   1.00
H696   H     0.70375   0.57256   0.49579   0.00000  Uiso   1.00
H697   H     0.87836   0.39923   0.65062   0.00000  Uiso   1.00
H698   H     0.78831   0.60077   0.34937   0.00000  Uiso   1.00
H699   H     0.73702   0.41311   0.40083   0.00000  Uiso   1.00
H700   H     0.92965   0.58689   0.59917   0.00000  Uiso   1.00
N701   N     0.83333   0.61907   0.50000   0.00000  Uiso   1.00
N702   N     0.83333   0.38093   0.50000   0.00000  Uiso   1.00
O703   O     0.77226   0.53821   0.50000   0.00000  Uiso   1.00
O704   O     0.85990   0.38242   0.62564   0.00000  Uiso   1.00
O705   O     0.75650   0.60191   0.42984   0.00000  Uiso   1.00
O706   O     0.80676   0.61758   0.37436   0.00000  Uiso   1.00
O707   O     0.80442   0.38425   0.38115   0.00000  Uiso   1.00
O708   O     0.74992   0.39779   0.43137   0.00000  Uiso   1.00
O709   O     0.86225   0.61575   0.61885   0.00000  Uiso   1.00
O710   O     0.91674   0.60221   0.56863   0.00000  Uiso   1.00
O711   O     0.89441   0.46179   0.50000   0.00000  Uiso   1.00
O712   O     0.89441   0.53821   0.50000   0.00000  Uiso   1.00
O713   O     0.77226   0.46179   0.50000   0.00000  Uiso   1.00
O714   O     0.83334   0.53821   0.42845   0.00000  Uiso   1.00
O715   O     0.83333   0.46179   0.57155   0.00000  Uiso   1.00
O716   O     0.83333   0.53821   0.57155   0.00000  Uiso   1.00
O717   O     0.83334   0.46179   0.42845   0.00000  Uiso   1.00
O718   O     0.91017   0.39809   0.57016   0.00000  Uiso   1.00
Zn719  Zn    0.83333   0.55104   0.50000   0.00000  Uiso   1.00
Zn720  Zn    0.83333   0.44896   0.50000   0.00000  Uiso   1.00
C721   C     0.08674   0.83336   0.50024   0.00000  Uiso   1.00
C722   C     0.02115   0.87408   0.49752   0.00000  Uiso   1.00
C723   C     0.29081   0.83328   0.49946   0.00000  Uiso   1.00
C724   C     0.04253   0.83338   0.50054   0.00000  Uiso   1.00
C725   C     0.18724   0.69058   0.53715   0.00000  Uiso   1.00
C726   C     0.14610   0.97609   0.46285   0.00000  Uiso   1.00
C727   C     0.14610   0.69058   0.46284   0.00000  Uiso   1.00
C728   C     0.18724   0.97609   0.53715   0.00000  Uiso   1.00
C729   C     0.20976   0.71451   0.57779   0.00000  Uiso   1.00
C730   C     0.12357   0.95215   0.42221   0.00000  Uiso   1.00
C731   C     0.12296   0.71451   0.42270   0.00000  Uiso   1.00
C732   C     0.24660   0.83331   0.49976   0.00000  Uiso   1.00
C733   C     0.21037   0.95216   0.57731   0.00000  Uiso   1.00
C734   C     0.16656   0.83332   0.40634   0.00000  Uiso   1.00
C735   C     0.16677   0.83335   0.59366   0.00000  Uiso   1.00
C736   C     0.16663   0.83331   0.35516   0.00000  Uiso   1.00
C737   C     0.16670   0.83336   0.64484   0.00000  Uiso   1.00
C738   C     0.02142   0.79266   0.50338   0.00000  Uiso   1.00
C739   C     0.31192   0.87401   0.49662   0.00000  Uiso   1.00
C740   C     0.31219   0.79259   0.50248   0.00000  Uiso   1.00
H741   H     0.03758   0.76092   0.50639   0.00000  Uiso   1.00
H742   H     0.29575   0.90575   0.49361   0.00000  Uiso   1.00
H743   H     0.29626   0.76077   0.50421   0.00000  Uiso   1.00
H744   H     0.03708   0.90590   0.49579   0.00000  Uiso   1.00
H745   H     0.21169   0.73257   0.65062   0.00000  Uiso   1.00
H746   H     0.12164   0.93410   0.34937   0.00000  Uiso   1.00
H747   H     0.07035   0.74644   0.40083   0.00000  Uiso   1.00
H748   H     0.26298   0.92022   0.59917   0.00000  Uiso   1.00
N749   N     0.16667   0.95240   0.50000   0.00000  Uiso   1.00
N750   N     0.16667   0.71427   0.50000   0.00000  Uiso   1.00
O751   O     0.10559   0.87154   0.50000   0.00000  Uiso   1.00
O752   O     0.19324   0.71575   0.62564   0.00000  Uiso   1.00
O753   O     0.08983   0.93524   0.42984   0.00000  Uiso   1.00
O754   O     0.14010   0.95091   0.37436   0.00000  Uiso   1.00
O755   O     0.13775   0.71758   0.38115   0.00000  Uiso   1.00
O756   O     0.08326   0.73112   0.43137   0.00000  Uiso   1.00
O757   O     0.19558   0.94909   0.61885   0.00000  Uiso   1.00
O758   O     0.25008   0.93554   0.56863   0.00000  Uiso   1.00
O759   O     0.22774   0.79513   0.50000   0.00000  Uiso   1.00
O760   O     0.22774   0.87154   0.50000   0.00000  Uiso   1.00
O761   O     0.10559   0.79513   0.50000   0.00000  Uiso   1.00
O762   O     0.16667   0.87155   0.42845   0.00000  Uiso   1.00
O763   O     0.16666   0.79512   0.57155   0.00000  Uiso   1.00
O764   O     0.16666   0.87155   0.57155   0.00000  Uiso   1.00
O765   O     0.16667   0.79512   0.42845   0.00000  Uiso   1.00
O766   O     0.24350   0.73142   0.57016   0.00000  Uiso   1.00
Zn767  Zn    0.16667   0.88437   0.50000   0.00000  Uiso   1.00
Zn768  Zn    0.16667   0.78229   0.50000   0.00000  Uiso   1.00
C769   C     0.42007   0.83336   0.50024   0.00000  Uiso   1.00
C770   C     0.35448   0.87408   0.49752   0.00000  Uiso   1.00
C771   C     0.62414   0.83328   0.49946   0.00000  Uiso   1.00
C772   C     0.37586   0.83338   0.50054   0.00000  Uiso   1.00
C773   C     0.52057   0.69058   0.53715   0.00000  Uiso   1.00
C774   C     0.47943   0.97609   0.46285   0.00000  Uiso   1.00
C775   C     0.47943   0.69058   0.46284   0.00000  Uiso   1.00
C776   C     0.52057   0.97609   0.53715   0.00000  Uiso   1.00
C777   C     0.54310   0.71451   0.57779   0.00000  Uiso   1.00
C778   C     0.45691   0.95215   0.42221   0.00000  Uiso   1.00
C779   C     0.45629   0.71451   0.42270   0.00000  Uiso   1.00
C780   C     0.57993   0.83331   0.49976   0.00000  Uiso   1.00
C781   C     0.54371   0.95216   0.57731   0.00000  Uiso   1.00
C782   C     0.49990   0.83332   0.40634   0.00000  Uiso   1.00
C783   C     0.50010   0.83335   0.59366   0.00000  Uiso   1.00
C784   C     0.49996   0.83331   0.35516   0.00000  Uiso   1.00
C785   C     0.50004   0.83336   0.64484   0.00000  Uiso   1.00
C786   C     0.35475   0.79266   0.50338   0.00000  Uiso   1.00
C787   C     0.64525   0.87401   0.49662   0.00000  Uiso   1.00
C788   C     0.64552   0.79259   0.50248   0.00000  Uiso   1.00
H789   H     0.37091   0.76092   0.50639   0.00000  Uiso   1.00
H790   H     0.62909   0.90575   0.49361   0.00000  Uiso   1.00
H791   H     0.62959   0.76077   0.50421   0.00000  Uiso   1.00
H792   H     0.37041   0.90590   0.49579   0.00000  Uiso   1.00
H793   H     0.54502   0.73257   0.65062   0.00000  Uiso   1.00
H794   H     0.45498   0.93410   0.34937   0.00000  Uiso   1.00
H795   H     0.40368   0.74644   0.40083   0.00000  Uiso   1.00
H796   H     0.59631   0.92022   0.59917   0.00000  Uiso   1.00
N797   N     0.50000   0.95240   0.50000   0.00000  Uiso   1.00
N798   N     0.50000   0.71427   0.50000   0.00000  Uiso   1.00
O799   O     0.43892   0.87154   0.50000   0.00000  Uiso   1.00
O800   O     0.52657   0.71575   0.62564   0.00000  Uiso   1.00
O801   O     0.42316   0.93524   0.42984   0.00000  Uiso   1.00
O802   O     0.47343   0.95091   0.37436   0.00000  Uiso   1.00
O803   O     0.47108   0.71758   0.38115   0.00000  Uiso   1.00
O804   O     0.41659   0.73112   0.43137   0.00000  Uiso   1.00
O805   O     0.52892   0.94909   0.61885   0.00000  Uiso   1.00
O806   O     0.58341   0.93554   0.56863   0.00000  Uiso   1.00
O807   O     0.56108   0.79513   0.50000   0.00000  Uiso   1.00
O808   O     0.56108   0.87154   0.50000   0.00000  Uiso   1.00
O809   O     0.43892   0.79513   0.50000   0.00000  Uiso   1.00
O810   O     0.50000   0.87155   0.42845   0.00000  Uiso   1.00
O811   O     0.50000   0.79512   0.57155   0.00000  Uiso   1.00
O812   O     0.50000   0.87155   0.57155   0.00000  Uiso   1.00
O813   O     0.50000   0.79512   0.42845   0.00000  Uiso   1.00
O814   O     0.57684   0.73142   0.57016   0.00000  Uiso   1.00
Zn815  Zn    0.50000   0.88437   0.50000   0.00000  Uiso   1.00
Zn816  Zn    0.50000   0.78229   0.50000   0.00000  Uiso   1.00
C817   C     0.75341   0.83336   0.50024   0.00000  Uiso   1.00
C818   C     0.68781   0.87408   0.49752   0.00000  Uiso   1.00
C819   C     0.95747   0.83328   0.49946   0.00000  Uiso   1.00
C820   C     0.70919   0.83338   0.50054   0.00000  Uiso   1.00
C821   C     0.85390   0.69058   0.53715   0.00000  Uiso   1.00
C822   C     0.81277   0.97609   0.46285   0.00000  Uiso   1.00
C823   C     0.81276   0.69058   0.46284   0.00000  Uiso   1.00
C824   C     0.85390   0.97609   0.53715   0.00000  Uiso   1.00
C825   C     0.87643   0.71451   0.57779   0.00000  Uiso   1.00
C826   C     0.79024   0.95215   0.42221   0.00000  Uiso   1.00
C827   C     0.78963   0.71451   0.42270   0.00000  Uiso   1.00
C828   C     0.91326   0.83331   0.49976   0.00000  Uiso   1.00
C829   C     0.87704   0.95216   0.57731   0.00000  Uiso   1.00
C830   C     0.83323   0.83332   0.40634   0.00000  Uiso   1.00
C831   C     0.83344   0.83335   0.59366   0.00000  Uiso   1.00
C832   C     0.83330   0.83331   0.35516   0.00000  Uiso   1.00
C833   C     0.83337   0.83336   0.64484   0.00000  Uiso   1.00
C834   C     0.68808   0.79266   0.50338   0.00000  Uiso   1.00
C835   C     0.97858   0.87401   0.49662   0.00000  Uiso   1.00
C836   C     0.97885   0.79259   0.50248   0.00000  Uiso   1.00
H837   H     0.70425   0.76092   0.50639   0.00000  Uiso   1.00
H838   H     0.96242   0.90575   0.49361   0.00000  Uiso   1.00
H839   H     0.96292   0.76077   0.50421   0.00000  Uiso   1.00
H840   H     0.70375   0.90590   0.49579   0.00000  Uiso   1.00
H841   H     0.87836   0.73257   0.65062   0.00000  Uiso   1.00
H842   H     0.78831   0.93410   0.34937   0.00000  Uiso   1.00
H843   H     0.73702   0.74644   0.40083   0.00000  Uiso   1.00
H844   H     0.92965   0.92022   0.59917   0.00000  Uiso   1.00
N845   N     0.83333   0.95240   0.50000   0.00000  Uiso   1.00
N846   N     0.83333   0.71427   0.50000   0.00000  Uiso   1.00
O847   O     0.77226   0.87154   0.50000   0.00000  Uiso   1.00
O848   O     0.85990   0.71575   0.62564   0.00000  Uiso   1.00
O849   O     0.75650   0.93524   0.42984   0.00000  Uiso   1.00
O850   O     0.80676   0.95091   0.37436   0.00000  Uiso   1.00
O851   O     0.80442   0.71758   0.38115   0.00000  Uiso   1.00
O852   O     0.74992   0.73112   0.43137   0.00000  Uiso   1.00
O853   O     0.86225   0.94909   0.61885   0.00000  Uiso   1.00
O854   O     0.91674   0.93554   0.56863   0.00000  Uiso   1.00
O855   O     0.89441   0.79513   0.50000   0.00000  Uiso   1.00
O856   O     0.89441   0.87154   0.50000   0.00000  Uiso   1.00
O857   O     0.77226   0.79513   0.50000   0.00000  Uiso   1.00
O858   O     0.83334   0.87155   0.42845   0.00000  Uiso   1.00
O859   O     0.83333   0.79512   0.57155   0.00000  Uiso   1.00
O860   O     0.83333   0.87155   0.57155   0.00000  Uiso   1.00
O861   O     0.83334   0.79512   0.42845   0.00000  Uiso   1.00
O862   O     0.91017   0.73142   0.57016   0.00000  Uiso   1.00
Zn863  Zn    0.83333   0.88437   0.50000   0.00000  Uiso   1.00
Zn864  Zn    0.83333   0.78229   0.50000   0.00000  Uiso   1.00
C865   C     0.08674   0.16669   0.83357   0.00000  Uiso   1.00
C866   C     0.02115   0.20741   0.83085   0.00000  Uiso   1.00
C867   C     0.29081   0.16662   0.83280   0.00000  Uiso   1.00
C868   C     0.04253   0.16672   0.83387   0.00000  Uiso   1.00
C869   C     0.18724   0.02391   0.87049   0.00000  Uiso   1.00
C870   C     0.14610   0.30942   0.79618   0.00000  Uiso   1.00
C871   C     0.14610   0.02391   0.79618   0.00000  Uiso   1.00
C872   C     0.18724   0.30942   0.87049   0.00000  Uiso   1.00
C873   C     0.20976   0.04785   0.91112   0.00000  Uiso   1.00
C874   C     0.12357   0.28549   0.75554   0.00000  Uiso   1.00
C875   C     0.12296   0.04784   0.75603   0.00000  Uiso   1.00
C876   C     0.24660   0.16664   0.83309   0.00000  Uiso   1.00
C877   C     0.21037   0.28549   0.91064   0.00000  Uiso   1.00
C878   C     0.16656   0.16665   0.73967   0.00000  Uiso   1.00
C879   C     0.16677   0.16668   0.92700   0.00000  Uiso   1.00
C880   C     0.16663   0.16664   0.68850   0.00000  Uiso   1.00
C881   C     0.16670   0.16669   0.97817   0.00000  Uiso   1.00
C882   C     0.02142   0.12599   0.83671   0.00000  Uiso   1.00
C883   C     0.31192   0.20734   0.82995   0.00000  Uiso   1.00
C884   C     0.31219   0.12592   0.83581   0.00000  Uiso   1.00
H885   H     0.03758   0.09425   0.83972   0.00000  Uiso   1.00
H886   H     0.29575   0.23908   0.82695   0.00000  Uiso   1.00
H887   H     0.29626   0.09410   0.83755   0.00000  Uiso   1.00
H888   H     0.03708   0.23923   0.82912   0.00000  Uiso   1.00
H889   H     0.21169   0.06590   0.98396   0.00000  Uiso   1.00
H890   H     0.12164   0.26744   0.68271   0.00000  Uiso   1.00
H891   H     0.07035   0.07977   0.73416   0.00000  Uiso   1.00
H892   H     0.26298   0.25356   0.93250   0.00000  Uiso   1.00
N893   N     0.16667   0.28573   0.83333   0.00000  Uiso   1.00
N894   N     0.16667   0.04760   0.83333   0.00000  Uiso   1.00
O895   O     0.10559   0.20487   0.83333   0.00000  Uiso   1.00
O896   O     0.19324   0.04909   0.95897   0.00000  Uiso   1.00
O897   O     0.08983   0.26858   0.76318   0.00000  Uiso   1.00
O898   O     0.14010   0.28425   0.70770   0.00000  Uiso   1.00
O899   O     0.13775   0.05092   0.71448   0.00000  Uiso   1.00
O900   O     0.08326   0.06446   0.76471   0.00000  Uiso   1.00
O901   O     0.19558   0.28242   0.95219   0.00000  Uiso   1.00
O902   O     0.25008   0.26887   0.90196   0.00000  Uiso   1.00
O903   O     0.22774   0.12846   0.83334   0.00000  Uiso   1.00
O904   O     0.22774   0.20487   0.83334   0.00000  Uiso   1.00
O905   O     0.10559   0.12846   0.83333   0.00000  Uiso   1.00
O906   O     0.16667   0.20488   0.76178   0.00000  Uiso   1.00
O907   O     0.16666   0.12845   0.90489   0.00000  Uiso   1.00
O908   O     0.16666   0.20488   0.90489   0.00000  Uiso   1.00
O909   O     0.16667   0.12845   0.76178   0.00000  Uiso   1.00
O910   O     0.24350   0.06476   0.90349   0.00000  Uiso   1.00
Zn911  Zn    0.16667   0.21771   0.83333   0.00000  Uiso   1.00
Zn912  Zn    0.16667   0.11563   0.83333   0.00000  Uiso   1.00
C913   C     0.42007   0.16669   0.83357   0.00000  Uiso   1.00
C914   C     0.35448   0.20741   0.83085   0.00000  Uiso   1.00
C915   C     0.62414   0.16662   0.83280   0.00000  Uiso   1.00
C916   C     0.37586   0.16672   0.83387   0.00000  Uiso   1.00
C917   C     0.52057   0.02391   0.87049   0.00000  Uiso   1.00
C918   C     0.47943   0.30942   0.79618   0.00000  Uiso   1.00
C919   C     0.47943   0.02391   0.79618   0.00000  Uiso   1.00
C920   C     0.52057   0.30942   0.87049   0.00000  Uiso   1.00
C921   C     0.54310   0.04785   0.91112   0.00000  Uiso   1.00
C922   C     0.45691   0.28549   0.75554   0.00000  Uiso   1.00
C923   C     0.45629   0.04784   0.75603   0.00000  Uiso   1.00
C924   C     0.57993   0.16664   0.83309   0.00000  Uiso   1.00
C925   C     0.54371   0.28549   0.91064   0.00000  Uiso   1.00
C926   C     0.49990   0.16665   0.73967   0.00000  Uiso   1.00
C927   C     0.50010   0.16668   0.92700   0.00000  Uiso   1.00
C928   C     0.49996   0.16664   0.68850   0.00000  Uiso   1.00
C929   C     0.50004   0.16669   0.97817   0.00000  Uiso   1.00
C930   C     0.35475   0.12599   0.83671   0.00000  Uiso   1.00
C931   C     0.64525   0.20734   0.82995   0.00000  Uiso   1.00
C932   C     0.64552   0.12592   0.83581   0.00000  Uiso   1.00
H933   H     0.37091   0.09425   0.83972   0.00000  Uiso   1.00
H934   H     0.62909   0.23908   0.82695   0.00000  Uiso   1.00
H935   H     0.62959   0.09410   0.83755   0.00000  Uiso   1.00
H936   H     0.37041   0.23923   0.82912   0.00000  Uiso   1.00
H937   H     0.54502   0.06590   0.98396   0.00000  Uiso   1.00
H938   H     0.45498   0.26744   0.68271   0.00000  Uiso   1.00
H939   H     0.40368   0.07977   0.73416   0.00000  Uiso   1.00
H940   H     0.59631   0.25356   0.93250   0.00000  Uiso   1.00
N941   N     0.50000   0.28573   0.83333   0.00000  Uiso   1.00
N942   N     0.50000   0.04760   0.83333   0.00000  Uiso   1.00
O943   O     0.43892   0.20487   0.83333   0.00000  Uiso   1.00
O944   O     0.52657   0.04909   0.95897   0.00000  Uiso   1.00
O945   O     0.42316   0.26858   0.76318   0.00000  Uiso   1.00
O946   O     0.47343   0.28425   0.70770   0.00000  Uiso   1.00
O947   O     0.47108   0.05092   0.71448   0.00000  Uiso   1.00
O948   O     0.41659   0.06446   0.76471   0.00000  Uiso   1.00
O949   O     0.52892   0.28242   0.95219   0.00000  Uiso   1.00
O950   O     0.58341   0.26887   0.90196   0.00000  Uiso   1.00
O951   O     0.56108   0.12846   0.83334   0.00000  Uiso   1.00
O952   O     0.56108   0.20487   0.83334   0.00000  Uiso   1.00
O953   O     0.43892   0.12846   0.83333   0.00000  Uiso   1.00
O954   O     0.50000   0.20488   0.76178   0.00000  Uiso   1.00
O955   O     0.50000   0.12845   0.90489   0.00000  Uiso   1.00
O956   O     0.50000   0.20488   0.90489   0.00000  Uiso   1.00
O957   O     0.50000   0.12845   0.76178   0.00000  Uiso   1.00
O958   O     0.57684   0.06476   0.90349   0.00000  Uiso   1.00
Zn959  Zn    0.50000   0.21771   0.83333   0.00000  Uiso   1.00
Zn960  Zn    0.50000   0.11563   0.83333   0.00000  Uiso   1.00
C961   C     0.75341   0.16669   0.83357   0.00000  Uiso   1.00
C962   C     0.68781   0.20741   0.83085   0.00000  Uiso   1.00
C963   C     0.95747   0.16662   0.83280   0.00000  Uiso   1.00
C964   C     0.70919   0.16672   0.83387   0.00000  Uiso   1.00
C965   C     0.85390   0.02391   0.87049   0.00000  Uiso   1.00
C966   C     0.81277   0.30942   0.79618   0.00000  Uiso   1.00
C967   C     0.81276   0.02391   0.79618   0.00000  Uiso   1.00
C968   C     0.85390   0.30942   0.87049   0.00000  Uiso   1.00
C969   C     0.87643   0.04785   0.91112   0.00000  Uiso   1.00
C970   C     0.79024   0.28549   0.75554   0.00000  Uiso   1.00
C971   C     0.78963   0.04784   0.75603   0.00000  Uiso   1.00
C972   C     0.91326   0.16664   0.83309   0.00000  Uiso   1.00
C973   C     0.87704   0.28549   0.91064   0.00000  Uiso   1.00
C974   C     0.83323   0.16665   0.73967   0.00000  Uiso   1.00
C975   C     0.83344   0.16668   0.92700   0.00000  Uiso   1.00
C976   C     0.83330   0.16664   0.68850   0.00000  Uiso   1.00
C977   C     0.83337   0.16669   0.97817   0.00000  Uiso   1.00
C978   C     0.68808   0.12599   0.83671   0.00000  Uiso   1.00
C979   C     0.97858   0.20734   0.82995   0.00000  Uiso   1.00
C980   C     0.97885   0.12592   0.83581   0.00000  Uiso   1.00
H981   H     0.70425   0.09425   0.83972   0.00000  Uiso   1.00
H982   H     0.96242   0.23908   0.82695   0.00000  Uiso   1.00
H983   H     0.96292   0.09410   0.83755   0.00000  Uiso   1.00
H984   H     0.70375   0.23923   0.82912   0.00000  Uiso   1.00
H985   H     0.87836   0.06590   0.98396   0.00000  Uiso   1.00
H986   H     0.78831   0.26744   0.68271   0.00000  Uiso   1.00
H987   H     0.73702   0.07977   0.73416   0.00000  Uiso   1.00
H988   H     0.92965   0.25356   0.93250   0.00000  Uiso   1.00
N989   N     0.83333   0.28573   0.83333   0.00000  Uiso   1.00
N990   N     0.83333   0.04760   0.83333   0.00000  Uiso   1.00
O991   O     0.77226   0.20487   0.83333   0.00000  Uiso   1.00
O992   O     0.85990   0.04909   0.95897   0.00000  Uiso   1.00
O993   O     0.75650   0.26858   0.76318   0.00000  Uiso   1.00
O994   O     0.80676   0.28425   0.70770   0.00000  Uiso   1.00
O995   O     0.80442   0.05092   0.71448   0.00000  Uiso   1.00
O996   O     0.74992   0.06446   0.76471   0.00000  Uiso   1.00
O997   O     0.86225   0.28242   0.95219   0.00000  Uiso   1.00
O998   O     0.91674   0.26887   0.90196   0.00000  Uiso   1.00
O999   O     0.89441   0.12846   0.83334   0.00000  Uiso   1.00
O1000  O     0.89441   0.20487   0.83334   0.00000  Uiso   1.00
O1001  O     0.77226   0.12846   0.83333   0.00000  Uiso   1.00
O1002  O     0.83334   0.20488   0.76178   0.00000  Uiso   1.00
O1003  O     0.83333   0.12845   0.90489   0.00000  Uiso   1.00
O1004  O     0.83333   0.20488   0.90489   0.00000  Uiso   1.00
O1005  O     0.83334   0.12845   0.76178   0.00000  Uiso   1.00
O1006  O     0.91017   0.06476   0.90349   0.00000  Uiso   1.00
Zn1007 Zn    0.83333   0.21771   0.83333   0.00000  Uiso   1.00
Zn1008 Zn    0.83333   0.11563   0.83333   0.00000  Uiso   1.00
C1009  C     0.08674   0.50003   0.83357   0.00000  Uiso   1.00
C1010  C     0.02115   0.54074   0.83085   0.00000  Uiso   1.00
C1011  C     0.29081   0.49995   0.83280   0.00000  Uiso   1.00
C1012  C     0.04253   0.50005   0.83387   0.00000  Uiso   1.00
C1013  C     0.18724   0.35725   0.87049   0.00000  Uiso   1.00
C1014  C     0.14610   0.64275   0.79618   0.00000  Uiso   1.00
C1015  C     0.14610   0.35724   0.79618   0.00000  Uiso   1.00
C1016  C     0.18724   0.64276   0.87049   0.00000  Uiso   1.00
C1017  C     0.20976   0.38118   0.91112   0.00000  Uiso   1.00
C1018  C     0.12357   0.61882   0.75554   0.00000  Uiso   1.00
C1019  C     0.12296   0.38118   0.75603   0.00000  Uiso   1.00
C1020  C     0.24660   0.49997   0.83309   0.00000  Uiso   1.00
C1021  C     0.21037   0.61882   0.91064   0.00000  Uiso   1.00
C1022  C     0.16656   0.49999   0.73967   0.00000  Uiso   1.00
C1023  C     0.16677   0.50001   0.92700   0.00000  Uiso   1.00
C1024  C     0.16663   0.49998   0.68850   0.00000  Uiso   1.00
C1025  C     0.16670   0.50002   0.97817   0.00000  Uiso   1.00
C1026  C     0.02142   0.45933   0.83671   0.00000  Uiso   1.00
C1027  C     0.31192   0.54067   0.82995   0.00000  Uiso   1.00
C1028  C     0.31219   0.45926   0.83581   0.00000  Uiso   1.00
H1029  H     0.03758   0.42759   0.83972   0.00000  Uiso   1.00
H1030  H     0.29575   0.57241   0.82695   0.00000  Uiso   1.00
H1031  H     0.29626   0.42744   0.83755   0.00000  Uiso   1.00
H1032  H     0.03708   0.57256   0.82912   0.00000  Uiso   1.00
H1033  H     0.21169   0.39923   0.98396   0.00000  Uiso   1.00
H1034  H     0.12164   0.60077   0.68271   0.00000  Uiso   1.00
H1035  H     0.07035   0.41311   0.73416   0.00000  Uiso   1.00
H1036  H     0.26298   0.58689   0.93250   0.00000  Uiso   1.00
N1037  N     0.16667   0.61907   0.83333   0.00000  Uiso   1.00
N1038  N     0.16667   0.38093   0.83333   0.00000  Uiso   1.00
O1039  O     0.10559   0.53821   0.83333   0.00000  Uiso   1.00
O1040  O     0.19324   0.38242   0.95897   0.00000  Uiso   1.00
O1041  O     0.08983   0.60191   0.76318   0.00000  Uiso   1.00
O1042  O     0.14010   0.61758   0.70770   0.00000  Uiso   1.00
O1043  O     0.13775   0.38425   0.71448   0.00000  Uiso   1.00
O1044  O     0.08326   0.39779   0.76471   0.00000  Uiso   1.00
O1045  O     0.19558   0.61575   0.95219   0.00000  Uiso   1.00
O1046  O     0.25008   0.60221   0.90196   0.00000  Uiso   1.00
O1047  O     0.22774   0.46179   0.83334   0.00000  Uiso   1.00
O1048  O     0.22774   0.53821   0.83334   0.00000  Uiso   1.00
O1049  O     0.10559   0.46179   0.83333   0.00000  Uiso   1.00
O1050  O     0.16667   0.53821   0.76178   0.00000  Uiso   1.00
O1051  O     0.16666   0.46179   0.90489   0.00000  Uiso   1.00
O1052  O     0.16666   0.53821   0.90489   0.00000  Uiso   1.00
O1053  O     0.16667   0.46179   0.76178   0.00000  Uiso   1.00
O1054  O     0.24350   0.39809   0.90349   0.00000  Uiso   1.00
Zn1055 Zn    0.16667   0.55104   0.83333   0.00000  Uiso   1.00
Zn1056 Zn    0.16667   0.44896   0.83333   0.00000  Uiso   1.00
C1057  C     0.42007   0.50003   0.83357   0.00000  Uiso   1.00
C1058  C     0.35448   0.54074   0.83085   0.00000  Uiso   1.00
C1059  C     0.62414   0.49995   0.83280   0.00000  Uiso   1.00
C1060  C     0.37586   0.50005   0.83387   0.00000  Uiso   1.00
C1061  C     0.52057   0.35725   0.87049   0.00000  Uiso   1.00
C1062  C     0.47943   0.64275   0.79618   0.00000  Uiso   1.00
C1063  C     0.47943   0.35724   0.79618   0.00000  Uiso   1.00
C1064  C     0.52057   0.64276   0.87049   0.00000  Uiso   1.00
C1065  C     0.54310   0.38118   0.91112   0.00000  Uiso   1.00
C1066  C     0.45691   0.61882   0.75554   0.00000  Uiso   1.00
C1067  C     0.45629   0.38118   0.75603   0.00000  Uiso   1.00
C1068  C     0.57993   0.49997   0.83309   0.00000  Uiso   1.00
C1069  C     0.54371   0.61882   0.91064   0.00000  Uiso   1.00
C1070  C     0.49990   0.49999   0.73967   0.00000  Uiso   1.00
C1071  C     0.50010   0.50001   0.92700   0.00000  Uiso   1.00
C1072  C     0.49996   0.49998   0.68850   0.00000  Uiso   1.00
C1073  C     0.50004   0.50002   0.97817   0.00000  Uiso   1.00
C1074  C     0.35475   0.45933   0.83671   0.00000  Uiso   1.00
C1075  C     0.64525   0.54067   0.82995   0.00000  Uiso   1.00
C1076  C     0.64552   0.45926   0.83581   0.00000  Uiso   1.00
H1077  H     0.37091   0.42759   0.83972   0.00000  Uiso   1.00
H1078  H     0.62909   0.57241   0.82695   0.00000  Uiso   1.00
H1079  H     0.62959   0.42744   0.83755   0.00000  Uiso   1.00
H1080  H     0.37041   0.57256   0.82912   0.00000  Uiso   1.00
H1081  H     0.54502   0.39923   0.98396   0.00000  Uiso   1.00
H1082  H     0.45498   0.60077   0.68271   0.00000  Uiso   1.00
H1083  H     0.40368   0.41311   0.73416   0.00000  Uiso   1.00
H1084  H     0.59631   0.58689   0.93250   0.00000  Uiso   1.00
N1085  N     0.50000   0.61907   0.83333   0.00000  Uiso   1.00
N1086  N     0.50000   0.38093   0.83333   0.00000  Uiso   1.00
O1087  O     0.43892   0.53821   0.83333   0.00000  Uiso   1.00
O1088  O     0.52657   0.38242   0.95897   0.00000  Uiso   1.00
O1089  O     0.42316   0.60191   0.76318   0.00000  Uiso   1.00
O1090  O     0.47343   0.61758   0.70770   0.00000  Uiso   1.00
O1091  O     0.47108   0.38425   0.71448   0.00000  Uiso   1.00
O1092  O     0.41659   0.39779   0.76471   0.00000  Uiso   1.00
O1093  O     0.52892   0.61575   0.95219   0.00000  Uiso   1.00
O1094  O     0.58341   0.60221   0.90196   0.00000  Uiso   1.00
O1095  O     0.56108   0.46179   0.83334   0.00000  Uiso   1.00
O1096  O     0.56108   0.53821   0.83334   0.00000  Uiso   1.00
O1097  O     0.43892   0.46179   0.83333   0.00000  Uiso   1.00
O1098  O     0.50000   0.53821   0.76178   0.00000  Uiso   1.00
O1099  O     0.50000   0.46179   0.90489   0.00000  Uiso   1.00
O1100  O     0.50000   0.53821   0.90489   0.00000  Uiso   1.00
O1101  O     0.50000   0.46179   0.76178   0.00000  Uiso   1.00
O1102  O     0.57684   0.39809   0.90349   0.00000  Uiso   1.00
Zn1103 Zn    0.50000   0.55104   0.83333   0.00000  Uiso   1.00
Zn1104 Zn    0.50000   0.44896   0.83333   0.00000  Uiso   1.00
C1105  C     0.75341   0.50003   0.83357   0.00000  Uiso   1.00
C1106  C     0.68781   0.54074   0.83085   0.00000  Uiso   1.00
C1107  C     0.95747   0.49995   0.83280   0.00000  Uiso   1.00
C1108  C     0.70919   0.50005   0.83387   0.00000  Uiso   1.00
C1109  C     0.85390   0.35725   0.87049   0.00000  Uiso   1.00
C1110  C     0.81277   0.64275   0.79618   0.00000  Uiso   1.00
C1111  C     0.81276   0.35724   0.79618   0.00000  Uiso   1.00
C1112  C     0.85390   0.64276   0.87049   0.00000  Uiso   1.00
C1113  C     0.87643   0.38118   0.91112   0.00000  Uiso   1.00
C1114  C     0.79024   0.61882   0.75554   0.00000  Uiso   1.00
C1115  C     0.78963   0.38118   0.75603   0.00000  Uiso   1.00
C1116  C     0.91326   0.49997   0.83309   0.00000  Uiso   1.00
C1117  C     0.87704   0.61882   0.91064   0.00000  Uiso   1.00
C1118  C     0.83323   0.49999   0.73967   0.00000  Uiso   1.00
C1119  C     0.83344   0.50001   0.92700   0.00000  Uiso   1.00
C1120  C     0.83330   0.49998   0.68850   0.00000  Uiso   1.00
C1121  C     0.83337   0.50002   0.97817   0.00000  Uiso   1.00
C1122  C     0.68808   0.45933   0.83671   0.00000  Uiso   1.00
C1123  C     0.97858   0.54067   0.82995   0.00000  Uiso   1.00
C1124  C     0.97885   0.45926   0.83581   0.00000  Uiso   1.00
H1125  H     0.70425   0.42759   0.83972   0.00000  Uiso   1.00
H1126  H     0.96242   0.57241   0.82695   0.00000  Uiso   1.00
H1127  H     0.96292   0.42744   0.83755   0.00000  Uiso   1.00
H1128  H     0.70375   0.57256   0.82912   0.00000  Uiso   1.00
H1129  H     0.87836   0.39923   0.98396   0.00000  Uiso   1.00
H1130  H     0.78831   0.60077   0.68271   0.00000  Uiso   1.00
H1131  H     0.73702   0.41311   0.73416   0.00000  Uiso   1.00
H1132  H     0.92965   0.58689   0.93250   0.00000  Uiso   1.00
N1133  N     0.83333   0.61907   0.83333   0.00000  Uiso   1.00
N1134  N     0.83333   0.38093   0.83333   0.00000  Uiso   1.00
O1135  O     0.77226   0.53821   0.83333   0.00000  Uiso   1.00
O1136  O     0.85990   0.38242   0.95897   0.00000  Uiso   1.00
O1137  O     0.75650   0.60191   0.76318   0.00000  Uiso   1.00
O1138  O     0.80676   0.61758   0.70770   0.00000  Uiso   1.00
O1139  O     0.80442   0.38425   0.71448   0.00000  Uiso   1.00
O1140  O     0.74992   0.39779   0.76471   0.00000  Uiso   1.00
O1141  O     0.86225   0.61575   0.95219   0.00000  Uiso   1.00
O1142  O     0.91674   0.60221   0.90196   0.00000  Uiso   1.00
O1143  O     0.89441   0.46179   0.83334   0.00000  Uiso   1.00
O1144  O     0.89441   0.53821   0.83334   0.00000  Uiso   1.00
O1145  O     0.77226   0.46179   0.83333   0.00000  Uiso   1.00
O1146  O     0.83334   0.53821   0.76178   0.00000  Uiso   1.00
O1147  O     0.83333   0.46179   0.90489   0.00000  Uiso   1.00
O1148  O     0.83333   0.53821   0.90489   0.00000  Uiso   1.00
O1149  O     0.83334   0.46179   0.76178   0.00000  Uiso   1.00
O1150  O     0.91017   0.39809   0.90349   0.00000  Uiso   1.00
Zn1151 Zn    0.83333   0.55104   0.83333   0.00000  Uiso   1.00
Zn1152 Zn    0.83333   0.44896   0.83333   0.00000  Uiso   1.00
C1153  C     0.08674   0.83336   0.83357   0.00000  Uiso   1.00
C1154  C     0.02115   0.87408   0.83085   0.00000  Uiso   1.00
C1155  C     0.29081   0.83328   0.83280   0.00000  Uiso   1.00
C1156  C     0.04253   0.83338   0.83387   0.00000  Uiso   1.00
C1157  C     0.18724   0.69058   0.87049   0.00000  Uiso   1.00
C1158  C     0.14610   0.97609   0.79618   0.00000  Uiso   1.00
C1159  C     0.14610   0.69058   0.79618   0.00000  Uiso   1.00
C1160  C     0.18724   0.97609   0.87049   0.00000  Uiso   1.00
C1161  C     0.20976   0.71451   0.91112   0.00000  Uiso   1.00
C1162  C     0.12357   0.95215   0.75554   0.00000  Uiso   1.00
C1163  C     0.12296   0.71451   0.75603   0.00000  Uiso   1.00
C1164  C     0.24660   0.83331   0.83309   0.00000  Uiso   1.00
C1165  C     0.21037   0.95216   0.91064   0.00000  Uiso   1.00
C1166  C     0.16656   0.83332   0.73967   0.00000  Uiso   1.00
C1167  C     0.16677   0.83335   0.92700   0.00000  Uiso   1.00
C1168  C     0.16663   0.83331   0.68850   0.00000  Uiso   1.00
C1169  C     0.16670   0.83336   0.97817   0.00000  Uiso   1.00
C1170  C     0.02142   0.79266   0.83671   0.00000  Uiso   1.00
C1171  C     0.31192   0.87401   0.82995   0.00000  Uiso   1.00
C1172  C     0.31219   0.79259   0.83581   0.00000  Uiso   1.00
H1173  H     0.03758   0.76092   0.83972   0.00000  Uiso   1.00
H1174  H     0.29575   0.90575   0.82695   0.00000  Uiso   1.00
H1175  H     0.29626   0.76077   0.83755   0.00000  Uiso   1.00
H1176  H     0.03708   0.90590   0.82912   0.00000  Uiso   1.00
H1177  H     0.21169   0.73257   0.98396   0.00000  Uiso   1.00
H1178  H     0.12164   0.93410   0.68271   0.00000  Uiso   1.00
H1179  H     0.07035   0.74644   0.73416   0.00000  Uiso   1.00
H1180  H     0.26298   0.92022   0.93250   0.00000  Uiso   1.00
N1181  N     0.16667   0.95240   0.83333   0.00000  Uiso   1.00
N1182  N     0.16667   0.71427   0.83333   0.00000  Uiso   1.00
O1183  O     0.10559   0.87154   0.83333   0.00000  Uiso   1.00
O1184  O     0.19324   0.71575   0.95897   0.00000  Uiso   1.00
O1185  O     0.08983   0.93524   0.76318   0.00000  Uiso   1.00
O1186  O     0.14010   0.95091   0.70770   0.00000  Uiso   1.00
O1187  O     0.13775   0.71758   0.71448   0.00000  Uiso   1.00
O1188  O     0.08326   0.73112   0.76471   0.00000  Uiso   1.00
O1189  O     0.19558   0.94909   0.95219   0.00000  Uiso   1.00
O1190  O     0.25008   0.93554   0.90196   0.00000  Uiso   1.00
O1191  O     0.22774   0.79513   0.83334   0.00000  Uiso   1.00
O1192  O     0.22774   0.87154   0.83334   0.00000  Uiso   1.00
O1193  O     0.10559   0.79513   0.83333   0.00000  Uiso   1.00
O1194  O     0.16667   0.87155   0.76178   0.00000  Uiso   1.00
O1195  O     0.16666   0.79512   0.90489   0.00000  Uiso   1.00
O1196  O     0.16666   0.87155   0.90489   0.00000  Uiso   1.00
O1197  O     0.16667   0.79512   0.76178   0.00000  Uiso   1.00
O1198  O     0.24350   0.73142   0.90349   0.00000  Uiso   1.00
Zn1199 Zn    0.16667   0.88437   0.83333   0.00000  Uiso   1.00
Zn1200 Zn    0.16667   0.78229   0.83333   0.00000  Uiso   1.00
C1201  C     0.42007   0.83336   0.83357   0.00000  Uiso   1.00
C1202  C     0.35448   0.87408   0.83085   0.00000  Uiso   1.00
C1203  C     0.62414   0.83328   0.83280   0.00000  Uiso   1.00
C1204  C     0.37586   0.83338   0.83387   0.00000  Uiso   1.00
C1205  C     0.52057   0.69058   0.87049   0.00000  Uiso   1.00
C1206  C     0.47943   0.97609   0.79618   0.00000  Uiso   1.00
C1207  C     0.47943   0.69058   0.79618   0.00000  Uiso   1.00
C1208  C     0.52057   0.97609   0.87049   0.00000  Uiso   1.00
C1209  C     0.54310   0.71451   0.91112   0.00000  Uiso   1.00
C1210  C     0.45691   0.95215   0.75554   0.00000  Uiso   1.00
C1211  C     0.45629   0.71451   0.75603   0.00000  Uiso   1.00
C1212  C     0.57993   0.83331   0.83309   0.00000  Uiso   1.00
C1213  C     0.54371   0.95216   0.91064   0.00000  Uiso   1.00
C1214  C     0.49990   0.83332   0.73967   0.00000  Uiso   1.00
C1215  C     0.50010   0.83335   0.92700   0.00000  Uiso   1.00
C1216  C     0.49996   0.83331   0.68850   0.00000  Uiso   1.00
C1217  C     0.50004   0.83336   0.97817   0.00000  Uiso   1.00
C1218  C     0.35475   0.79266   0.83671   0.00000  Uiso   1.00
C1219  C     0.64525   0.87401   0.82995   0.00000  Uiso   1.00
C1220  C     0.64552   0.79259   0.83581   0.00000  Uiso   1.00
H1221  H     0.37091   0.76092   0.83972   0.00000  Uiso   1.00
H1222  H     0.62909   0.90575   0.82695   0.00000  Uiso   1.00
H1223  H     0.62959   0.76077   0.83755   0.00000  Uiso   1.00
H1224  H     0.37041   0.90590   0.82912   0.00000  Uiso   1.00
H1225  H     0.54502   0.73257   0.98396   0.00000  Uiso   1.00
H1226  H     0.45498   0.93410   0.68271   0.00000  Uiso   1.00
H1227  H     0.40368   0.74644   0.73416   0.00000  Uiso   1.00
H1228  H     0.59631   0.92022   0.93250   0.00000  Uiso   1.00
N1229  N     0.50000   0.95240   0.83333   0.00000  Uiso   1.00
N1230  N     0.50000   0.71427   0.83333   0.00000  Uiso   1.00
O1231  O     0.43892   0.87154   0.83333   0.00000  Uiso   1.00
O1232  O     0.52657   0.71575   0.95897   0.00000  Uiso   1.00
O1233  O     0.42316   0.93524   0.76318   0.00000  Uiso   1.00
O1234  O     0.47343   0.95091   0.70770   0.00000  Uiso   1.00
O1235  O     0.47108   0.71758   0.71448   0.00000  Uiso   1.00
O1236  O     0.41659   0.73112   0.76471   0.00000  Uiso   1.00
O1237  O     0.52892   0.94909   0.95219   0.00000  Uiso   1.00
O1238  O     0.58341   0.93554   0.90196   0.00000  Uiso   1.00
O1239  O     0.56108   0.79513   0.83334   0.00000  Uiso   1.00
O1240  O     0.56108   0.87154   0.83334   0.00000  Uiso   1.00
O1241  O     0.43892   0.79513   0.83333   0.00000  Uiso   1.00
O1242  O     0.50000   0.87155   0.76178   0.00000  Uiso   1.00
O1243  O     0.50000   0.79512   0.90489   0.00000  Uiso   1.00
O1244  O     0.50000   0.87155   0.90489   0.00000  Uiso   1.00
O1245  O     0.50000   0.79512   0.76178   0.00000  Uiso   1.00
O1246  O     0.57684   0.73142   0.90349   0.00000  Uiso   1.00
Zn1247 Zn    0.50000   0.88437   0.83333   0.00000  Uiso   1.00
Zn1248 Zn    0.50000   0.78229   0.83333   0.00000  Uiso   1.00
C1249  C     0.75341   0.83336   0.83357   0.00000  Uiso   1.00
C1250  C     0.68781   0.87408   0.83085   0.00000  Uiso   1.00
C1251  C     0.95747   0.83328   0.83280   0.00000  Uiso   1.00
C1252  C     0.70919   0.83338   0.83387   0.00000  Uiso   1.00
C1253  C     0.85390   0.69058   0.87049   0.00000  Uiso   1.00
C1254  C     0.81277   0.97609   0.79618   0.00000  Uiso   1.00
C1255  C     0.81276   0.69058   0.79618   0.00000  Uiso   1.00
C1256  C     0.85390   0.97609   0.87049   0.00000  Uiso   1.00
C1257  C     0.87643   0.71451   0.91112   0.00000  Uiso   1.00
C1258  C     0.79024   0.95215   0.75554   0.00000  Uiso   1.00
C1259  C     0.78963   0.71451   0.75603   0.00000  Uiso   1.00
C1260  C     0.91326   0.83331   0.83309   0.00000  Uiso   1.00
C1261  C     0.87704   0.95216   0.91064   0.00000  Uiso   1.00
C1262  C     0.83323   0.83332   0.73967   0.00000  Uiso   1.00
C1263  C     0.83344   0.83335   0.92700   0.00000  Uiso   1.00
C1264  C     0.83330   0.83331   0.68850   0.00000  Uiso   1.00
C1265  C     0.83337   0.83336   0.97817   0.00000  Uiso   1.00
C1266  C     0.68808   0.79266   0.83671   0.00000  Uiso   1.00
C1267  C     0.97858   0.87401   0.82995   0.00000  Uiso   1.00
C1268  C     0.97885   0.79259   0.83581   0.00000  Uiso   1.00
H1269  H     0.70425   0.76092   0.83972   0.00000  Uiso   1.00
H1270  H     0.96242   0.90575   0.82695   0.00000  Uiso   1.00
H1271  H     0.96292   0.76077   0.83755   0.00000  Uiso   1.00
H1272  H     0.70375   0.90590   0.82912   0.00000  Uiso   1.00
H1273  H     0.87836   0.73257   0.98396   0.00000  Uiso   1.00
H1274  H     0.78831   0.93410   0.68271   0.00000  Uiso   1.00
H1275  H     0.73702   0.74644   0.73416   0.00000  Uiso   1.00
H1276  H     0.92965   0.92022   0.93250   0.00000  Uiso   1.00
N1277  N     0.83333   0.95240   0.83333   0.00000  Uiso   1.00
N1278  N     0.83333   0.71427   0.83333   0.00000  Uiso   1.00
O1279  O     0.77226   0.87154   0.83333   0.00000  Uiso   1.00
O1280  O     0.85990   0.71575   0.95897   0.00000  Uiso   1.00
O1281  O     0.75650   0.93524   0.76318   0.00000  Uiso   1.00
O1282  O     0.80676   0.95091   0.70770   0.00000  Uiso   1.00
O1283  O     0.80442   0.71758   0.71448   0.00000  Uiso   1.00
O1284  O     0.74992   0.73112   0.76471   0.00000  Uiso   1.00
O1285  O     0.86225   0.94909   0.95219   0.00000  Uiso   1.00
O1286  O     0.91674   0.93554   0.90196   0.00000  Uiso   1.00
O1287  O     0.89441   0.79513   0.83334   0.00000  Uiso   1.00
O1288  O     0.89441   0.87154   0.83334   0.00000  Uiso   1.00
O1289  O     0.77226   0.79513   0.83333   0.00000  Uiso   1.00
O1290  O     0.83334   0.87155   0.76178   0.00000  Uiso   1.00
O1291  O     0.83333   0.79512   0.90489   0.00000  Uiso   1.00
O1292  O     0.83333   0.87155   0.90489   0.00000  Uiso   1.00
O1293  O     0.83334   0.79512   0.76178   0.00000  Uiso   1.00
O1294  O     0.91017   0.73142   0.90349   0.00000  Uiso   1.00
Zn1295 Zn    0.83333   0.88437   0.83333   0.00000  Uiso   1.00
Zn1296 Zn    0.83333   0.78229   0.83333   0.00000  Uiso   1.00
loop_
_geom_bond_atom_site_label_1
_geom_bond_atom_site_label_2
_geom_bond_distance
_geom_bond_site_symmetry_2
_ccdc_geom_bond_type
C1     C4      1.423   .     S
C1     O41     1.292   .     A
C1     O31     1.293   .     A
C2     C4      1.397   .     A
C2     H24     1.082   .     S
C2     C115    1.369   1_455 S
C3     C19     1.397   .     A
C3     C20     1.397   .     A
C3     C12     1.423   .     S
C4     C18     1.397   .     A
C5     C9      1.473   .     S
C5     N30     1.373   .     A
C5     C296    1.429   1_545 S
C6     C10     1.473   .     S
C6     N29     1.373   .     A
C6     C151    1.429   .     S
C7     N30     1.373   .     A
C7     C11     1.473   .     S
C7     C294    1.429   1_545 S
C8     C13     1.473   .     S
C8     N29     1.373   .     A
C8     C149    1.429   .     S
C9     O46     1.220   .     D
C9     O32     1.397   .     S
C10    O33     1.220   .     D
C10    O34     1.397   .     S
C11    O35     1.222   .     D
C11    O36     1.395   .     S
C12    O39     1.293   .     A
C12    O40     1.292   .     A
C13    O37     1.222   .     D
C13    O38     1.395   .     S
C14    O42     1.285   .     A
C14    O45     1.285   .     A
C14    C16     1.366   .     S
C15    O43     1.285   .     A
C15    O44     1.285   .     A
C15    C17     1.366   .     S
C16    C881    1.165   1_554 S
C17    C448    1.165   .     S
C18    H21     1.083   .     S
C18    C116    1.369   1_455 S
C19    H22     1.083   .     S
C19    C50     1.369   .     S
C20    H23     1.082   .     S
C20    C66     1.369   .     S
H25    O32     1.014   .     S
H26    O34     1.014   .     S
H27    O36     1.014   .     S
H28    O38     1.014   .     S
N29    Zn47    2.032   .     S
N30    Zn48    2.032   .     S
O31    Zn47    2.003   .     S
O39    Zn48    2.003   .     S
O40    Zn47    2.002   .     S
O41    Zn48    2.002   .     S
O42    Zn47    1.947   .     S
O43    Zn48    1.947   .     S
O44    Zn47    1.948   .     S
O45    Zn48    1.948   .     S
C49    C52     1.423   .     S
C49    O89     1.292   .     A
C49    O79     1.293   .     A
C50    C52     1.397   .     A
C50    H72     1.082   .     S
C51    C67     1.397   .     A
C51    C68     1.397   .     A
C51    C60     1.423   .     S
C52    C66     1.397   .     A
C53    C57     1.473   .     S
C53    N78     1.373   .     A
C53    C344    1.429   1_545 S
C54    C58     1.473   .     S
C54    N77     1.373   .     A
C54    C199    1.429   .     S
C55    N78     1.373   .     A
C55    C59     1.473   .     S
C55    C342    1.429   1_545 S
C56    C61     1.473   .     S
C56    N77     1.373   .     A
C56    C197    1.429   .     S
C57    O94     1.220   .     D
C57    O80     1.397   .     S
C58    O81     1.220   .     D
C58    O82     1.397   .     S
C59    O83     1.222   .     D
C59    O84     1.395   .     S
C60    O87     1.293   .     A
C60    O88     1.292   .     A
C61    O85     1.222   .     D
C61    O86     1.395   .     S
C62    O90     1.285   .     A
C62    O93     1.285   .     A
C62    C64     1.366   .     S
C63    O91     1.285   .     A
C63    O92     1.285   .     A
C63    C65     1.366   .     S
C64    C929    1.165   1_554 S
C65    C496    1.165   .     S
C66    H69     1.083   .     S
C67    H70     1.083   .     S
C67    C98     1.369   .     S
C68    H71     1.082   .     S
C68    C114    1.369   .     S
H73    O80     1.014   .     S
H74    O82     1.014   .     S
H75    O84     1.014   .     S
H76    O86     1.014   .     S
N77    Zn95    2.032   .     S
N78    Zn96    2.032   .     S
O79    Zn95    2.003   .     S
O87    Zn96    2.003   .     S
O88    Zn95    2.002   .     S
O89    Zn96    2.002   .     S
O90    Zn95    1.947   .     S
O91    Zn96    1.947   .     S
O92    Zn95    1.948   .     S
O93    Zn96    1.948   .     S
C97    C100    1.423   .     S
C97    O137    1.292   .     A
C97    O127    1.293   .     A
C98    C100    1.397   .     A
C98    H120    1.082   .     S
C99    C115    1.397   .     A
C99    C116    1.397   .     A
C99    C108    1.423   .     S
C100   C114    1.397   .     A
C101   C105    1.473   .     S
C101   N126    1.373   .     A
C101   C392    1.429   1_545 S
C102   C106    1.473   .     S
C102   N125    1.373   .     A
C102   C247    1.429   .     S
C103   N126    1.373   .     A
C103   C107    1.473   .     S
C103   C390    1.429   1_545 S
C104   C109    1.473   .     S
C104   N125    1.373   .     A
C104   C245    1.429   .     S
C105   O142    1.220   .     D
C105   O128    1.397   .     S
C106   O129    1.220   .     D
C106   O130    1.397   .     S
C107   O131    1.222   .     D
C107   O132    1.395   .     S
C108   O135    1.293   .     A
C108   O136    1.292   .     A
C109   O133    1.222   .     D
C109   O134    1.395   .     S
C110   O138    1.285   .     A
C110   O141    1.285   .     A
C110   C112    1.366   .     S
C111   O139    1.285   .     A
C111   O140    1.285   .     A
C111   C113    1.366   .     S
C112   C977    1.165   1_554 S
C113   C544    1.165   .     S
C114   H117    1.083   .     S
C115   H118    1.083   .     S
C115   C2      1.369   1_655 S
C116   H119    1.082   .     S
C116   C18     1.369   1_655 S
H121   O128    1.014   .     S
H122   O130    1.014   .     S
H123   O132    1.014   .     S
H124   O134    1.014   .     S
N125   Zn143   2.032   .     S
N126   Zn144   2.032   .     S
O127   Zn143   2.003   .     S
O135   Zn144   2.003   .     S
O136   Zn143   2.002   .     S
O137   Zn144   2.002   .     S
O138   Zn143   1.947   .     S
O139   Zn144   1.947   .     S
O140   Zn143   1.948   .     S
O141   Zn144   1.948   .     S
C145   C148    1.423   .     S
C145   O185    1.292   .     A
C145   O175    1.293   .     A
C146   C148    1.397   .     A
C146   H168    1.082   .     S
C146   C259    1.369   1_455 S
C147   C163    1.397   .     A
C147   C164    1.397   .     A
C147   C156    1.423   .     S
C148   C162    1.397   .     A
C149   C153    1.473   .     S
C149   N174    1.373   .     A
C150   C154    1.473   .     S
C150   N173    1.373   .     A
C150   C295    1.429   .     S
C151   N174    1.373   .     A
C151   C155    1.473   .     S
C152   C157    1.473   .     S
C152   N173    1.373   .     A
C152   C293    1.429   .     S
C153   O190    1.220   .     D
C153   O176    1.397   .     S
C154   O177    1.220   .     D
C154   O178    1.397   .     S
C155   O179    1.222   .     D
C155   O180    1.395   .     S
C156   O183    1.293   .     A
C156   O184    1.292   .     A
C157   O181    1.222   .     D
C157   O182    1.395   .     S
C158   O186    1.285   .     A
C158   O189    1.285   .     A
C158   C160    1.366   .     S
C159   O187    1.285   .     A
C159   O188    1.285   .     A
C159   C161    1.366   .     S
C160   C1025   1.165   1_554 S
C161   C592    1.165   .     S
C162   H165    1.083   .     S
C162   C260    1.369   1_455 S
C163   H166    1.083   .     S
C163   C194    1.369   .     S
C164   H167    1.082   .     S
C164   C210    1.369   .     S
H169   O176    1.014   .     S
H170   O178    1.014   .     S
H171   O180    1.014   .     S
H172   O182    1.014   .     S
N173   Zn191   2.032   .     S
N174   Zn192   2.032   .     S
O175   Zn191   2.003   .     S
O183   Zn192   2.003   .     S
O184   Zn191   2.002   .     S
O185   Zn192   2.002   .     S
O186   Zn191   1.947   .     S
O187   Zn192   1.947   .     S
O188   Zn191   1.948   .     S
O189   Zn192   1.948   .     S
C193   C196    1.423   .     S
C193   O233    1.292   .     A
C193   O223    1.293   .     A
C194   C196    1.397   .     A
C194   H216    1.082   .     S
C195   C211    1.397   .     A
C195   C212    1.397   .     A
C195   C204    1.423   .     S
C196   C210    1.397   .     A
C197   C201    1.473   .     S
C197   N222    1.373   .     A
C198   C202    1.473   .     S
C198   N221    1.373   .     A
C198   C343    1.429   .     S
C199   N222    1.373   .     A
C199   C203    1.473   .     S
C200   C205    1.473   .     S
C200   N221    1.373   .     A
C200   C341    1.429   .     S
C201   O238    1.220   .     D
C201   O224    1.397   .     S
C202   O225    1.220   .     D
C202   O226    1.397   .     S
C203   O227    1.222   .     D
C203   O228    1.395   .     S
C204   O231    1.293   .     A
C204   O232    1.292   .     A
C205   O229    1.222   .     D
C205   O230    1.395   .     S
C206   O234    1.285   .     A
C206   O237    1.285   .     A
C206   C208    1.366   .     S
C207   O235    1.285   .     A
C207   O236    1.285   .     A
C207   C209    1.366   .     S
C208   C1073   1.165   1_554 S
C209   C640    1.165   .     S
C210   H213    1.083   .     S
C211   H214    1.083   .     S
C211   C242    1.369   .     S
C212   H215    1.082   .     S
C212   C258    1.369   .     S
H217   O224    1.014   .     S
H218   O226    1.014   .     S
H219   O228    1.014   .     S
H220   O230    1.014   .     S
N221   Zn239   2.032   .     S
N222   Zn240   2.032   .     S
O223   Zn239   2.003   .     S
O231   Zn240   2.003   .     S
O232   Zn239   2.002   .     S
O233   Zn240   2.002   .     S
O234   Zn239   1.947   .     S
O235   Zn240   1.947   .     S
O236   Zn239   1.948   .     S
O237   Zn240   1.948   .     S
C241   C244    1.423   .     S
C241   O281    1.292   .     A
C241   O271    1.293   .     A
C242   C244    1.397   .     A
C242   H264    1.082   .     S
C243   C259    1.397   .     A
C243   C260    1.397   .     A
C243   C252    1.423   .     S
C244   C258    1.397   .     A
C245   C249    1.473   .     S
C245   N270    1.373   .     A
C246   C250    1.473   .     S
C246   N269    1.373   .     A
C246   C391    1.429   .     S
C247   N270    1.373   .     A
C247   C251    1.473   .     S
C248   C253    1.473   .     S
C248   N269    1.373   .     A
C248   C389    1.429   .     S
C249   O286    1.220   .     D
C249   O272    1.397   .     S
C250   O273    1.220   .     D
C250   O274    1.397   .     S
C251   O275    1.222   .     D
C251   O276    1.395   .     S
C252   O279    1.293   .     A
C252   O280    1.292   .     A
C253   O277    1.222   .     D
C253   O278    1.395   .     S
C254   O282    1.285   .     A
C254   O285    1.285   .     A
C254   C256    1.366   .     S
C255   O283    1.285   .     A
C255   O284    1.285   .     A
C255   C257    1.366   .     S
C256   C1121   1.165   1_554 S
C257   C688    1.165   .     S
C258   H261    1.083   .     S
C259   H262    1.083   .     S
C259   C146    1.369   1_655 S
C260   H263    1.082   .     S
C260   C162    1.369   1_655 S
H265   O272    1.014   .     S
H266   O274    1.014   .     S
H267   O276    1.014   .     S
H268   O278    1.014   .     S
N269   Zn287   2.032   .     S
N270   Zn288   2.032   .     S
O271   Zn287   2.003   .     S
O279   Zn288   2.003   .     S
O280   Zn287   2.002   .     S
O281   Zn288   2.002   .     S
O282   Zn287   1.947   .     S
O283   Zn288   1.947   .     S
O284   Zn287   1.948   .     S
O285   Zn288   1.948   .     S
C289   C292    1.423   .     S
C289   O329    1.292   .     A
C289   O319    1.293   .     A
C290   C292    1.397   .     A
C290   H312    1.082   .     S
C290   C403    1.369   1_455 S
C291   C307    1.397   .     A
C291   C308    1.397   .     A
C291   C300    1.423   .     S
C292   C306    1.397   .     A
C293   C297    1.473   .     S
C293   N318    1.373   .     A
C294   C298    1.473   .     S
C294   N317    1.373   .     A
C294   C7      1.429   1_565 S
C295   N318    1.373   .     A
C295   C299    1.473   .     S
C296   C301    1.473   .     S
C296   N317    1.373   .     A
C296   C5      1.429   1_565 S
C297   O334    1.220   .     D
C297   O320    1.397   .     S
C298   O321    1.220   .     D
C298   O322    1.397   .     S
C299   O323    1.222   .     D
C299   O324    1.395   .     S
C300   O327    1.293   .     A
C300   O328    1.292   .     A
C301   O325    1.222   .     D
C301   O326    1.395   .     S
C302   O330    1.285   .     A
C302   O333    1.285   .     A
C302   C304    1.366   .     S
C303   O331    1.285   .     A
C303   O332    1.285   .     A
C303   C305    1.366   .     S
C304   C1169   1.165   1_554 S
C305   C736    1.165   .     S
C306   H309    1.083   .     S
C306   C404    1.369   1_455 S
C307   H310    1.083   .     S
C307   C338    1.369   .     S
C308   H311    1.082   .     S
C308   C354    1.369   .     S
H313   O320    1.014   .     S
H314   O322    1.014   .     S
H315   O324    1.014   .     S
H316   O326    1.014   .     S
N317   Zn335   2.032   .     S
N318   Zn336   2.032   .     S
O319   Zn335   2.003   .     S
O327   Zn336   2.003   .     S
O328   Zn335   2.002   .     S
O329   Zn336   2.002   .     S
O330   Zn335   1.947   .     S
O331   Zn336   1.947   .     S
O332   Zn335   1.948   .     S
O333   Zn336   1.948   .     S
C337   C340    1.423   .     S
C337   O377    1.292   .     A
C337   O367    1.293   .     A
C338   C340    1.397   .     A
C338   H360    1.082   .     S
C339   C355    1.397   .     A
C339   C356    1.397   .     A
C339   C348    1.423   .     S
C340   C354    1.397   .     A
C341   C345    1.473   .     S
C341   N366    1.373   .     A
C342   C346    1.473   .     S
C342   N365    1.373   .     A
C342   C55     1.429   1_565 S
C343   N366    1.373   .     A
C343   C347    1.473   .     S
C344   C349    1.473   .     S
C344   N365    1.373   .     A
C344   C53     1.429   1_565 S
C345   O382    1.220   .     D
C345   O368    1.397   .     S
C346   O369    1.220   .     D
C346   O370    1.397   .     S
C347   O371    1.222   .     D
C347   O372    1.395   .     S
C348   O375    1.293   .     A
C348   O376    1.292   .     A
C349   O373    1.222   .     D
C349   O374    1.395   .     S
C350   O378    1.285   .     A
C350   O381    1.285   .     A
C350   C352    1.366   .     S
C351   O379    1.285   .     A
C351   O380    1.285   .     A
C351   C353    1.366   .     S
C352   C1217   1.165   1_554 S
C353   C784    1.165   .     S
C354   H357    1.083   .     S
C355   H358    1.083   .     S
C355   C386    1.369   .     S
C356   H359    1.082   .     S
C356   C402    1.369   .     S
H361   O368    1.014   .     S
H362   O370    1.014   .     S
H363   O372    1.014   .     S
H364   O374    1.014   .     S
N365   Zn383   2.032   .     S
N366   Zn384   2.032   .     S
O367   Zn383   2.003   .     S
O375   Zn384   2.003   .     S
O376   Zn383   2.002   .     S
O377   Zn384   2.002   .     S
O378   Zn383   1.947   .     S
O379   Zn384   1.947   .     S
O380   Zn383   1.948   .     S
O381   Zn384   1.948   .     S
C385   C388    1.423   .     S
C385   O425    1.292   .     A
C385   O415    1.293   .     A
C386   C388    1.397   .     A
C386   H408    1.082   .     S
C387   C403    1.397   .     A
C387   C404    1.397   .     A
C387   C396    1.423   .     S
C388   C402    1.397   .     A
C389   C393    1.473   .     S
C389   N414    1.373   .     A
C390   C394    1.473   .     S
C390   N413    1.373   .     A
C390   C103    1.429   1_565 S
C391   N414    1.373   .     A
C391   C395    1.473   .     S
C392   C397    1.473   .     S
C392   N413    1.373   .     A
C392   C101    1.429   1_565 S
C393   O430    1.220   .     D
C393   O416    1.397   .     S
C394   O417    1.220   .     D
C394   O418    1.397   .     S
C395   O419    1.222   .     D
C395   O420    1.395   .     S
C396   O423    1.293   .     A
C396   O424    1.292   .     A
C397   O421    1.222   .     D
C397   O422    1.395   .     S
C398   O426    1.285   .     A
C398   O429    1.285   .     A
C398   C400    1.366   .     S
C399   O427    1.285   .     A
C399   O428    1.285   .     A
C399   C401    1.366   .     S
C400   C1265   1.165   1_554 S
C401   C832    1.165   .     S
C402   H405    1.083   .     S
C403   H406    1.083   .     S
C403   C290    1.369   1_655 S
C404   H407    1.082   .     S
C404   C306    1.369   1_655 S
H409   O416    1.014   .     S
H410   O418    1.014   .     S
H411   O420    1.014   .     S
H412   O422    1.014   .     S
N413   Zn431   2.032   .     S
N414   Zn432   2.032   .     S
O415   Zn431   2.003   .     S
O423   Zn432   2.003   .     S
O424   Zn431   2.002   .     S
O425   Zn432   2.002   .     S
O426   Zn431   1.947   .     S
O427   Zn432   1.947   .     S
O428   Zn431   1.948   .     S
O429   Zn432   1.948   .     S
C433   C436    1.423   .     S
C433   O473    1.292   .     A
C433   O463    1.293   .     A
C434   C436    1.397   .     A
C434   H456    1.082   .     S
C434   C547    1.369   1_455 S
C435   C451    1.397   .     A
C435   C452    1.397   .     A
C435   C444    1.423   .     S
C436   C450    1.397   .     A
C437   C441    1.473   .     S
C437   N462    1.373   .     A
C437   C728    1.429   1_545 S
C438   C442    1.473   .     S
C438   N461    1.373   .     A
C438   C583    1.429   .     S
C439   N462    1.373   .     A
C439   C443    1.473   .     S
C439   C726    1.429   1_545 S
C440   C445    1.473   .     S
C440   N461    1.373   .     A
C440   C581    1.429   .     S
C441   O478    1.220   .     D
C441   O464    1.397   .     S
C442   O465    1.220   .     D
C442   O466    1.397   .     S
C443   O467    1.222   .     D
C443   O468    1.395   .     S
C444   O471    1.293   .     A
C444   O472    1.292   .     A
C445   O469    1.222   .     D
C445   O470    1.395   .     S
C446   O474    1.285   .     A
C446   O477    1.285   .     A
C446   C448    1.366   .     S
C447   O475    1.285   .     A
C447   O476    1.285   .     A
C447   C449    1.366   .     S
C449   C880    1.165   .     S
C450   H453    1.083   .     S
C450   C548    1.369   1_455 S
C451   H454    1.083   .     S
C451   C482    1.369   .     S
C452   H455    1.082   .     S
C452   C498    1.369   .     S
H457   O464    1.014   .     S
H458   O466    1.014   .     S
H459   O468    1.014   .     S
H460   O470    1.014   .     S
N461   Zn479   2.032   .     S
N462   Zn480   2.032   .     S
O463   Zn479   2.003   .     S
O471   Zn480   2.003   .     S
O472   Zn479   2.002   .     S
O473   Zn480   2.002   .     S
O474   Zn479   1.947   .     S
O475   Zn480   1.947   .     S
O476   Zn479   1.948   .     S
O477   Zn480   1.948   .     S
C481   C484    1.423   .     S
C481   O521    1.292   .     A
C481   O511    1.293   .     A
C482   C484    1.397   .     A
C482   H504    1.082   .     S
C483   C499    1.397   .     A
C483   C500    1.397   .     A
C483   C492    1.423   .     S
C484   C498    1.397   .     A
C485   C489    1.473   .     S
C485   N510    1.373   .     A
C485   C776    1.429   1_545 S
C486   C490    1.473   .     S
C486   N509    1.373   .     A
C486   C631    1.429   .     S
C487   N510    1.373   .     A
C487   C491    1.473   .     S
C487   C774    1.429   1_545 S
C488   C493    1.473   .     S
C488   N509    1.373   .     A
C488   C629    1.429   .     S
C489   O526    1.220   .     D
C489   O512    1.397   .     S
C490   O513    1.220   .     D
C490   O514    1.397   .     S
C491   O515    1.222   .     D
C491   O516    1.395   .     S
C492   O519    1.293   .     A
C492   O520    1.292   .     A
C493   O517    1.222   .     D
C493   O518    1.395   .     S
C494   O522    1.285   .     A
C494   O525    1.285   .     A
C494   C496    1.366   .     S
C495   O523    1.285   .     A
C495   O524    1.285   .     A
C495   C497    1.366   .     S
C497   C928    1.165   .     S
C498   H501    1.083   .     S
C499   H502    1.083   .     S
C499   C530    1.369   .     S
C500   H503    1.082   .     S
C500   C546    1.369   .     S
H505   O512    1.014   .     S
H506   O514    1.014   .     S
H507   O516    1.014   .     S
H508   O518    1.014   .     S
N509   Zn527   2.032   .     S
N510   Zn528   2.032   .     S
O511   Zn527   2.003   .     S
O519   Zn528   2.003   .     S
O520   Zn527   2.002   .     S
O521   Zn528   2.002   .     S
O522   Zn527   1.947   .     S
O523   Zn528   1.947   .     S
O524   Zn527   1.948   .     S
O525   Zn528   1.948   .     S
C529   C532    1.423   .     S
C529   O569    1.292   .     A
C529   O559    1.293   .     A
C530   C532    1.397   .     A
C530   H552    1.082   .     S
C531   C547    1.397   .     A
C531   C548    1.397   .     A
C531   C540    1.423   .     S
C532   C546    1.397   .     A
C533   C537    1.473   .     S
C533   N558    1.373   .     A
C533   C824    1.429   1_545 S
C534   C538    1.473   .     S
C534   N557    1.373   .     A
C534   C679    1.429   .     S
C535   N558    1.373   .     A
C535   C539    1.473   .     S
C535   C822    1.429   1_545 S
C536   C541    1.473   .     S
C536   N557    1.373   .     A
C536   C677    1.429   .     S
C537   O574    1.220   .     D
C537   O560    1.397   .     S
C538   O561    1.220   .     D
C538   O562    1.397   .     S
C539   O563    1.222   .     D
C539   O564    1.395   .     S
C540   O567    1.293   .     A
C540   O568    1.292   .     A
C541   O565    1.222   .     D
C541   O566    1.395   .     S
C542   O570    1.285   .     A
C542   O573    1.285   .     A
C542   C544    1.366   .     S
C543   O571    1.285   .     A
C543   O572    1.285   .     A
C543   C545    1.366   .     S
C545   C976    1.165   .     S
C546   H549    1.083   .     S
C547   H550    1.083   .     S
C547   C434    1.369   1_655 S
C548   H551    1.082   .     S
C548   C450    1.369   1_655 S
H553   O560    1.014   .     S
H554   O562    1.014   .     S
H555   O564    1.014   .     S
H556   O566    1.014   .     S
N557   Zn575   2.032   .     S
N558   Zn576   2.032   .     S
O559   Zn575   2.003   .     S
O567   Zn576   2.003   .     S
O568   Zn575   2.002   .     S
O569   Zn576   2.002   .     S
O570   Zn575   1.947   .     S
O571   Zn576   1.947   .     S
O572   Zn575   1.948   .     S
O573   Zn576   1.948   .     S
C577   C580    1.423   .     S
C577   O617    1.292   .     A
C577   O607    1.293   .     A
C578   C580    1.397   .     A
C578   H600    1.082   .     S
C578   C691    1.369   1_455 S
C579   C595    1.397   .     A
C579   C596    1.397   .     A
C579   C588    1.423   .     S
C580   C594    1.397   .     A
C581   C585    1.473   .     S
C581   N606    1.373   .     A
C582   C586    1.473   .     S
C582   N605    1.373   .     A
C582   C727    1.429   .     S
C583   N606    1.373   .     A
C583   C587    1.473   .     S
C584   C589    1.473   .     S
C584   N605    1.373   .     A
C584   C725    1.429   .     S
C585   O622    1.220   .     D
C585   O608    1.397   .     S
C586   O609    1.220   .     D
C586   O610    1.397   .     S
C587   O611    1.222   .     D
C587   O612    1.395   .     S
C588   O615    1.293   .     A
C588   O616    1.292   .     A
C589   O613    1.222   .     D
C589   O614    1.395   .     S
C590   O618    1.285   .     A
C590   O621    1.285   .     A
C590   C592    1.366   .     S
C591   O619    1.285   .     A
C591   O620    1.285   .     A
C591   C593    1.366   .     S
C593   C1024   1.165   .     S
C594   H597    1.083   .     S
C594   C692    1.369   1_455 S
C595   H598    1.083   .     S
C595   C626    1.369   .     S
C596   H599    1.082   .     S
C596   C642    1.369   .     S
H601   O608    1.014   .     S
H602   O610    1.014   .     S
H603   O612    1.014   .     S
H604   O614    1.014   .     S
N605   Zn623   2.032   .     S
N606   Zn624   2.032   .     S
O607   Zn623   2.003   .     S
O615   Zn624   2.003   .     S
O616   Zn623   2.002   .     S
O617   Zn624   2.002   .     S
O618   Zn623   1.947   .     S
O619   Zn624   1.947   .     S
O620   Zn623   1.948   .     S
O621   Zn624   1.948   .     S
C625   C628    1.423   .     S
C625   O665    1.292   .     A
C625   O655    1.293   .     A
C626   C628    1.397   .     A
C626   H648    1.082   .     S
C627   C643    1.397   .     A
C627   C644    1.397   .     A
C627   C636    1.423   .     S
C628   C642    1.397   .     A
C629   C633    1.473   .     S
C629   N654    1.373   .     A
C630   C634    1.473   .     S
C630   N653    1.373   .     A
C630   C775    1.429   .     S
C631   N654    1.373   .     A
C631   C635    1.473   .     S
C632   C637    1.473   .     S
C632   N653    1.373   .     A
C632   C773    1.429   .     S
C633   O670    1.220   .     D
C633   O656    1.397   .     S
C634   O657    1.220   .     D
C634   O658    1.397   .     S
C635   O659    1.222   .     D
C635   O660    1.395   .     S
C636   O663    1.293   .     A
C636   O664    1.292   .     A
C637   O661    1.222   .     D
C637   O662    1.395   .     S
C638   O666    1.285   .     A
C638   O669    1.285   .     A
C638   C640    1.366   .     S
C639   O667    1.285   .     A
C639   O668    1.285   .     A
C639   C641    1.366   .     S
C641   C1072   1.165   .     S
C642   H645    1.083   .     S
C643   H646    1.083   .     S
C643   C674    1.369   .     S
C644   H647    1.082   .     S
C644   C690    1.369   .     S
H649   O656    1.014   .     S
H650   O658    1.014   .     S
H651   O660    1.014   .     S
H652   O662    1.014   .     S
N653   Zn671   2.032   .     S
N654   Zn672   2.032   .     S
O655   Zn671   2.003   .     S
O663   Zn672   2.003   .     S
O664   Zn671   2.002   .     S
O665   Zn672   2.002   .     S
O666   Zn671   1.947   .     S
O667   Zn672   1.947   .     S
O668   Zn671   1.948   .     S
O669   Zn672   1.948   .     S
C673   C676    1.423   .     S
C673   O713    1.292   .     A
C673   O703    1.293   .     A
C674   C676    1.397   .     A
C674   H696    1.082   .     S
C675   C691    1.397   .     A
C675   C692    1.397   .     A
C675   C684    1.423   .     S
C676   C690    1.397   .     A
C677   C681    1.473   .     S
C677   N702    1.373   .     A
C678   C682    1.473   .     S
C678   N701    1.373   .     A
C678   C823    1.429   .     S
C679   N702    1.373   .     A
C679   C683    1.473   .     S
C680   C685    1.473   .     S
C680   N701    1.373   .     A
C680   C821    1.429   .     S
C681   O718    1.220   .     D
C681   O704    1.397   .     S
C682   O705    1.220   .     D
C682   O706    1.397   .     S
C683   O707    1.222   .     D
C683   O708    1.395   .     S
C684   O711    1.293   .     A
C684   O712    1.292   .     A
C685   O709    1.222   .     D
C685   O710    1.395   .     S
C686   O714    1.285   .     A
C686   O717    1.285   .     A
C686   C688    1.366   .     S
C687   O715    1.285   .     A
C687   O716    1.285   .     A
C687   C689    1.366   .     S
C689   C1120   1.165   .     S
C690   H693    1.083   .     S
C691   H694    1.083   .     S
C691   C578    1.369   1_655 S
C692   H695    1.082   .     S
C692   C594    1.369   1_655 S
H697   O704    1.014   .     S
H698   O706    1.014   .     S
H699   O708    1.014   .     S
H700   O710    1.014   .     S
N701   Zn719   2.032   .     S
N702   Zn720   2.032   .     S
O703   Zn719   2.003   .     S
O711   Zn720   2.003   .     S
O712   Zn719   2.002   .     S
O713   Zn720   2.002   .     S
O714   Zn719   1.947   .     S
O715   Zn720   1.947   .     S
O716   Zn719   1.948   .     S
O717   Zn720   1.948   .     S
C721   C724    1.423   .     S
C721   O761    1.292   .     A
C721   O751    1.293   .     A
C722   C724    1.397   .     A
C722   H744    1.082   .     S
C722   C835    1.369   1_455 S
C723   C739    1.397   .     A
C723   C740    1.397   .     A
C723   C732    1.423   .     S
C724   C738    1.397   .     A
C725   C729    1.473   .     S
C725   N750    1.373   .     A
C726   C730    1.473   .     S
C726   N749    1.373   .     A
C726   C439    1.429   1_565 S
C727   N750    1.373   .     A
C727   C731    1.473   .     S
C728   C733    1.473   .     S
C728   N749    1.373   .     A
C728   C437    1.429   1_565 S
C729   O766    1.220   .     D
C729   O752    1.397   .     S
C730   O753    1.220   .     D
C730   O754    1.397   .     S
C731   O755    1.222   .     D
C731   O756    1.395   .     S
C732   O759    1.293   .     A
C732   O760    1.292   .     A
C733   O757    1.222   .     D
C733   O758    1.395   .     S
C734   O762    1.285   .     A
C734   O765    1.285   .     A
C734   C736    1.366   .     S
C735   O763    1.285   .     A
C735   O764    1.285   .     A
C735   C737    1.366   .     S
C737   C1168   1.165   .     S
C738   H741    1.083   .     S
C738   C836    1.369   1_455 S
C739   H742    1.083   .     S
C739   C770    1.369   .     S
C740   H743    1.082   .     S
C740   C786    1.369   .     S
H745   O752    1.014   .     S
H746   O754    1.014   .     S
H747   O756    1.014   .     S
H748   O758    1.014   .     S
N749   Zn767   2.032   .     S
N750   Zn768   2.032   .     S
O751   Zn767   2.003   .     S
O759   Zn768   2.003   .     S
O760   Zn767   2.002   .     S
O761   Zn768   2.002   .     S
O762   Zn767   1.947   .     S
O763   Zn768   1.947   .     S
O764   Zn767   1.948   .     S
O765   Zn768   1.948   .     S
C769   C772    1.423   .     S
C769   O809    1.292   .     A
C769   O799    1.293   .     A
C770   C772    1.397   .     A
C770   H792    1.082   .     S
C771   C787    1.397   .     A
C771   C788    1.397   .     A
C771   C780    1.423   .     S
C772   C786    1.397   .     A
C773   C777    1.473   .     S
C773   N798    1.373   .     A
C774   C778    1.473   .     S
C774   N797    1.373   .     A
C774   C487    1.429   1_565 S
C775   N798    1.373   .     A
C775   C779    1.473   .     S
C776   C781    1.473   .     S
C776   N797    1.373   .     A
C776   C485    1.429   1_565 S
C777   O814    1.220   .     D
C777   O800    1.397   .     S
C778   O801    1.220   .     D
C778   O802    1.397   .     S
C779   O803    1.222   .     D
C779   O804    1.395   .     S
C780   O807    1.293   .     A
C780   O808    1.292   .     A
C781   O805    1.222   .     D
C781   O806    1.395   .     S
C782   O810    1.285   .     A
C782   O813    1.285   .     A
C782   C784    1.366   .     S
C783   O811    1.285   .     A
C783   O812    1.285   .     A
C783   C785    1.366   .     S
C785   C1216   1.165   .     S
C786   H789    1.083   .     S
C787   H790    1.083   .     S
C787   C818    1.369   .     S
C788   H791    1.082   .     S
C788   C834    1.369   .     S
H793   O800    1.014   .     S
H794   O802    1.014   .     S
H795   O804    1.014   .     S
H796   O806    1.014   .     S
N797   Zn815   2.032   .     S
N798   Zn816   2.032   .     S
O799   Zn815   2.003   .     S
O807   Zn816   2.003   .     S
O808   Zn815   2.002   .     S
O809   Zn816   2.002   .     S
O810   Zn815   1.947   .     S
O811   Zn816   1.947   .     S
O812   Zn815   1.948   .     S
O813   Zn816   1.948   .     S
C817   C820    1.423   .     S
C817   O857    1.292   .     A
C817   O847    1.293   .     A
C818   C820    1.397   .     A
C818   H840    1.082   .     S
C819   C835    1.397   .     A
C819   C836    1.397   .     A
C819   C828    1.423   .     S
C820   C834    1.397   .     A
C821   C825    1.473   .     S
C821   N846    1.373   .     A
C822   C826    1.473   .     S
C822   N845    1.373   .     A
C822   C535    1.429   1_565 S
C823   N846    1.373   .     A
C823   C827    1.473   .     S
C824   C829    1.473   .     S
C824   N845    1.373   .     A
C824   C533    1.429   1_565 S
C825   O862    1.220   .     D
C825   O848    1.397   .     S
C826   O849    1.220   .     D
C826   O850    1.397   .     S
C827   O851    1.222   .     D
C827   O852    1.395   .     S
C828   O855    1.293   .     A
C828   O856    1.292   .     A
C829   O853    1.222   .     D
C829   O854    1.395   .     S
C830   O858    1.285   .     A
C830   O861    1.285   .     A
C830   C832    1.366   .     S
C831   O859    1.285   .     A
C831   O860    1.285   .     A
C831   C833    1.366   .     S
C833   C1264   1.165   .     S
C834   H837    1.083   .     S
C835   H838    1.083   .     S
C835   C722    1.369   1_655 S
C836   H839    1.082   .     S
C836   C738    1.369   1_655 S
H841   O848    1.014   .     S
H842   O850    1.014   .     S
H843   O852    1.014   .     S
H844   O854    1.014   .     S
N845   Zn863   2.032   .     S
N846   Zn864   2.032   .     S
O847   Zn863   2.003   .     S
O855   Zn864   2.003   .     S
O856   Zn863   2.002   .     S
O857   Zn864   2.002   .     S
O858   Zn863   1.947   .     S
O859   Zn864   1.947   .     S
O860   Zn863   1.948   .     S
O861   Zn864   1.948   .     S
C865   C868    1.423   .     S
C865   O905    1.292   .     A
C865   O895    1.293   .     A
C866   C868    1.397   .     A
C866   H888    1.082   .     S
C866   C979    1.369   1_455 S
C867   C883    1.397   .     A
C867   C884    1.397   .     A
C867   C876    1.423   .     S
C868   C882    1.397   .     A
C869   C873    1.473   .     S
C869   N894    1.373   .     A
C869   C1160   1.429   1_545 S
C870   C874    1.473   .     S
C870   N893    1.373   .     A
C870   C1015   1.429   .     S
C871   N894    1.373   .     A
C871   C875    1.473   .     S
C871   C1158   1.429   1_545 S
C872   C877    1.473   .     S
C872   N893    1.373   .     A
C872   C1013   1.429   .     S
C873   O910    1.220   .     D
C873   O896    1.397   .     S
C874   O897    1.220   .     D
C874   O898    1.397   .     S
C875   O899    1.222   .     D
C875   O900    1.395   .     S
C876   O903    1.293   .     A
C876   O904    1.292   .     A
C877   O901    1.222   .     D
C877   O902    1.395   .     S
C878   O906    1.285   .     A
C878   O909    1.285   .     A
C878   C880    1.366   .     S
C879   O907    1.285   .     A
C879   O908    1.285   .     A
C879   C881    1.366   .     S
C881   C16     1.165   1_556 S
C882   H885    1.083   .     S
C882   C980    1.369   1_455 S
C883   H886    1.083   .     S
C883   C914    1.369   .     S
C884   H887    1.082   .     S
C884   C930    1.369   .     S
H889   O896    1.014   .     S
H890   O898    1.014   .     S
H891   O900    1.014   .     S
H892   O902    1.014   .     S
N893   Zn911   2.032   .     S
N894   Zn912   2.032   .     S
O895   Zn911   2.003   .     S
O903   Zn912   2.003   .     S
O904   Zn911   2.002   .     S
O905   Zn912   2.002   .     S
O906   Zn911   1.947   .     S
O907   Zn912   1.947   .     S
O908   Zn911   1.948   .     S
O909   Zn912   1.948   .     S
C913   C916    1.423   .     S
C913   O953    1.292   .     A
C913   O943    1.293   .     A
C914   C916    1.397   .     A
C914   H936    1.082   .     S
C915   C931    1.397   .     A
C915   C932    1.397   .     A
C915   C924    1.423   .     S
C916   C930    1.397   .     A
C917   C921    1.473   .     S
C917   N942    1.373   .     A
C917   C1208   1.429   1_545 S
C918   C922    1.473   .     S
C918   N941    1.373   .     A
C918   C1063   1.429   .     S
C919   N942    1.373   .     A
C919   C923    1.473   .     S
C919   C1206   1.429   1_545 S
C920   C925    1.473   .     S
C920   N941    1.373   .     A
C920   C1061   1.429   .     S
C921   O958    1.220   .     D
C921   O944    1.397   .     S
C922   O945    1.220   .     D
C922   O946    1.397   .     S
C923   O947    1.222   .     D
C923   O948    1.395   .     S
C924   O951    1.293   .     A
C924   O952    1.292   .     A
C925   O949    1.222   .     D
C925   O950    1.395   .     S
C926   O954    1.285   .     A
C926   O957    1.285   .     A
C926   C928    1.366   .     S
C927   O955    1.285   .     A
C927   O956    1.285   .     A
C927   C929    1.366   .     S
C929   C64     1.165   1_556 S
C930   H933    1.083   .     S
C931   H934    1.083   .     S
C931   C962    1.369   .     S
C932   H935    1.082   .     S
C932   C978    1.369   .     S
H937   O944    1.014   .     S
H938   O946    1.014   .     S
H939   O948    1.014   .     S
H940   O950    1.014   .     S
N941   Zn959   2.032   .     S
N942   Zn960   2.032   .     S
O943   Zn959   2.003   .     S
O951   Zn960   2.003   .     S
O952   Zn959   2.002   .     S
O953   Zn960   2.002   .     S
O954   Zn959   1.947   .     S
O955   Zn960   1.947   .     S
O956   Zn959   1.948   .     S
O957   Zn960   1.948   .     S
C961   C964    1.423   .     S
C961   O1001   1.292   .     A
C961   O991    1.293   .     A
C962   C964    1.397   .     A
C962   H984    1.082   .     S
C963   C979    1.397   .     A
C963   C980    1.397   .     A
C963   C972    1.423   .     S
C964   C978    1.397   .     A
C965   C969    1.473   .     S
C965   N990    1.373   .     A
C965   C1256   1.429   1_545 S
C966   C970    1.473   .     S
C966   N989    1.373   .     A
C966   C1111   1.429   .     S
C967   N990    1.373   .     A
C967   C971    1.473   .     S
C967   C1254   1.429   1_545 S
C968   C973    1.473   .     S
C968   N989    1.373   .     A
C968   C1109   1.429   .     S
C969   O1006   1.220   .     D
C969   O992    1.397   .     S
C970   O993    1.220   .     D
C970   O994    1.397   .     S
C971   O995    1.222   .     D
C971   O996    1.395   .     S
C972   O999    1.293   .     A
C972   O1000   1.292   .     A
C973   O997    1.222   .     D
C973   O998    1.395   .     S
C974   O1002   1.285   .     A
C974   O1005   1.285   .     A
C974   C976    1.366   .     S
C975   O1003   1.285   .     A
C975   O1004   1.285   .     A
C975   C977    1.366   .     S
C977   C112    1.165   1_556 S
C978   H981    1.083   .     S
C979   H982    1.083   .     S
C979   C866    1.369   1_655 S
C980   H983    1.082   .     S
C980   C882    1.369   1_655 S
H985   O992    1.014   .     S
H986   O994    1.014   .     S
H987   O996    1.014   .     S
H988   O998    1.014   .     S
N989   Zn1007  2.032   .     S
N990   Zn1008  2.032   .     S
O991   Zn1007  2.003   .     S
O999   Zn1008  2.003   .     S
O1000  Zn1007  2.002   .     S
O1001  Zn1008  2.002   .     S
O1002  Zn1007  1.947   .     S
O1003  Zn1008  1.947   .     S
O1004  Zn1007  1.948   .     S
O1005  Zn1008  1.948   .     S
C1009  C1012   1.423   .     S
C1009  O1049   1.292   .     A
C1009  O1039   1.293   .     A
C1010  C1012   1.397   .     A
C1010  H1032   1.082   .     S
C1010  C1123   1.369   1_455 S
C1011  C1027   1.397   .     A
C1011  C1028   1.397   .     A
C1011  C1020   1.423   .     S
C1012  C1026   1.397   .     A
C1013  C1017   1.473   .     S
C1013  N1038   1.373   .     A
C1014  C1018   1.473   .     S
C1014  N1037   1.373   .     A
C1014  C1159   1.429   .     S
C1015  N1038   1.373   .     A
C1015  C1019   1.473   .     S
C1016  C1021   1.473   .     S
C1016  N1037   1.373   .     A
C1016  C1157   1.429   .     S
C1017  O1054   1.220   .     D
C1017  O1040   1.397   .     S
C1018  O1041   1.220   .     D
C1018  O1042   1.397   .     S
C1019  O1043   1.222   .     D
C1019  O1044   1.395   .     S
C1020  O1047   1.293   .     A
C1020  O1048   1.292   .     A
C1021  O1045   1.222   .     D
C1021  O1046   1.395   .     S
C1022  O1050   1.285   .     A
C1022  O1053   1.285   .     A
C1022  C1024   1.366   .     S
C1023  O1051   1.285   .     A
C1023  O1052   1.285   .     A
C1023  C1025   1.366   .     S
C1025  C160    1.165   1_556 S
C1026  H1029   1.083   .     S
C1026  C1124   1.369   1_455 S
C1027  H1030   1.083   .     S
C1027  C1058   1.369   .     S
C1028  H1031   1.082   .     S
C1028  C1074   1.369   .     S
H1033  O1040   1.014   .     S
H1034  O1042   1.014   .     S
H1035  O1044   1.014   .     S
H1036  O1046   1.014   .     S
N1037  Zn1055  2.032   .     S
N1038  Zn1056  2.032   .     S
O1039  Zn1055  2.003   .     S
O1047  Zn1056  2.003   .     S
O1048  Zn1055  2.002   .     S
O1049  Zn1056  2.002   .     S
O1050  Zn1055  1.947   .     S
O1051  Zn1056  1.947   .     S
O1052  Zn1055  1.948   .     S
O1053  Zn1056  1.948   .     S
C1057  C1060   1.423   .     S
C1057  O1097   1.292   .     A
C1057  O1087   1.293   .     A
C1058  C1060   1.397   .     A
C1058  H1080   1.082   .     S
C1059  C1075   1.397   .     A
C1059  C1076   1.397   .     A
C1059  C1068   1.423   .     S
C1060  C1074   1.397   .     A
C1061  C1065   1.473   .     S
C1061  N1086   1.373   .     A
C1062  C1066   1.473   .     S
C1062  N1085   1.373   .     A
C1062  C1207   1.429   .     S
C1063  N1086   1.373   .     A
C1063  C1067   1.473   .     S
C1064  C1069   1.473   .     S
C1064  N1085   1.373   .     A
C1064  C1205   1.429   .     S
C1065  O1102   1.220   .     D
C1065  O1088   1.397   .     S
C1066  O1089   1.220   .     D
C1066  O1090   1.397   .     S
C1067  O1091   1.222   .     D
C1067  O1092   1.395   .     S
C1068  O1095   1.293   .     A
C1068  O1096   1.292   .     A
C1069  O1093   1.222   .     D
C1069  O1094   1.395   .     S
C1070  O1098   1.285   .     A
C1070  O1101   1.285   .     A
C1070  C1072   1.366   .     S
C1071  O1099   1.285   .     A
C1071  O1100   1.285   .     A
C1071  C1073   1.366   .     S
C1073  C208    1.165   1_556 S
C1074  H1077   1.083   .     S
C1075  H1078   1.083   .     S
C1075  C1106   1.369   .     S
C1076  H1079   1.082   .     S
C1076  C1122   1.369   .     S
H1081  O1088   1.014   .     S
H1082  O1090   1.014   .     S
H1083  O1092   1.014   .     S
H1084  O1094   1.014   .     S
N1085  Zn1103  2.032   .     S
N1086  Zn1104  2.032   .     S
O1087  Zn1103  2.003   .     S
O1095  Zn1104  2.003   .     S
O1096  Zn1103  2.002   .     S
O1097  Zn1104  2.002   .     S
O1098  Zn1103  1.947   .     S
O1099  Zn1104  1.947   .     S
O1100  Zn1103  1.948   .     S
O1101  Zn1104  1.948   .     S
C1105  C1108   1.423   .     S
C1105  O1145   1.292   .     A
C1105  O1135   1.293   .     A
C1106  C1108   1.397   .     A
C1106  H1128   1.082   .     S
C1107  C1123   1.397   .     A
C1107  C1124   1.397   .     A
C1107  C1116   1.423   .     S
C1108  C1122   1.397   .     A
C1109  C1113   1.473   .     S
C1109  N1134   1.373   .     A
C1110  C1114   1.473   .     S
C1110  N1133   1.373   .     A
C1110  C1255   1.429   .     S
C1111  N1134   1.373   .     A
C1111  C1115   1.473   .     S
C1112  C1117   1.473   .     S
C1112  N1133   1.373   .     A
C1112  C1253   1.429   .     S
C1113  O1150   1.220   .     D
C1113  O1136   1.397   .     S
C1114  O1137   1.220   .     D
C1114  O1138   1.397   .     S
C1115  O1139   1.222   .     D
C1115  O1140   1.395   .     S
C1116  O1143   1.293   .     A
C1116  O1144   1.292   .     A
C1117  O1141   1.222   .     D
C1117  O1142   1.395   .     S
C1118  O1146   1.285   .     A
C1118  O1149   1.285   .     A
C1118  C1120   1.366   .     S
C1119  O1147   1.285   .     A
C1119  O1148   1.285   .     A
C1119  C1121   1.366   .     S
C1121  C256    1.165   1_556 S
C1122  H1125   1.083   .     S
C1123  H1126   1.083   .     S
C1123  C1010   1.369   1_655 S
C1124  H1127   1.082   .     S
C1124  C1026   1.369   1_655 S
H1129  O1136   1.014   .     S
H1130  O1138   1.014   .     S
H1131  O1140   1.014   .     S
H1132  O1142   1.014   .     S
N1133  Zn1151  2.032   .     S
N1134  Zn1152  2.032   .     S
O1135  Zn1151  2.003   .     S
O1143  Zn1152  2.003   .     S
O1144  Zn1151  2.002   .     S
O1145  Zn1152  2.002   .     S
O1146  Zn1151  1.947   .     S
O1147  Zn1152  1.947   .     S
O1148  Zn1151  1.948   .     S
O1149  Zn1152  1.948   .     S
C1153  C1156   1.423   .     S
C1153  O1193   1.292   .     A
C1153  O1183   1.293   .     A
C1154  C1156   1.397   .     A
C1154  H1176   1.082   .     S
C1154  C1267   1.369   1_455 S
C1155  C1171   1.397   .     A
C1155  C1172   1.397   .     A
C1155  C1164   1.423   .     S
C1156  C1170   1.397   .     A
C1157  C1161   1.473   .     S
C1157  N1182   1.373   .     A
C1158  C1162   1.473   .     S
C1158  N1181   1.373   .     A
C1158  C871    1.429   1_565 S
C1159  N1182   1.373   .     A
C1159  C1163   1.473   .     S
C1160  C1165   1.473   .     S
C1160  N1181   1.373   .     A
C1160  C869    1.429   1_565 S
C1161  O1198   1.220   .     D
C1161  O1184   1.397   .     S
C1162  O1185   1.220   .     D
C1162  O1186   1.397   .     S
C1163  O1187   1.222   .     D
C1163  O1188   1.395   .     S
C1164  O1191   1.293   .     A
C1164  O1192   1.292   .     A
C1165  O1189   1.222   .     D
C1165  O1190   1.395   .     S
C1166  O1194   1.285   .     A
C1166  O1197   1.285   .     A
C1166  C1168   1.366   .     S
C1167  O1195   1.285   .     A
C1167  O1196   1.285   .     A
C1167  C1169   1.366   .     S
C1169  C304    1.165   1_556 S
C1170  H1173   1.083   .     S
C1170  C1268   1.369   1_455 S
C1171  H1174   1.083   .     S
C1171  C1202   1.369   .     S
C1172  H1175   1.082   .     S
C1172  C1218   1.369   .     S
H1177  O1184   1.014   .     S
H1178  O1186   1.014   .     S
H1179  O1188   1.014   .     S
H1180  O1190   1.014   .     S
N1181  Zn1199  2.032   .     S
N1182  Zn1200  2.032   .     S
O1183  Zn1199  2.003   .     S
O1191  Zn1200  2.003   .     S
O1192  Zn1199  2.002   .     S
O1193  Zn1200  2.002   .     S
O1194  Zn1199  1.947   .     S
O1195  Zn1200  1.947   .     S
O1196  Zn1199  1.948   .     S
O1197  Zn1200  1.948   .     S
C1201  C1204   1.423   .     S
C1201  O1241   1.292   .     A
C1201  O1231   1.293   .     A
C1202  C1204   1.397   .     A
C1202  H1224   1.082   .     S
C1203  C1219   1.397   .     A
C1203  C1220   1.397   .     A
C1203  C1212   1.423   .     S
C1204  C1218   1.397   .     A
C1205  C1209   1.473   .     S
C1205  N1230   1.373   .     A
C1206  C1210   1.473   .     S
C1206  N1229   1.373   .     A
C1206  C919    1.429   1_565 S
C1207  N1230   1.373   .     A
C1207  C1211   1.473   .     S
C1208  C1213   1.473   .     S
C1208  N1229   1.373   .     A
C1208  C917    1.429   1_565 S
C1209  O1246   1.220   .     D
C1209  O1232   1.397   .     S
C1210  O1233   1.220   .     D
C1210  O1234   1.397   .     S
C1211  O1235   1.222   .     D
C1211  O1236   1.395   .     S
C1212  O1239   1.293   .     A
C1212  O1240   1.292   .     A
C1213  O1237   1.222   .     D
C1213  O1238   1.395   .     S
C1214  O1242   1.285   .     A
C1214  O1245   1.285   .     A
C1214  C1216   1.366   .     S
C1215  O1243   1.285   .     A
C1215  O1244   1.285   .     A
C1215  C1217   1.366   .     S
C1217  C352    1.165   1_556 S
C1218  H1221   1.083   .     S
C1219  H1222   1.083   .     S
C1219  C1250   1.369   .     S
C1220  H1223   1.082   .     S
C1220  C1266   1.369   .     S
H1225  O1232   1.014   .     S
H1226  O1234   1.014   .     S
H1227  O1236   1.014   .     S
H1228  O1238   1.014   .     S
N1229  Zn1247  2.032   .     S
N1230  Zn1248  2.032   .     S
O1231  Zn1247  2.003   .     S
O1239  Zn1248  2.003   .     S
O1240  Zn1247  2.002   .     S
O1241  Zn1248  2.002   .     S
O1242  Zn1247  1.947   .     S
O1243  Zn1248  1.947   .     S
O1244  Zn1247  1.948   .     S
O1245  Zn1248  1.948   .     S
C1249  C1252   1.423   .     S
C1249  O1289   1.292   .     A
C1249  O1279   1.293   .     A
C1250  C1252   1.397   .     A
C1250  H1272   1.082   .     S
C1251  C1267   1.397   .     A
C1251  C1268   1.397   .     A
C1251  C1260   1.423   .     S
C1252  C1266   1.397   .     A
C1253  C1257   1.473   .     S
C1253  N1278   1.373   .     A
C1254  C1258   1.473   .     S
C1254  N1277   1.373   .     A
C1254  C967    1.429   1_565 S
C1255  N1278   1.373   .     A
C1255  C1259   1.473   .     S
C1256  C1261   1.473   .     S
C1256  N1277   1.373   .     A
C1256  C965    1.429   1_565 S
C1257  O1294   1.220   .     D
C1257  O1280   1.397   .     S
C1258  O1281   1.220   .     D
C1258  O1282   1.397   .     S
C1259  O1283   1.222   .     D
C1259  O1284   1.395   .     S
C1260  O1287   1.293   .     A
C1260  O1288   1.292   .     A
C1261  O1285   1.222   .     D
C1261  O1286   1.395   .     S
C1262  O1290   1.285   .     A
C1262  O1293   1.285   .     A
C1262  C1264   1.366   .     S
C1263  O1291   1.285   .     A
C1263  O1292   1.285   .     A
C1263  C1265   1.366   .     S
C1265  C400    1.165   1_556 S
C1266  H1269   1.083   .     S
C1267  H1270   1.083   .     S
C1267  C1154   1.369   1_655 S
C1268  H1271   1.082   .     S
C1268  C1170   1.369   1_655 S
H1273  O1280   1.014   .     S
H1274  O1282   1.014   .     S
H1275  O1284   1.014   .     S
H1276  O1286   1.014   .     S
N1277  Zn1295  2.032   .     S
N1278  Zn1296  2.032   .     S
O1279  Zn1295  2.003   .     S
O1287  Zn1296  2.003   .     S
O1288  Zn1295  2.002   .     S
O1289  Zn1296  2.002   .     S
O1290  Zn1295  1.947   .     S
O1291  Zn1296  1.947   .     S
O1292  Zn1295  1.948   .     S
O1293  Zn1296  1.948   .     S
