data_str_m1_o10_o18_pcu_sym.31
_audit_creation_date              2020-01-03
_audit_creation_method            'Materials Studio'
_symmetry_space_group_name_H-M    'P1'
_symmetry_Int_Tables_number       1
_symmetry_cell_setting            triclinic
loop_
_symmetry_equiv_pos_as_xyz
  x,y,z
_cell_length_a                    32.6969
_cell_length_b                    32.6565
_cell_length_c                    35.3208
_cell_angle_alpha                 98.1338
_cell_angle_beta                  72.9857
_cell_angle_gamma                 98.1427
loop_
_atom_site_label
_atom_site_type_symbol
_atom_site_fract_x
_atom_site_fract_y
_atom_site_fract_z
_atom_site_U_iso_or_equiv
_atom_site_adp_type
_atom_site_occupancy
C1     C     0.05276   0.16017   0.25882   0.00000  Uiso   1.00
C2     C     0.18945   0.11431   0.45730   0.00000  Uiso   1.00
C3     C     0.21487   0.09888   0.47705   0.00000  Uiso   1.00
C4     C     0.28101   0.17333   0.24133   0.00000  Uiso   1.00
C5     C     0.21071   0.11199   0.01813   0.00000  Uiso   1.00
C6     C     0.17557   0.13514   0.03998   0.00000  Uiso   1.00
C7     C     0.23920   0.10241   0.03881   0.00000  Uiso   1.00
C8     C     0.23058   0.11270   0.07994   0.00000  Uiso   1.00
C9     C     0.17216   0.15067   0.08032   0.00000  Uiso   1.00
C10    C     0.32679   0.17389   0.23695   0.00000  Uiso   1.00
C11    C     0.00761   0.15821   0.26368   0.00000  Uiso   1.00
C12    C     0.08540   0.19617   0.42142   0.00000  Uiso   1.00
C13    C     0.18000   0.32207   0.23897   0.00000  Uiso   1.00
C14    C     0.15087   0.01298   0.26320   0.00000  Uiso   1.00
C15    C     0.15640   0.05631   0.25866   0.00000  Uiso   1.00
C16    C     0.17662   0.27767   0.24157   0.00000  Uiso   1.00
C17    C     0.18802   0.14554   0.14384   0.00000  Uiso   1.00
C18    C     0.14450   0.18699   0.35665   0.00000  Uiso   1.00
C19    C     0.12792   0.18784   0.40061   0.00000  Uiso   1.00
C20    C     0.19713   0.13631   0.10061   0.00000  Uiso   1.00
C21    C     0.06881   0.18978   0.46165   0.00000  Uiso   1.00
C22    C     0.15319   0.17411   0.42124   0.00000  Uiso   1.00
C23    C     0.13492   0.16194   0.45992   0.00000  Uiso   1.00
C24    C     0.09296   0.17229   0.48137   0.00000  Uiso   1.00
C25    C     0.15830   0.14146   0.47853   0.00000  Uiso   1.00
C26    C     0.14604   0.14375   0.02034   0.00000  Uiso   1.00
C27    C     0.10296   0.15009   0.04067   0.00000  Uiso   1.00
C28    C     0.07644   0.16394   0.02159   0.00000  Uiso   1.00
Cl29   Cl    0.02303   0.17037   0.05017   0.00000  Uiso   1.00
Cl30   Cl    0.28834   0.08100   0.01597   0.00000  Uiso   1.00
Cl31   Cl    0.03002   0.19510   0.19479   0.00000  Uiso   1.00
Cl32   Cl    0.30856   0.13998   0.30903   0.00000  Uiso   1.00
Cl33   Cl    0.10464   0.32997   0.30085   0.00000  Uiso   1.00
Cl34   Cl    0.14432   0.19453   0.10386   0.00000  Uiso   1.00
Cl35   Cl    0.24786   0.06003   0.44959   0.00000  Uiso   1.00
Cl36   Cl    0.05060   0.21363   0.39856   0.00000  Uiso   1.00
Cl37   Cl    0.18892   0.09030   0.40896   0.00000  Uiso   1.00
F38    F     0.21396   0.00572   0.21094   0.00000  Uiso   1.00
F39    F     0.25620   0.10112   0.09985   0.00000  Uiso   1.00
F40    F     0.02850   0.20000   0.48062   0.00000  Uiso   1.00
F41    F     0.19634   0.17493   0.40418   0.00000  Uiso   1.00
F42    F     0.08488   0.13801   0.07777   0.00000  Uiso   1.00
O43    O     0.16667   0.16667   0.25000   0.00000  Uiso   1.00
O44    O     0.15693   0.12393   0.16625   0.00000  Uiso   1.00
O45    O     0.12687   0.20646   0.33749   0.00000  Uiso   1.00
O46    O     0.21088   0.17493   0.15877   0.00000  Uiso   1.00
O47    O     0.17198   0.16135   0.33749   0.00000  Uiso   1.00
O48    O     0.17849   0.08101   0.27820   0.00000  Uiso   1.00
O49    O     0.14581   0.26136   0.26767   0.00000  Uiso   1.00
O50    O     0.07452   0.13251   0.23607   0.00000  Uiso   1.00
O51    O     0.26785   0.19179   0.21805   0.00000  Uiso   1.00
O52    O     0.06990   0.18960   0.27820   0.00000  Uiso   1.00
O53    O     0.25440   0.15277   0.26767   0.00000  Uiso   1.00
O54    O     0.13800   0.06903   0.23607   0.00000  Uiso   1.00
O55    O     0.20437   0.25527   0.21805   0.00000  Uiso   1.00
Zn56   Zn    0.19244   0.14090   0.28277   0.00000  Uiso   1.00
Zn57   Zn    0.13459   0.12378   0.22257   0.00000  Uiso   1.00
Zn58   Zn    0.21166   0.19664   0.21188   0.00000  Uiso   1.00
Zn59   Zn    0.12798   0.20535   0.28277   0.00000  Uiso   1.00
C60    C     0.38609   0.16017   0.25882   0.00000  Uiso   1.00
C61    C     0.52278   0.11431   0.45730   0.00000  Uiso   1.00
C62    C     0.54820   0.09888   0.47705   0.00000  Uiso   1.00
C63    C     0.61434   0.17333   0.24133   0.00000  Uiso   1.00
C64    C     0.54404   0.11199   0.01813   0.00000  Uiso   1.00
C65    C     0.50890   0.13514   0.03998   0.00000  Uiso   1.00
C66    C     0.57254   0.10241   0.03881   0.00000  Uiso   1.00
C67    C     0.56391   0.11270   0.07994   0.00000  Uiso   1.00
C68    C     0.50549   0.15067   0.08032   0.00000  Uiso   1.00
C69    C     0.66013   0.17389   0.23695   0.00000  Uiso   1.00
C70    C     0.34094   0.15821   0.26368   0.00000  Uiso   1.00
C71    C     0.41874   0.19617   0.42142   0.00000  Uiso   1.00
C72    C     0.51333   0.32207   0.23897   0.00000  Uiso   1.00
C73    C     0.48420   0.01298   0.26320   0.00000  Uiso   1.00
C74    C     0.48974   0.05631   0.25866   0.00000  Uiso   1.00
C75    C     0.50996   0.27767   0.24157   0.00000  Uiso   1.00
C76    C     0.52135   0.14554   0.14384   0.00000  Uiso   1.00
C77    C     0.47784   0.18699   0.35665   0.00000  Uiso   1.00
C78    C     0.46126   0.18784   0.40061   0.00000  Uiso   1.00
C79    C     0.53046   0.13631   0.10061   0.00000  Uiso   1.00
C80    C     0.40215   0.18978   0.46165   0.00000  Uiso   1.00
C81    C     0.48652   0.17411   0.42124   0.00000  Uiso   1.00
C82    C     0.46826   0.16194   0.45992   0.00000  Uiso   1.00
C83    C     0.42629   0.17229   0.48137   0.00000  Uiso   1.00
C84    C     0.49163   0.14146   0.47853   0.00000  Uiso   1.00
C85    C     0.47937   0.14375   0.02034   0.00000  Uiso   1.00
C86    C     0.43629   0.15009   0.04067   0.00000  Uiso   1.00
C87    C     0.40977   0.16394   0.02159   0.00000  Uiso   1.00
Cl88   Cl    0.35636   0.17037   0.05017   0.00000  Uiso   1.00
Cl89   Cl    0.62168   0.08100   0.01597   0.00000  Uiso   1.00
Cl90   Cl    0.36335   0.19510   0.19479   0.00000  Uiso   1.00
Cl91   Cl    0.64189   0.13998   0.30903   0.00000  Uiso   1.00
Cl92   Cl    0.43797   0.32997   0.30085   0.00000  Uiso   1.00
Cl93   Cl    0.47765   0.19453   0.10386   0.00000  Uiso   1.00
Cl94   Cl    0.58119   0.06003   0.44959   0.00000  Uiso   1.00
Cl95   Cl    0.38394   0.21363   0.39856   0.00000  Uiso   1.00
Cl96   Cl    0.52225   0.09030   0.40896   0.00000  Uiso   1.00
F97    F     0.54729   0.00572   0.21094   0.00000  Uiso   1.00
F98    F     0.58953   0.10112   0.09985   0.00000  Uiso   1.00
F99    F     0.36183   0.20000   0.48062   0.00000  Uiso   1.00
F100   F     0.52967   0.17493   0.40418   0.00000  Uiso   1.00
F101   F     0.41822   0.13801   0.07777   0.00000  Uiso   1.00
O102   O     0.50000   0.16667   0.25000   0.00000  Uiso   1.00
O103   O     0.49027   0.12393   0.16625   0.00000  Uiso   1.00
O104   O     0.46020   0.20646   0.33749   0.00000  Uiso   1.00
O105   O     0.54421   0.17493   0.15877   0.00000  Uiso   1.00
O106   O     0.50532   0.16135   0.33749   0.00000  Uiso   1.00
O107   O     0.51182   0.08101   0.27820   0.00000  Uiso   1.00
O108   O     0.47914   0.26136   0.26767   0.00000  Uiso   1.00
O109   O     0.40785   0.13251   0.23607   0.00000  Uiso   1.00
O110   O     0.60119   0.19179   0.21805   0.00000  Uiso   1.00
O111   O     0.40323   0.18960   0.27820   0.00000  Uiso   1.00
O112   O     0.58773   0.15277   0.26767   0.00000  Uiso   1.00
O113   O     0.47133   0.06903   0.23607   0.00000  Uiso   1.00
O114   O     0.53771   0.25527   0.21805   0.00000  Uiso   1.00
Zn115  Zn    0.52577   0.14090   0.28277   0.00000  Uiso   1.00
Zn116  Zn    0.46792   0.12378   0.22257   0.00000  Uiso   1.00
Zn117  Zn    0.54500   0.19664   0.21188   0.00000  Uiso   1.00
Zn118  Zn    0.46131   0.20535   0.28277   0.00000  Uiso   1.00
C119   C     0.71943   0.16017   0.25882   0.00000  Uiso   1.00
C120   C     0.85612   0.11431   0.45730   0.00000  Uiso   1.00
C121   C     0.88153   0.09888   0.47705   0.00000  Uiso   1.00
C122   C     0.94768   0.17333   0.24133   0.00000  Uiso   1.00
C123   C     0.87737   0.11199   0.01813   0.00000  Uiso   1.00
C124   C     0.84223   0.13514   0.03998   0.00000  Uiso   1.00
C125   C     0.90587   0.10241   0.03881   0.00000  Uiso   1.00
C126   C     0.89724   0.11270   0.07994   0.00000  Uiso   1.00
C127   C     0.83882   0.15067   0.08032   0.00000  Uiso   1.00
C128   C     0.99346   0.17389   0.23695   0.00000  Uiso   1.00
C129   C     0.67427   0.15821   0.26368   0.00000  Uiso   1.00
C130   C     0.75207   0.19617   0.42142   0.00000  Uiso   1.00
C131   C     0.84667   0.32207   0.23897   0.00000  Uiso   1.00
C132   C     0.81753   0.01298   0.26320   0.00000  Uiso   1.00
C133   C     0.82307   0.05631   0.25866   0.00000  Uiso   1.00
C134   C     0.84329   0.27767   0.24157   0.00000  Uiso   1.00
C135   C     0.85468   0.14554   0.14384   0.00000  Uiso   1.00
C136   C     0.81117   0.18699   0.35665   0.00000  Uiso   1.00
C137   C     0.79459   0.18784   0.40061   0.00000  Uiso   1.00
C138   C     0.86380   0.13631   0.10061   0.00000  Uiso   1.00
C139   C     0.73548   0.18978   0.46165   0.00000  Uiso   1.00
C140   C     0.81985   0.17411   0.42124   0.00000  Uiso   1.00
C141   C     0.80159   0.16194   0.45992   0.00000  Uiso   1.00
C142   C     0.75963   0.17229   0.48137   0.00000  Uiso   1.00
C143   C     0.82496   0.14146   0.47853   0.00000  Uiso   1.00
C144   C     0.81270   0.14375   0.02034   0.00000  Uiso   1.00
C145   C     0.76962   0.15009   0.04067   0.00000  Uiso   1.00
C146   C     0.74311   0.16394   0.02159   0.00000  Uiso   1.00
Cl147  Cl    0.68969   0.17037   0.05017   0.00000  Uiso   1.00
Cl148  Cl    0.95501   0.08100   0.01597   0.00000  Uiso   1.00
Cl149  Cl    0.69668   0.19510   0.19479   0.00000  Uiso   1.00
Cl150  Cl    0.97522   0.13998   0.30903   0.00000  Uiso   1.00
Cl151  Cl    0.77131   0.32997   0.30085   0.00000  Uiso   1.00
Cl152  Cl    0.81099   0.19453   0.10386   0.00000  Uiso   1.00
Cl153  Cl    0.91452   0.06003   0.44959   0.00000  Uiso   1.00
Cl154  Cl    0.71727   0.21363   0.39856   0.00000  Uiso   1.00
Cl155  Cl    0.85559   0.09030   0.40896   0.00000  Uiso   1.00
F156   F     0.88062   0.00572   0.21094   0.00000  Uiso   1.00
F157   F     0.92287   0.10112   0.09985   0.00000  Uiso   1.00
F158   F     0.69517   0.20000   0.48062   0.00000  Uiso   1.00
F159   F     0.86300   0.17493   0.40418   0.00000  Uiso   1.00
F160   F     0.75155   0.13801   0.07777   0.00000  Uiso   1.00
O161   O     0.83333   0.16667   0.25000   0.00000  Uiso   1.00
O162   O     0.82360   0.12393   0.16625   0.00000  Uiso   1.00
O163   O     0.79354   0.20646   0.33749   0.00000  Uiso   1.00
O164   O     0.87755   0.17493   0.15877   0.00000  Uiso   1.00
O165   O     0.83865   0.16135   0.33749   0.00000  Uiso   1.00
O166   O     0.84515   0.08101   0.27820   0.00000  Uiso   1.00
O167   O     0.81247   0.26136   0.26767   0.00000  Uiso   1.00
O168   O     0.74119   0.13251   0.23607   0.00000  Uiso   1.00
O169   O     0.93452   0.19179   0.21805   0.00000  Uiso   1.00
O170   O     0.73656   0.18960   0.27820   0.00000  Uiso   1.00
O171   O     0.92106   0.15277   0.26767   0.00000  Uiso   1.00
O172   O     0.80467   0.06903   0.23607   0.00000  Uiso   1.00
O173   O     0.87104   0.25527   0.21805   0.00000  Uiso   1.00
Zn174  Zn    0.85910   0.14090   0.28277   0.00000  Uiso   1.00
Zn175  Zn    0.80125   0.12378   0.22257   0.00000  Uiso   1.00
Zn176  Zn    0.87833   0.19664   0.21188   0.00000  Uiso   1.00
Zn177  Zn    0.79465   0.20535   0.28277   0.00000  Uiso   1.00
C178   C     0.05276   0.49350   0.25882   0.00000  Uiso   1.00
C179   C     0.18945   0.44764   0.45730   0.00000  Uiso   1.00
C180   C     0.21487   0.43221   0.47705   0.00000  Uiso   1.00
C181   C     0.28101   0.50666   0.24133   0.00000  Uiso   1.00
C182   C     0.21071   0.44532   0.01813   0.00000  Uiso   1.00
C183   C     0.17557   0.46847   0.03998   0.00000  Uiso   1.00
C184   C     0.23920   0.43575   0.03881   0.00000  Uiso   1.00
C185   C     0.23058   0.44604   0.07994   0.00000  Uiso   1.00
C186   C     0.17216   0.48400   0.08032   0.00000  Uiso   1.00
C187   C     0.32679   0.50723   0.23695   0.00000  Uiso   1.00
C188   C     0.00761   0.49155   0.26368   0.00000  Uiso   1.00
C189   C     0.08540   0.52951   0.42142   0.00000  Uiso   1.00
C190   C     0.18000   0.65540   0.23897   0.00000  Uiso   1.00
C191   C     0.15087   0.34632   0.26320   0.00000  Uiso   1.00
C192   C     0.15640   0.38964   0.25866   0.00000  Uiso   1.00
C193   C     0.17662   0.61100   0.24157   0.00000  Uiso   1.00
C194   C     0.18802   0.47888   0.14384   0.00000  Uiso   1.00
C195   C     0.14450   0.52032   0.35665   0.00000  Uiso   1.00
C196   C     0.12792   0.52118   0.40061   0.00000  Uiso   1.00
C197   C     0.19713   0.46964   0.10061   0.00000  Uiso   1.00
C198   C     0.06881   0.52312   0.46165   0.00000  Uiso   1.00
C199   C     0.15319   0.50744   0.42124   0.00000  Uiso   1.00
C200   C     0.13492   0.49528   0.45992   0.00000  Uiso   1.00
C201   C     0.09296   0.50562   0.48137   0.00000  Uiso   1.00
C202   C     0.15830   0.47480   0.47853   0.00000  Uiso   1.00
C203   C     0.14604   0.47708   0.02034   0.00000  Uiso   1.00
C204   C     0.10296   0.48342   0.04067   0.00000  Uiso   1.00
C205   C     0.07644   0.49728   0.02159   0.00000  Uiso   1.00
Cl206  Cl    0.02303   0.50370   0.05017   0.00000  Uiso   1.00
Cl207  Cl    0.28834   0.41433   0.01597   0.00000  Uiso   1.00
Cl208  Cl    0.03002   0.52844   0.19479   0.00000  Uiso   1.00
Cl209  Cl    0.30856   0.47332   0.30903   0.00000  Uiso   1.00
Cl210  Cl    0.10464   0.66330   0.30085   0.00000  Uiso   1.00
Cl211  Cl    0.14432   0.52787   0.10386   0.00000  Uiso   1.00
Cl212  Cl    0.24786   0.39336   0.44959   0.00000  Uiso   1.00
Cl213  Cl    0.05060   0.54697   0.39856   0.00000  Uiso   1.00
Cl214  Cl    0.18892   0.42364   0.40896   0.00000  Uiso   1.00
F215   F     0.21396   0.33905   0.21094   0.00000  Uiso   1.00
F216   F     0.25620   0.43445   0.09985   0.00000  Uiso   1.00
F217   F     0.02850   0.53333   0.48062   0.00000  Uiso   1.00
F218   F     0.19634   0.50826   0.40418   0.00000  Uiso   1.00
F219   F     0.08488   0.47135   0.07777   0.00000  Uiso   1.00
O220   O     0.16667   0.50000   0.25000   0.00000  Uiso   1.00
O221   O     0.15693   0.45726   0.16625   0.00000  Uiso   1.00
O222   O     0.12687   0.53979   0.33749   0.00000  Uiso   1.00
O223   O     0.21088   0.50826   0.15877   0.00000  Uiso   1.00
O224   O     0.17198   0.49468   0.33749   0.00000  Uiso   1.00
O225   O     0.17849   0.41434   0.27820   0.00000  Uiso   1.00
O226   O     0.14581   0.59469   0.26767   0.00000  Uiso   1.00
O227   O     0.07452   0.46584   0.23607   0.00000  Uiso   1.00
O228   O     0.26785   0.52512   0.21805   0.00000  Uiso   1.00
O229   O     0.06990   0.52293   0.27820   0.00000  Uiso   1.00
O230   O     0.25440   0.48610   0.26767   0.00000  Uiso   1.00
O231   O     0.13800   0.40236   0.23607   0.00000  Uiso   1.00
O232   O     0.20437   0.58860   0.21805   0.00000  Uiso   1.00
Zn233  Zn    0.19244   0.47423   0.28277   0.00000  Uiso   1.00
Zn234  Zn    0.13459   0.45711   0.22257   0.00000  Uiso   1.00
Zn235  Zn    0.21166   0.52997   0.21188   0.00000  Uiso   1.00
Zn236  Zn    0.12798   0.53868   0.28277   0.00000  Uiso   1.00
C237   C     0.38609   0.49350   0.25882   0.00000  Uiso   1.00
C238   C     0.52278   0.44764   0.45730   0.00000  Uiso   1.00
C239   C     0.54820   0.43221   0.47705   0.00000  Uiso   1.00
C240   C     0.61434   0.50666   0.24133   0.00000  Uiso   1.00
C241   C     0.54404   0.44532   0.01813   0.00000  Uiso   1.00
C242   C     0.50890   0.46847   0.03998   0.00000  Uiso   1.00
C243   C     0.57254   0.43575   0.03881   0.00000  Uiso   1.00
C244   C     0.56391   0.44604   0.07994   0.00000  Uiso   1.00
C245   C     0.50549   0.48400   0.08032   0.00000  Uiso   1.00
C246   C     0.66013   0.50723   0.23695   0.00000  Uiso   1.00
C247   C     0.34094   0.49155   0.26368   0.00000  Uiso   1.00
C248   C     0.41874   0.52951   0.42142   0.00000  Uiso   1.00
C249   C     0.51333   0.65540   0.23897   0.00000  Uiso   1.00
C250   C     0.48420   0.34632   0.26320   0.00000  Uiso   1.00
C251   C     0.48974   0.38964   0.25866   0.00000  Uiso   1.00
C252   C     0.50996   0.61100   0.24157   0.00000  Uiso   1.00
C253   C     0.52135   0.47888   0.14384   0.00000  Uiso   1.00
C254   C     0.47784   0.52032   0.35665   0.00000  Uiso   1.00
C255   C     0.46126   0.52118   0.40061   0.00000  Uiso   1.00
C256   C     0.53046   0.46964   0.10061   0.00000  Uiso   1.00
C257   C     0.40215   0.52312   0.46165   0.00000  Uiso   1.00
C258   C     0.48652   0.50744   0.42124   0.00000  Uiso   1.00
C259   C     0.46826   0.49528   0.45992   0.00000  Uiso   1.00
C260   C     0.42629   0.50562   0.48137   0.00000  Uiso   1.00
C261   C     0.49163   0.47480   0.47853   0.00000  Uiso   1.00
C262   C     0.47937   0.47708   0.02034   0.00000  Uiso   1.00
C263   C     0.43629   0.48342   0.04067   0.00000  Uiso   1.00
C264   C     0.40977   0.49728   0.02159   0.00000  Uiso   1.00
Cl265  Cl    0.35636   0.50370   0.05017   0.00000  Uiso   1.00
Cl266  Cl    0.62168   0.41433   0.01597   0.00000  Uiso   1.00
Cl267  Cl    0.36335   0.52844   0.19479   0.00000  Uiso   1.00
Cl268  Cl    0.64189   0.47332   0.30903   0.00000  Uiso   1.00
Cl269  Cl    0.43797   0.66330   0.30085   0.00000  Uiso   1.00
Cl270  Cl    0.47765   0.52787   0.10386   0.00000  Uiso   1.00
Cl271  Cl    0.58119   0.39336   0.44959   0.00000  Uiso   1.00
Cl272  Cl    0.38394   0.54697   0.39856   0.00000  Uiso   1.00
Cl273  Cl    0.52225   0.42364   0.40896   0.00000  Uiso   1.00
F274   F     0.54729   0.33905   0.21094   0.00000  Uiso   1.00
F275   F     0.58953   0.43445   0.09985   0.00000  Uiso   1.00
F276   F     0.36183   0.53333   0.48062   0.00000  Uiso   1.00
F277   F     0.52967   0.50826   0.40418   0.00000  Uiso   1.00
F278   F     0.41822   0.47135   0.07777   0.00000  Uiso   1.00
O279   O     0.50000   0.50000   0.25000   0.00000  Uiso   1.00
O280   O     0.49027   0.45726   0.16625   0.00000  Uiso   1.00
O281   O     0.46020   0.53979   0.33749   0.00000  Uiso   1.00
O282   O     0.54421   0.50826   0.15877   0.00000  Uiso   1.00
O283   O     0.50532   0.49468   0.33749   0.00000  Uiso   1.00
O284   O     0.51182   0.41434   0.27820   0.00000  Uiso   1.00
O285   O     0.47914   0.59469   0.26767   0.00000  Uiso   1.00
O286   O     0.40785   0.46584   0.23607   0.00000  Uiso   1.00
O287   O     0.60119   0.52512   0.21805   0.00000  Uiso   1.00
O288   O     0.40323   0.52293   0.27820   0.00000  Uiso   1.00
O289   O     0.58773   0.48610   0.26767   0.00000  Uiso   1.00
O290   O     0.47133   0.40236   0.23607   0.00000  Uiso   1.00
O291   O     0.53771   0.58860   0.21805   0.00000  Uiso   1.00
Zn292  Zn    0.52577   0.47423   0.28277   0.00000  Uiso   1.00
Zn293  Zn    0.46792   0.45711   0.22257   0.00000  Uiso   1.00
Zn294  Zn    0.54500   0.52997   0.21188   0.00000  Uiso   1.00
Zn295  Zn    0.46131   0.53868   0.28277   0.00000  Uiso   1.00
C296   C     0.71943   0.49350   0.25882   0.00000  Uiso   1.00
C297   C     0.85612   0.44764   0.45730   0.00000  Uiso   1.00
C298   C     0.88153   0.43221   0.47705   0.00000  Uiso   1.00
C299   C     0.94768   0.50666   0.24133   0.00000  Uiso   1.00
C300   C     0.87737   0.44532   0.01813   0.00000  Uiso   1.00
C301   C     0.84223   0.46847   0.03998   0.00000  Uiso   1.00
C302   C     0.90587   0.43575   0.03881   0.00000  Uiso   1.00
C303   C     0.89724   0.44604   0.07994   0.00000  Uiso   1.00
C304   C     0.83882   0.48400   0.08032   0.00000  Uiso   1.00
C305   C     0.99346   0.50723   0.23695   0.00000  Uiso   1.00
C306   C     0.67427   0.49155   0.26368   0.00000  Uiso   1.00
C307   C     0.75207   0.52951   0.42142   0.00000  Uiso   1.00
C308   C     0.84667   0.65540   0.23897   0.00000  Uiso   1.00
C309   C     0.81753   0.34632   0.26320   0.00000  Uiso   1.00
C310   C     0.82307   0.38964   0.25866   0.00000  Uiso   1.00
C311   C     0.84329   0.61100   0.24157   0.00000  Uiso   1.00
C312   C     0.85468   0.47888   0.14384   0.00000  Uiso   1.00
C313   C     0.81117   0.52032   0.35665   0.00000  Uiso   1.00
C314   C     0.79459   0.52118   0.40061   0.00000  Uiso   1.00
C315   C     0.86380   0.46964   0.10061   0.00000  Uiso   1.00
C316   C     0.73548   0.52312   0.46165   0.00000  Uiso   1.00
C317   C     0.81985   0.50744   0.42124   0.00000  Uiso   1.00
C318   C     0.80159   0.49528   0.45992   0.00000  Uiso   1.00
C319   C     0.75963   0.50562   0.48137   0.00000  Uiso   1.00
C320   C     0.82496   0.47480   0.47853   0.00000  Uiso   1.00
C321   C     0.81270   0.47708   0.02034   0.00000  Uiso   1.00
C322   C     0.76962   0.48342   0.04067   0.00000  Uiso   1.00
C323   C     0.74311   0.49728   0.02159   0.00000  Uiso   1.00
Cl324  Cl    0.68969   0.50370   0.05017   0.00000  Uiso   1.00
Cl325  Cl    0.95501   0.41433   0.01597   0.00000  Uiso   1.00
Cl326  Cl    0.69668   0.52844   0.19479   0.00000  Uiso   1.00
Cl327  Cl    0.97522   0.47332   0.30903   0.00000  Uiso   1.00
Cl328  Cl    0.77131   0.66330   0.30085   0.00000  Uiso   1.00
Cl329  Cl    0.81099   0.52787   0.10386   0.00000  Uiso   1.00
Cl330  Cl    0.91452   0.39336   0.44959   0.00000  Uiso   1.00
Cl331  Cl    0.71727   0.54697   0.39856   0.00000  Uiso   1.00
Cl332  Cl    0.85559   0.42364   0.40896   0.00000  Uiso   1.00
F333   F     0.88062   0.33905   0.21094   0.00000  Uiso   1.00
F334   F     0.92287   0.43445   0.09985   0.00000  Uiso   1.00
F335   F     0.69517   0.53333   0.48062   0.00000  Uiso   1.00
F336   F     0.86300   0.50826   0.40418   0.00000  Uiso   1.00
F337   F     0.75155   0.47135   0.07777   0.00000  Uiso   1.00
O338   O     0.83333   0.50000   0.25000   0.00000  Uiso   1.00
O339   O     0.82360   0.45726   0.16625   0.00000  Uiso   1.00
O340   O     0.79354   0.53979   0.33749   0.00000  Uiso   1.00
O341   O     0.87755   0.50826   0.15877   0.00000  Uiso   1.00
O342   O     0.83865   0.49468   0.33749   0.00000  Uiso   1.00
O343   O     0.84515   0.41434   0.27820   0.00000  Uiso   1.00
O344   O     0.81247   0.59469   0.26767   0.00000  Uiso   1.00
O345   O     0.74119   0.46584   0.23607   0.00000  Uiso   1.00
O346   O     0.93452   0.52512   0.21805   0.00000  Uiso   1.00
O347   O     0.73656   0.52293   0.27820   0.00000  Uiso   1.00
O348   O     0.92106   0.48610   0.26767   0.00000  Uiso   1.00
O349   O     0.80467   0.40236   0.23607   0.00000  Uiso   1.00
O350   O     0.87104   0.58860   0.21805   0.00000  Uiso   1.00
Zn351  Zn    0.85910   0.47423   0.28277   0.00000  Uiso   1.00
Zn352  Zn    0.80125   0.45711   0.22257   0.00000  Uiso   1.00
Zn353  Zn    0.87833   0.52997   0.21188   0.00000  Uiso   1.00
Zn354  Zn    0.79465   0.53868   0.28277   0.00000  Uiso   1.00
C355   C     0.05276   0.82683   0.25882   0.00000  Uiso   1.00
C356   C     0.18945   0.78098   0.45730   0.00000  Uiso   1.00
C357   C     0.21487   0.76555   0.47705   0.00000  Uiso   1.00
C358   C     0.28101   0.84000   0.24133   0.00000  Uiso   1.00
C359   C     0.21071   0.77866   0.01813   0.00000  Uiso   1.00
C360   C     0.17557   0.80181   0.03998   0.00000  Uiso   1.00
C361   C     0.23920   0.76908   0.03881   0.00000  Uiso   1.00
C362   C     0.23058   0.77937   0.07994   0.00000  Uiso   1.00
C363   C     0.17216   0.81733   0.08032   0.00000  Uiso   1.00
C364   C     0.32679   0.84056   0.23695   0.00000  Uiso   1.00
C365   C     0.00761   0.82488   0.26368   0.00000  Uiso   1.00
C366   C     0.08540   0.86284   0.42142   0.00000  Uiso   1.00
C367   C     0.18000   0.98873   0.23897   0.00000  Uiso   1.00
C368   C     0.15087   0.67965   0.26320   0.00000  Uiso   1.00
C369   C     0.15640   0.72297   0.25866   0.00000  Uiso   1.00
C370   C     0.17662   0.94434   0.24157   0.00000  Uiso   1.00
C371   C     0.18802   0.81221   0.14384   0.00000  Uiso   1.00
C372   C     0.14450   0.85365   0.35665   0.00000  Uiso   1.00
C373   C     0.12792   0.85451   0.40061   0.00000  Uiso   1.00
C374   C     0.19713   0.80297   0.10061   0.00000  Uiso   1.00
C375   C     0.06881   0.85645   0.46165   0.00000  Uiso   1.00
C376   C     0.15319   0.84077   0.42124   0.00000  Uiso   1.00
C377   C     0.13492   0.82861   0.45992   0.00000  Uiso   1.00
C378   C     0.09296   0.83895   0.48137   0.00000  Uiso   1.00
C379   C     0.15830   0.80813   0.47853   0.00000  Uiso   1.00
C380   C     0.14604   0.81041   0.02034   0.00000  Uiso   1.00
C381   C     0.10296   0.81675   0.04067   0.00000  Uiso   1.00
C382   C     0.07644   0.83061   0.02159   0.00000  Uiso   1.00
Cl383  Cl    0.02303   0.83703   0.05017   0.00000  Uiso   1.00
Cl384  Cl    0.28834   0.74766   0.01597   0.00000  Uiso   1.00
Cl385  Cl    0.03002   0.86177   0.19479   0.00000  Uiso   1.00
Cl386  Cl    0.30856   0.80665   0.30903   0.00000  Uiso   1.00
Cl387  Cl    0.10464   0.99664   0.30085   0.00000  Uiso   1.00
Cl388  Cl    0.14432   0.86120   0.10386   0.00000  Uiso   1.00
Cl389  Cl    0.24786   0.72669   0.44959   0.00000  Uiso   1.00
Cl390  Cl    0.05060   0.88030   0.39856   0.00000  Uiso   1.00
Cl391  Cl    0.18892   0.75697   0.40896   0.00000  Uiso   1.00
F392   F     0.21396   0.67238   0.21094   0.00000  Uiso   1.00
F393   F     0.25620   0.76778   0.09985   0.00000  Uiso   1.00
F394   F     0.02850   0.86667   0.48062   0.00000  Uiso   1.00
F395   F     0.19634   0.84159   0.40418   0.00000  Uiso   1.00
F396   F     0.08488   0.80468   0.07777   0.00000  Uiso   1.00
O397   O     0.16667   0.83333   0.25000   0.00000  Uiso   1.00
O398   O     0.15693   0.79060   0.16625   0.00000  Uiso   1.00
O399   O     0.12687   0.87313   0.33749   0.00000  Uiso   1.00
O400   O     0.21088   0.84159   0.15877   0.00000  Uiso   1.00
O401   O     0.17198   0.82802   0.33749   0.00000  Uiso   1.00
O402   O     0.17849   0.74768   0.27820   0.00000  Uiso   1.00
O403   O     0.14581   0.92803   0.26767   0.00000  Uiso   1.00
O404   O     0.07452   0.79917   0.23607   0.00000  Uiso   1.00
O405   O     0.26785   0.85845   0.21805   0.00000  Uiso   1.00
O406   O     0.06990   0.85627   0.27820   0.00000  Uiso   1.00
O407   O     0.25440   0.81944   0.26767   0.00000  Uiso   1.00
O408   O     0.13800   0.73570   0.23607   0.00000  Uiso   1.00
O409   O     0.20437   0.92193   0.21805   0.00000  Uiso   1.00
Zn410  Zn    0.19244   0.80756   0.28277   0.00000  Uiso   1.00
Zn411  Zn    0.13459   0.79044   0.22257   0.00000  Uiso   1.00
Zn412  Zn    0.21166   0.86331   0.21188   0.00000  Uiso   1.00
Zn413  Zn    0.12798   0.87202   0.28277   0.00000  Uiso   1.00
C414   C     0.38609   0.82683   0.25882   0.00000  Uiso   1.00
C415   C     0.52278   0.78098   0.45730   0.00000  Uiso   1.00
C416   C     0.54820   0.76555   0.47705   0.00000  Uiso   1.00
C417   C     0.61434   0.84000   0.24133   0.00000  Uiso   1.00
C418   C     0.54404   0.77866   0.01813   0.00000  Uiso   1.00
C419   C     0.50890   0.80181   0.03998   0.00000  Uiso   1.00
C420   C     0.57254   0.76908   0.03881   0.00000  Uiso   1.00
C421   C     0.56391   0.77937   0.07994   0.00000  Uiso   1.00
C422   C     0.50549   0.81733   0.08032   0.00000  Uiso   1.00
C423   C     0.66013   0.84056   0.23695   0.00000  Uiso   1.00
C424   C     0.34094   0.82488   0.26368   0.00000  Uiso   1.00
C425   C     0.41874   0.86284   0.42142   0.00000  Uiso   1.00
C426   C     0.51333   0.98873   0.23897   0.00000  Uiso   1.00
C427   C     0.48420   0.67965   0.26320   0.00000  Uiso   1.00
C428   C     0.48974   0.72297   0.25866   0.00000  Uiso   1.00
C429   C     0.50996   0.94434   0.24157   0.00000  Uiso   1.00
C430   C     0.52135   0.81221   0.14384   0.00000  Uiso   1.00
C431   C     0.47784   0.85365   0.35665   0.00000  Uiso   1.00
C432   C     0.46126   0.85451   0.40061   0.00000  Uiso   1.00
C433   C     0.53046   0.80297   0.10061   0.00000  Uiso   1.00
C434   C     0.40215   0.85645   0.46165   0.00000  Uiso   1.00
C435   C     0.48652   0.84077   0.42124   0.00000  Uiso   1.00
C436   C     0.46826   0.82861   0.45992   0.00000  Uiso   1.00
C437   C     0.42629   0.83895   0.48137   0.00000  Uiso   1.00
C438   C     0.49163   0.80813   0.47853   0.00000  Uiso   1.00
C439   C     0.47937   0.81041   0.02034   0.00000  Uiso   1.00
C440   C     0.43629   0.81675   0.04067   0.00000  Uiso   1.00
C441   C     0.40977   0.83061   0.02159   0.00000  Uiso   1.00
Cl442  Cl    0.35636   0.83703   0.05017   0.00000  Uiso   1.00
Cl443  Cl    0.62168   0.74766   0.01597   0.00000  Uiso   1.00
Cl444  Cl    0.36335   0.86177   0.19479   0.00000  Uiso   1.00
Cl445  Cl    0.64189   0.80665   0.30903   0.00000  Uiso   1.00
Cl446  Cl    0.43797   0.99664   0.30085   0.00000  Uiso   1.00
Cl447  Cl    0.47765   0.86120   0.10386   0.00000  Uiso   1.00
Cl448  Cl    0.58119   0.72669   0.44959   0.00000  Uiso   1.00
Cl449  Cl    0.38394   0.88030   0.39856   0.00000  Uiso   1.00
Cl450  Cl    0.52225   0.75697   0.40896   0.00000  Uiso   1.00
F451   F     0.54729   0.67238   0.21094   0.00000  Uiso   1.00
F452   F     0.58953   0.76778   0.09985   0.00000  Uiso   1.00
F453   F     0.36183   0.86667   0.48062   0.00000  Uiso   1.00
F454   F     0.52967   0.84159   0.40418   0.00000  Uiso   1.00
F455   F     0.41822   0.80468   0.07777   0.00000  Uiso   1.00
O456   O     0.50000   0.83333   0.25000   0.00000  Uiso   1.00
O457   O     0.49027   0.79060   0.16625   0.00000  Uiso   1.00
O458   O     0.46020   0.87313   0.33749   0.00000  Uiso   1.00
O459   O     0.54421   0.84159   0.15877   0.00000  Uiso   1.00
O460   O     0.50532   0.82802   0.33749   0.00000  Uiso   1.00
O461   O     0.51182   0.74768   0.27820   0.00000  Uiso   1.00
O462   O     0.47914   0.92803   0.26767   0.00000  Uiso   1.00
O463   O     0.40785   0.79917   0.23607   0.00000  Uiso   1.00
O464   O     0.60119   0.85845   0.21805   0.00000  Uiso   1.00
O465   O     0.40323   0.85627   0.27820   0.00000  Uiso   1.00
O466   O     0.58773   0.81944   0.26767   0.00000  Uiso   1.00
O467   O     0.47133   0.73570   0.23607   0.00000  Uiso   1.00
O468   O     0.53771   0.92193   0.21805   0.00000  Uiso   1.00
Zn469  Zn    0.52577   0.80756   0.28277   0.00000  Uiso   1.00
Zn470  Zn    0.46792   0.79044   0.22257   0.00000  Uiso   1.00
Zn471  Zn    0.54500   0.86331   0.21188   0.00000  Uiso   1.00
Zn472  Zn    0.46131   0.87202   0.28277   0.00000  Uiso   1.00
C473   C     0.71943   0.82683   0.25882   0.00000  Uiso   1.00
C474   C     0.85612   0.78098   0.45730   0.00000  Uiso   1.00
C475   C     0.88153   0.76555   0.47705   0.00000  Uiso   1.00
C476   C     0.94768   0.84000   0.24133   0.00000  Uiso   1.00
C477   C     0.87737   0.77866   0.01813   0.00000  Uiso   1.00
C478   C     0.84223   0.80181   0.03998   0.00000  Uiso   1.00
C479   C     0.90587   0.76908   0.03881   0.00000  Uiso   1.00
C480   C     0.89724   0.77937   0.07994   0.00000  Uiso   1.00
C481   C     0.83882   0.81733   0.08032   0.00000  Uiso   1.00
C482   C     0.99346   0.84056   0.23695   0.00000  Uiso   1.00
C483   C     0.67427   0.82488   0.26368   0.00000  Uiso   1.00
C484   C     0.75207   0.86284   0.42142   0.00000  Uiso   1.00
C485   C     0.84667   0.98873   0.23897   0.00000  Uiso   1.00
C486   C     0.81753   0.67965   0.26320   0.00000  Uiso   1.00
C487   C     0.82307   0.72297   0.25866   0.00000  Uiso   1.00
C488   C     0.84329   0.94434   0.24157   0.00000  Uiso   1.00
C489   C     0.85468   0.81221   0.14384   0.00000  Uiso   1.00
C490   C     0.81117   0.85365   0.35665   0.00000  Uiso   1.00
C491   C     0.79459   0.85451   0.40061   0.00000  Uiso   1.00
C492   C     0.86380   0.80297   0.10061   0.00000  Uiso   1.00
C493   C     0.73548   0.85645   0.46165   0.00000  Uiso   1.00
C494   C     0.81985   0.84077   0.42124   0.00000  Uiso   1.00
C495   C     0.80159   0.82861   0.45992   0.00000  Uiso   1.00
C496   C     0.75963   0.83895   0.48137   0.00000  Uiso   1.00
C497   C     0.82496   0.80813   0.47853   0.00000  Uiso   1.00
C498   C     0.81270   0.81041   0.02034   0.00000  Uiso   1.00
C499   C     0.76962   0.81675   0.04067   0.00000  Uiso   1.00
C500   C     0.74311   0.83061   0.02159   0.00000  Uiso   1.00
Cl501  Cl    0.68969   0.83703   0.05017   0.00000  Uiso   1.00
Cl502  Cl    0.95501   0.74766   0.01597   0.00000  Uiso   1.00
Cl503  Cl    0.69668   0.86177   0.19479   0.00000  Uiso   1.00
Cl504  Cl    0.97522   0.80665   0.30903   0.00000  Uiso   1.00
Cl505  Cl    0.77131   0.99664   0.30085   0.00000  Uiso   1.00
Cl506  Cl    0.81099   0.86120   0.10386   0.00000  Uiso   1.00
Cl507  Cl    0.91452   0.72669   0.44959   0.00000  Uiso   1.00
Cl508  Cl    0.71727   0.88030   0.39856   0.00000  Uiso   1.00
Cl509  Cl    0.85559   0.75697   0.40896   0.00000  Uiso   1.00
F510   F     0.88062   0.67238   0.21094   0.00000  Uiso   1.00
F511   F     0.92287   0.76778   0.09985   0.00000  Uiso   1.00
F512   F     0.69517   0.86667   0.48062   0.00000  Uiso   1.00
F513   F     0.86300   0.84159   0.40418   0.00000  Uiso   1.00
F514   F     0.75155   0.80468   0.07777   0.00000  Uiso   1.00
O515   O     0.83333   0.83333   0.25000   0.00000  Uiso   1.00
O516   O     0.82360   0.79060   0.16625   0.00000  Uiso   1.00
O517   O     0.79354   0.87313   0.33749   0.00000  Uiso   1.00
O518   O     0.87755   0.84159   0.15877   0.00000  Uiso   1.00
O519   O     0.83865   0.82802   0.33749   0.00000  Uiso   1.00
O520   O     0.84515   0.74768   0.27820   0.00000  Uiso   1.00
O521   O     0.81247   0.92803   0.26767   0.00000  Uiso   1.00
O522   O     0.74119   0.79917   0.23607   0.00000  Uiso   1.00
O523   O     0.93452   0.85845   0.21805   0.00000  Uiso   1.00
O524   O     0.73656   0.85627   0.27820   0.00000  Uiso   1.00
O525   O     0.92106   0.81944   0.26767   0.00000  Uiso   1.00
O526   O     0.80467   0.73570   0.23607   0.00000  Uiso   1.00
O527   O     0.87104   0.92193   0.21805   0.00000  Uiso   1.00
Zn528  Zn    0.85910   0.80756   0.28277   0.00000  Uiso   1.00
Zn529  Zn    0.80125   0.79044   0.22257   0.00000  Uiso   1.00
Zn530  Zn    0.87833   0.86331   0.21188   0.00000  Uiso   1.00
Zn531  Zn    0.79465   0.87202   0.28277   0.00000  Uiso   1.00
C532   C     0.05276   0.16017   0.75882   0.00000  Uiso   1.00
C533   C     0.18945   0.11431   0.95730   0.00000  Uiso   1.00
C534   C     0.21487   0.09888   0.97705   0.00000  Uiso   1.00
C535   C     0.28101   0.17333   0.74133   0.00000  Uiso   1.00
C536   C     0.21071   0.11199   0.51813   0.00000  Uiso   1.00
C537   C     0.17557   0.13514   0.53998   0.00000  Uiso   1.00
C538   C     0.23920   0.10241   0.53881   0.00000  Uiso   1.00
C539   C     0.23058   0.11270   0.57994   0.00000  Uiso   1.00
C540   C     0.17216   0.15067   0.58032   0.00000  Uiso   1.00
C541   C     0.32679   0.17389   0.73695   0.00000  Uiso   1.00
C542   C     0.00761   0.15821   0.76368   0.00000  Uiso   1.00
C543   C     0.08540   0.19617   0.92142   0.00000  Uiso   1.00
C544   C     0.18000   0.32207   0.73897   0.00000  Uiso   1.00
C545   C     0.15087   0.01298   0.76320   0.00000  Uiso   1.00
C546   C     0.15640   0.05631   0.75866   0.00000  Uiso   1.00
C547   C     0.17662   0.27767   0.74157   0.00000  Uiso   1.00
C548   C     0.18802   0.14554   0.64384   0.00000  Uiso   1.00
C549   C     0.14450   0.18699   0.85665   0.00000  Uiso   1.00
C550   C     0.12792   0.18784   0.90061   0.00000  Uiso   1.00
C551   C     0.19713   0.13631   0.60061   0.00000  Uiso   1.00
C552   C     0.06881   0.18978   0.96165   0.00000  Uiso   1.00
C553   C     0.15319   0.17411   0.92124   0.00000  Uiso   1.00
C554   C     0.13492   0.16194   0.95992   0.00000  Uiso   1.00
C555   C     0.09296   0.17229   0.98137   0.00000  Uiso   1.00
C556   C     0.15830   0.14146   0.97853   0.00000  Uiso   1.00
C557   C     0.14604   0.14375   0.52034   0.00000  Uiso   1.00
C558   C     0.10296   0.15009   0.54067   0.00000  Uiso   1.00
C559   C     0.07644   0.16394   0.52159   0.00000  Uiso   1.00
Cl560  Cl    0.02303   0.17037   0.55017   0.00000  Uiso   1.00
Cl561  Cl    0.28834   0.08100   0.51597   0.00000  Uiso   1.00
Cl562  Cl    0.03002   0.19510   0.69479   0.00000  Uiso   1.00
Cl563  Cl    0.30856   0.13998   0.80903   0.00000  Uiso   1.00
Cl564  Cl    0.10464   0.32997   0.80085   0.00000  Uiso   1.00
Cl565  Cl    0.14432   0.19453   0.60386   0.00000  Uiso   1.00
Cl566  Cl    0.24786   0.06003   0.94959   0.00000  Uiso   1.00
Cl567  Cl    0.05060   0.21363   0.89856   0.00000  Uiso   1.00
Cl568  Cl    0.18892   0.09030   0.90896   0.00000  Uiso   1.00
F569   F     0.21396   0.00572   0.71094   0.00000  Uiso   1.00
F570   F     0.25620   0.10112   0.59985   0.00000  Uiso   1.00
F571   F     0.02850   0.20000   0.98062   0.00000  Uiso   1.00
F572   F     0.19634   0.17493   0.90418   0.00000  Uiso   1.00
F573   F     0.08488   0.13801   0.57777   0.00000  Uiso   1.00
O574   O     0.16667   0.16667   0.75000   0.00000  Uiso   1.00
O575   O     0.15693   0.12393   0.66625   0.00000  Uiso   1.00
O576   O     0.12687   0.20646   0.83749   0.00000  Uiso   1.00
O577   O     0.21088   0.17493   0.65877   0.00000  Uiso   1.00
O578   O     0.17198   0.16135   0.83749   0.00000  Uiso   1.00
O579   O     0.17849   0.08101   0.77820   0.00000  Uiso   1.00
O580   O     0.14581   0.26136   0.76767   0.00000  Uiso   1.00
O581   O     0.07452   0.13251   0.73607   0.00000  Uiso   1.00
O582   O     0.26785   0.19179   0.71805   0.00000  Uiso   1.00
O583   O     0.06990   0.18960   0.77820   0.00000  Uiso   1.00
O584   O     0.25440   0.15277   0.76767   0.00000  Uiso   1.00
O585   O     0.13800   0.06903   0.73607   0.00000  Uiso   1.00
O586   O     0.20437   0.25527   0.71805   0.00000  Uiso   1.00
Zn587  Zn    0.19244   0.14090   0.78277   0.00000  Uiso   1.00
Zn588  Zn    0.13459   0.12378   0.72257   0.00000  Uiso   1.00
Zn589  Zn    0.21166   0.19664   0.71188   0.00000  Uiso   1.00
Zn590  Zn    0.12798   0.20535   0.78277   0.00000  Uiso   1.00
C591   C     0.38609   0.16017   0.75882   0.00000  Uiso   1.00
C592   C     0.52278   0.11431   0.95730   0.00000  Uiso   1.00
C593   C     0.54820   0.09888   0.97705   0.00000  Uiso   1.00
C594   C     0.61434   0.17333   0.74133   0.00000  Uiso   1.00
C595   C     0.54404   0.11199   0.51813   0.00000  Uiso   1.00
C596   C     0.50890   0.13514   0.53998   0.00000  Uiso   1.00
C597   C     0.57254   0.10241   0.53881   0.00000  Uiso   1.00
C598   C     0.56391   0.11270   0.57994   0.00000  Uiso   1.00
C599   C     0.50549   0.15067   0.58032   0.00000  Uiso   1.00
C600   C     0.66013   0.17389   0.73695   0.00000  Uiso   1.00
C601   C     0.34094   0.15821   0.76368   0.00000  Uiso   1.00
C602   C     0.41874   0.19617   0.92142   0.00000  Uiso   1.00
C603   C     0.51333   0.32207   0.73897   0.00000  Uiso   1.00
C604   C     0.48420   0.01298   0.76320   0.00000  Uiso   1.00
C605   C     0.48974   0.05631   0.75866   0.00000  Uiso   1.00
C606   C     0.50996   0.27767   0.74157   0.00000  Uiso   1.00
C607   C     0.52135   0.14554   0.64384   0.00000  Uiso   1.00
C608   C     0.47784   0.18699   0.85665   0.00000  Uiso   1.00
C609   C     0.46126   0.18784   0.90061   0.00000  Uiso   1.00
C610   C     0.53046   0.13631   0.60061   0.00000  Uiso   1.00
C611   C     0.40215   0.18978   0.96165   0.00000  Uiso   1.00
C612   C     0.48652   0.17411   0.92124   0.00000  Uiso   1.00
C613   C     0.46826   0.16194   0.95992   0.00000  Uiso   1.00
C614   C     0.42629   0.17229   0.98137   0.00000  Uiso   1.00
C615   C     0.49163   0.14146   0.97853   0.00000  Uiso   1.00
C616   C     0.47937   0.14375   0.52034   0.00000  Uiso   1.00
C617   C     0.43629   0.15009   0.54067   0.00000  Uiso   1.00
C618   C     0.40977   0.16394   0.52159   0.00000  Uiso   1.00
Cl619  Cl    0.35636   0.17037   0.55017   0.00000  Uiso   1.00
Cl620  Cl    0.62168   0.08100   0.51597   0.00000  Uiso   1.00
Cl621  Cl    0.36335   0.19510   0.69479   0.00000  Uiso   1.00
Cl622  Cl    0.64189   0.13998   0.80903   0.00000  Uiso   1.00
Cl623  Cl    0.43797   0.32997   0.80085   0.00000  Uiso   1.00
Cl624  Cl    0.47765   0.19453   0.60386   0.00000  Uiso   1.00
Cl625  Cl    0.58119   0.06003   0.94959   0.00000  Uiso   1.00
Cl626  Cl    0.38394   0.21363   0.89856   0.00000  Uiso   1.00
Cl627  Cl    0.52225   0.09030   0.90896   0.00000  Uiso   1.00
F628   F     0.54729   0.00572   0.71094   0.00000  Uiso   1.00
F629   F     0.58953   0.10112   0.59985   0.00000  Uiso   1.00
F630   F     0.36183   0.20000   0.98062   0.00000  Uiso   1.00
F631   F     0.52967   0.17493   0.90418   0.00000  Uiso   1.00
F632   F     0.41822   0.13801   0.57777   0.00000  Uiso   1.00
O633   O     0.50000   0.16667   0.75000   0.00000  Uiso   1.00
O634   O     0.49027   0.12393   0.66625   0.00000  Uiso   1.00
O635   O     0.46020   0.20646   0.83749   0.00000  Uiso   1.00
O636   O     0.54421   0.17493   0.65877   0.00000  Uiso   1.00
O637   O     0.50532   0.16135   0.83749   0.00000  Uiso   1.00
O638   O     0.51182   0.08101   0.77820   0.00000  Uiso   1.00
O639   O     0.47914   0.26136   0.76767   0.00000  Uiso   1.00
O640   O     0.40785   0.13251   0.73607   0.00000  Uiso   1.00
O641   O     0.60119   0.19179   0.71805   0.00000  Uiso   1.00
O642   O     0.40323   0.18960   0.77820   0.00000  Uiso   1.00
O643   O     0.58773   0.15277   0.76767   0.00000  Uiso   1.00
O644   O     0.47133   0.06903   0.73607   0.00000  Uiso   1.00
O645   O     0.53771   0.25527   0.71805   0.00000  Uiso   1.00
Zn646  Zn    0.52577   0.14090   0.78277   0.00000  Uiso   1.00
Zn647  Zn    0.46792   0.12378   0.72257   0.00000  Uiso   1.00
Zn648  Zn    0.54500   0.19664   0.71188   0.00000  Uiso   1.00
Zn649  Zn    0.46131   0.20535   0.78277   0.00000  Uiso   1.00
C650   C     0.71943   0.16017   0.75882   0.00000  Uiso   1.00
C651   C     0.85612   0.11431   0.95730   0.00000  Uiso   1.00
C652   C     0.88153   0.09888   0.97705   0.00000  Uiso   1.00
C653   C     0.94768   0.17333   0.74133   0.00000  Uiso   1.00
C654   C     0.87737   0.11199   0.51813   0.00000  Uiso   1.00
C655   C     0.84223   0.13514   0.53998   0.00000  Uiso   1.00
C656   C     0.90587   0.10241   0.53881   0.00000  Uiso   1.00
C657   C     0.89724   0.11270   0.57994   0.00000  Uiso   1.00
C658   C     0.83882   0.15067   0.58032   0.00000  Uiso   1.00
C659   C     0.99346   0.17389   0.73695   0.00000  Uiso   1.00
C660   C     0.67427   0.15821   0.76368   0.00000  Uiso   1.00
C661   C     0.75207   0.19617   0.92142   0.00000  Uiso   1.00
C662   C     0.84667   0.32207   0.73897   0.00000  Uiso   1.00
C663   C     0.81753   0.01298   0.76320   0.00000  Uiso   1.00
C664   C     0.82307   0.05631   0.75866   0.00000  Uiso   1.00
C665   C     0.84329   0.27767   0.74157   0.00000  Uiso   1.00
C666   C     0.85468   0.14554   0.64384   0.00000  Uiso   1.00
C667   C     0.81117   0.18699   0.85665   0.00000  Uiso   1.00
C668   C     0.79459   0.18784   0.90061   0.00000  Uiso   1.00
C669   C     0.86380   0.13631   0.60061   0.00000  Uiso   1.00
C670   C     0.73548   0.18978   0.96165   0.00000  Uiso   1.00
C671   C     0.81985   0.17411   0.92124   0.00000  Uiso   1.00
C672   C     0.80159   0.16194   0.95992   0.00000  Uiso   1.00
C673   C     0.75963   0.17229   0.98137   0.00000  Uiso   1.00
C674   C     0.82496   0.14146   0.97853   0.00000  Uiso   1.00
C675   C     0.81270   0.14375   0.52034   0.00000  Uiso   1.00
C676   C     0.76962   0.15009   0.54067   0.00000  Uiso   1.00
C677   C     0.74311   0.16394   0.52159   0.00000  Uiso   1.00
Cl678  Cl    0.68969   0.17037   0.55017   0.00000  Uiso   1.00
Cl679  Cl    0.95501   0.08100   0.51597   0.00000  Uiso   1.00
Cl680  Cl    0.69668   0.19510   0.69479   0.00000  Uiso   1.00
Cl681  Cl    0.97522   0.13998   0.80903   0.00000  Uiso   1.00
Cl682  Cl    0.77131   0.32997   0.80085   0.00000  Uiso   1.00
Cl683  Cl    0.81099   0.19453   0.60386   0.00000  Uiso   1.00
Cl684  Cl    0.91452   0.06003   0.94959   0.00000  Uiso   1.00
Cl685  Cl    0.71727   0.21363   0.89856   0.00000  Uiso   1.00
Cl686  Cl    0.85559   0.09030   0.90896   0.00000  Uiso   1.00
F687   F     0.88062   0.00572   0.71094   0.00000  Uiso   1.00
F688   F     0.92287   0.10112   0.59985   0.00000  Uiso   1.00
F689   F     0.69517   0.20000   0.98062   0.00000  Uiso   1.00
F690   F     0.86300   0.17493   0.90418   0.00000  Uiso   1.00
F691   F     0.75155   0.13801   0.57777   0.00000  Uiso   1.00
O692   O     0.83333   0.16667   0.75000   0.00000  Uiso   1.00
O693   O     0.82360   0.12393   0.66625   0.00000  Uiso   1.00
O694   O     0.79354   0.20646   0.83749   0.00000  Uiso   1.00
O695   O     0.87755   0.17493   0.65877   0.00000  Uiso   1.00
O696   O     0.83865   0.16135   0.83749   0.00000  Uiso   1.00
O697   O     0.84515   0.08101   0.77820   0.00000  Uiso   1.00
O698   O     0.81247   0.26136   0.76767   0.00000  Uiso   1.00
O699   O     0.74119   0.13251   0.73607   0.00000  Uiso   1.00
O700   O     0.93452   0.19179   0.71805   0.00000  Uiso   1.00
O701   O     0.73656   0.18960   0.77820   0.00000  Uiso   1.00
O702   O     0.92106   0.15277   0.76767   0.00000  Uiso   1.00
O703   O     0.80467   0.06903   0.73607   0.00000  Uiso   1.00
O704   O     0.87104   0.25527   0.71805   0.00000  Uiso   1.00
Zn705  Zn    0.85910   0.14090   0.78277   0.00000  Uiso   1.00
Zn706  Zn    0.80125   0.12378   0.72257   0.00000  Uiso   1.00
Zn707  Zn    0.87833   0.19664   0.71188   0.00000  Uiso   1.00
Zn708  Zn    0.79465   0.20535   0.78277   0.00000  Uiso   1.00
C709   C     0.05276   0.49350   0.75882   0.00000  Uiso   1.00
C710   C     0.18945   0.44764   0.95730   0.00000  Uiso   1.00
C711   C     0.21487   0.43221   0.97705   0.00000  Uiso   1.00
C712   C     0.28101   0.50666   0.74133   0.00000  Uiso   1.00
C713   C     0.21071   0.44532   0.51813   0.00000  Uiso   1.00
C714   C     0.17557   0.46847   0.53998   0.00000  Uiso   1.00
C715   C     0.23920   0.43575   0.53881   0.00000  Uiso   1.00
C716   C     0.23058   0.44604   0.57994   0.00000  Uiso   1.00
C717   C     0.17216   0.48400   0.58032   0.00000  Uiso   1.00
C718   C     0.32679   0.50723   0.73695   0.00000  Uiso   1.00
C719   C     0.00761   0.49155   0.76368   0.00000  Uiso   1.00
C720   C     0.08540   0.52951   0.92142   0.00000  Uiso   1.00
C721   C     0.18000   0.65540   0.73897   0.00000  Uiso   1.00
C722   C     0.15087   0.34632   0.76320   0.00000  Uiso   1.00
C723   C     0.15640   0.38964   0.75866   0.00000  Uiso   1.00
C724   C     0.17662   0.61100   0.74157   0.00000  Uiso   1.00
C725   C     0.18802   0.47888   0.64384   0.00000  Uiso   1.00
C726   C     0.14450   0.52032   0.85665   0.00000  Uiso   1.00
C727   C     0.12792   0.52118   0.90061   0.00000  Uiso   1.00
C728   C     0.19713   0.46964   0.60061   0.00000  Uiso   1.00
C729   C     0.06881   0.52312   0.96165   0.00000  Uiso   1.00
C730   C     0.15319   0.50744   0.92124   0.00000  Uiso   1.00
C731   C     0.13492   0.49528   0.95992   0.00000  Uiso   1.00
C732   C     0.09296   0.50562   0.98137   0.00000  Uiso   1.00
C733   C     0.15830   0.47480   0.97853   0.00000  Uiso   1.00
C734   C     0.14604   0.47708   0.52034   0.00000  Uiso   1.00
C735   C     0.10296   0.48342   0.54067   0.00000  Uiso   1.00
C736   C     0.07644   0.49728   0.52159   0.00000  Uiso   1.00
Cl737  Cl    0.02303   0.50370   0.55017   0.00000  Uiso   1.00
Cl738  Cl    0.28834   0.41433   0.51597   0.00000  Uiso   1.00
Cl739  Cl    0.03002   0.52844   0.69479   0.00000  Uiso   1.00
Cl740  Cl    0.30856   0.47332   0.80903   0.00000  Uiso   1.00
Cl741  Cl    0.10464   0.66330   0.80085   0.00000  Uiso   1.00
Cl742  Cl    0.14432   0.52787   0.60386   0.00000  Uiso   1.00
Cl743  Cl    0.24786   0.39336   0.94959   0.00000  Uiso   1.00
Cl744  Cl    0.05060   0.54697   0.89856   0.00000  Uiso   1.00
Cl745  Cl    0.18892   0.42364   0.90896   0.00000  Uiso   1.00
F746   F     0.21396   0.33905   0.71094   0.00000  Uiso   1.00
F747   F     0.25620   0.43445   0.59985   0.00000  Uiso   1.00
F748   F     0.02850   0.53333   0.98062   0.00000  Uiso   1.00
F749   F     0.19634   0.50826   0.90418   0.00000  Uiso   1.00
F750   F     0.08488   0.47135   0.57777   0.00000  Uiso   1.00
O751   O     0.16667   0.50000   0.75000   0.00000  Uiso   1.00
O752   O     0.15693   0.45726   0.66625   0.00000  Uiso   1.00
O753   O     0.12687   0.53979   0.83749   0.00000  Uiso   1.00
O754   O     0.21088   0.50826   0.65877   0.00000  Uiso   1.00
O755   O     0.17198   0.49468   0.83749   0.00000  Uiso   1.00
O756   O     0.17849   0.41434   0.77820   0.00000  Uiso   1.00
O757   O     0.14581   0.59469   0.76767   0.00000  Uiso   1.00
O758   O     0.07452   0.46584   0.73607   0.00000  Uiso   1.00
O759   O     0.26785   0.52512   0.71805   0.00000  Uiso   1.00
O760   O     0.06990   0.52293   0.77820   0.00000  Uiso   1.00
O761   O     0.25440   0.48610   0.76767   0.00000  Uiso   1.00
O762   O     0.13800   0.40236   0.73607   0.00000  Uiso   1.00
O763   O     0.20437   0.58860   0.71805   0.00000  Uiso   1.00
Zn764  Zn    0.19244   0.47423   0.78277   0.00000  Uiso   1.00
Zn765  Zn    0.13459   0.45711   0.72257   0.00000  Uiso   1.00
Zn766  Zn    0.21166   0.52997   0.71188   0.00000  Uiso   1.00
Zn767  Zn    0.12798   0.53868   0.78277   0.00000  Uiso   1.00
C768   C     0.38609   0.49350   0.75882   0.00000  Uiso   1.00
C769   C     0.52278   0.44764   0.95730   0.00000  Uiso   1.00
C770   C     0.54820   0.43221   0.97705   0.00000  Uiso   1.00
C771   C     0.61434   0.50666   0.74133   0.00000  Uiso   1.00
C772   C     0.54404   0.44532   0.51813   0.00000  Uiso   1.00
C773   C     0.50890   0.46847   0.53998   0.00000  Uiso   1.00
C774   C     0.57254   0.43575   0.53881   0.00000  Uiso   1.00
C775   C     0.56391   0.44604   0.57994   0.00000  Uiso   1.00
C776   C     0.50549   0.48400   0.58032   0.00000  Uiso   1.00
C777   C     0.66013   0.50723   0.73695   0.00000  Uiso   1.00
C778   C     0.34094   0.49155   0.76368   0.00000  Uiso   1.00
C779   C     0.41874   0.52951   0.92142   0.00000  Uiso   1.00
C780   C     0.51333   0.65540   0.73897   0.00000  Uiso   1.00
C781   C     0.48420   0.34632   0.76320   0.00000  Uiso   1.00
C782   C     0.48974   0.38964   0.75866   0.00000  Uiso   1.00
C783   C     0.50996   0.61100   0.74157   0.00000  Uiso   1.00
C784   C     0.52135   0.47888   0.64384   0.00000  Uiso   1.00
C785   C     0.47784   0.52032   0.85665   0.00000  Uiso   1.00
C786   C     0.46126   0.52118   0.90061   0.00000  Uiso   1.00
C787   C     0.53046   0.46964   0.60061   0.00000  Uiso   1.00
C788   C     0.40215   0.52312   0.96165   0.00000  Uiso   1.00
C789   C     0.48652   0.50744   0.92124   0.00000  Uiso   1.00
C790   C     0.46826   0.49528   0.95992   0.00000  Uiso   1.00
C791   C     0.42629   0.50562   0.98137   0.00000  Uiso   1.00
C792   C     0.49163   0.47480   0.97853   0.00000  Uiso   1.00
C793   C     0.47937   0.47708   0.52034   0.00000  Uiso   1.00
C794   C     0.43629   0.48342   0.54067   0.00000  Uiso   1.00
C795   C     0.40977   0.49728   0.52159   0.00000  Uiso   1.00
Cl796  Cl    0.35636   0.50370   0.55017   0.00000  Uiso   1.00
Cl797  Cl    0.62168   0.41433   0.51597   0.00000  Uiso   1.00
Cl798  Cl    0.36335   0.52844   0.69479   0.00000  Uiso   1.00
Cl799  Cl    0.64189   0.47332   0.80903   0.00000  Uiso   1.00
Cl800  Cl    0.43797   0.66330   0.80085   0.00000  Uiso   1.00
Cl801  Cl    0.47765   0.52787   0.60386   0.00000  Uiso   1.00
Cl802  Cl    0.58119   0.39336   0.94959   0.00000  Uiso   1.00
Cl803  Cl    0.38394   0.54697   0.89856   0.00000  Uiso   1.00
Cl804  Cl    0.52225   0.42364   0.90896   0.00000  Uiso   1.00
F805   F     0.54729   0.33905   0.71094   0.00000  Uiso   1.00
F806   F     0.58953   0.43445   0.59985   0.00000  Uiso   1.00
F807   F     0.36183   0.53333   0.98062   0.00000  Uiso   1.00
F808   F     0.52967   0.50826   0.90418   0.00000  Uiso   1.00
F809   F     0.41822   0.47135   0.57777   0.00000  Uiso   1.00
O810   O     0.50000   0.50000   0.75000   0.00000  Uiso   1.00
O811   O     0.49027   0.45726   0.66625   0.00000  Uiso   1.00
O812   O     0.46020   0.53979   0.83749   0.00000  Uiso   1.00
O813   O     0.54421   0.50826   0.65877   0.00000  Uiso   1.00
O814   O     0.50532   0.49468   0.83749   0.00000  Uiso   1.00
O815   O     0.51182   0.41434   0.77820   0.00000  Uiso   1.00
O816   O     0.47914   0.59469   0.76767   0.00000  Uiso   1.00
O817   O     0.40785   0.46584   0.73607   0.00000  Uiso   1.00
O818   O     0.60119   0.52512   0.71805   0.00000  Uiso   1.00
O819   O     0.40323   0.52293   0.77820   0.00000  Uiso   1.00
O820   O     0.58773   0.48610   0.76767   0.00000  Uiso   1.00
O821   O     0.47133   0.40236   0.73607   0.00000  Uiso   1.00
O822   O     0.53771   0.58860   0.71805   0.00000  Uiso   1.00
Zn823  Zn    0.52577   0.47423   0.78277   0.00000  Uiso   1.00
Zn824  Zn    0.46792   0.45711   0.72257   0.00000  Uiso   1.00
Zn825  Zn    0.54500   0.52997   0.71188   0.00000  Uiso   1.00
Zn826  Zn    0.46131   0.53868   0.78277   0.00000  Uiso   1.00
C827   C     0.71943   0.49350   0.75882   0.00000  Uiso   1.00
C828   C     0.85612   0.44764   0.95730   0.00000  Uiso   1.00
C829   C     0.88153   0.43221   0.97705   0.00000  Uiso   1.00
C830   C     0.94768   0.50666   0.74133   0.00000  Uiso   1.00
C831   C     0.87737   0.44532   0.51813   0.00000  Uiso   1.00
C832   C     0.84223   0.46847   0.53998   0.00000  Uiso   1.00
C833   C     0.90587   0.43575   0.53881   0.00000  Uiso   1.00
C834   C     0.89724   0.44604   0.57994   0.00000  Uiso   1.00
C835   C     0.83882   0.48400   0.58032   0.00000  Uiso   1.00
C836   C     0.99346   0.50723   0.73695   0.00000  Uiso   1.00
C837   C     0.67427   0.49155   0.76368   0.00000  Uiso   1.00
C838   C     0.75207   0.52951   0.92142   0.00000  Uiso   1.00
C839   C     0.84667   0.65540   0.73897   0.00000  Uiso   1.00
C840   C     0.81753   0.34632   0.76320   0.00000  Uiso   1.00
C841   C     0.82307   0.38964   0.75866   0.00000  Uiso   1.00
C842   C     0.84329   0.61100   0.74157   0.00000  Uiso   1.00
C843   C     0.85468   0.47888   0.64384   0.00000  Uiso   1.00
C844   C     0.81117   0.52032   0.85665   0.00000  Uiso   1.00
C845   C     0.79459   0.52118   0.90061   0.00000  Uiso   1.00
C846   C     0.86380   0.46964   0.60061   0.00000  Uiso   1.00
C847   C     0.73548   0.52312   0.96165   0.00000  Uiso   1.00
C848   C     0.81985   0.50744   0.92124   0.00000  Uiso   1.00
C849   C     0.80159   0.49528   0.95992   0.00000  Uiso   1.00
C850   C     0.75963   0.50562   0.98137   0.00000  Uiso   1.00
C851   C     0.82496   0.47480   0.97853   0.00000  Uiso   1.00
C852   C     0.81270   0.47708   0.52034   0.00000  Uiso   1.00
C853   C     0.76962   0.48342   0.54067   0.00000  Uiso   1.00
C854   C     0.74311   0.49728   0.52159   0.00000  Uiso   1.00
Cl855  Cl    0.68969   0.50370   0.55017   0.00000  Uiso   1.00
Cl856  Cl    0.95501   0.41433   0.51597   0.00000  Uiso   1.00
Cl857  Cl    0.69668   0.52844   0.69479   0.00000  Uiso   1.00
Cl858  Cl    0.97522   0.47332   0.80903   0.00000  Uiso   1.00
Cl859  Cl    0.77131   0.66330   0.80085   0.00000  Uiso   1.00
Cl860  Cl    0.81099   0.52787   0.60386   0.00000  Uiso   1.00
Cl861  Cl    0.91452   0.39336   0.94959   0.00000  Uiso   1.00
Cl862  Cl    0.71727   0.54697   0.89856   0.00000  Uiso   1.00
Cl863  Cl    0.85559   0.42364   0.90896   0.00000  Uiso   1.00
F864   F     0.88062   0.33905   0.71094   0.00000  Uiso   1.00
F865   F     0.92287   0.43445   0.59985   0.00000  Uiso   1.00
F866   F     0.69517   0.53333   0.98062   0.00000  Uiso   1.00
F867   F     0.86300   0.50826   0.90418   0.00000  Uiso   1.00
F868   F     0.75155   0.47135   0.57777   0.00000  Uiso   1.00
O869   O     0.83333   0.50000   0.75000   0.00000  Uiso   1.00
O870   O     0.82360   0.45726   0.66625   0.00000  Uiso   1.00
O871   O     0.79354   0.53979   0.83749   0.00000  Uiso   1.00
O872   O     0.87755   0.50826   0.65877   0.00000  Uiso   1.00
O873   O     0.83865   0.49468   0.83749   0.00000  Uiso   1.00
O874   O     0.84515   0.41434   0.77820   0.00000  Uiso   1.00
O875   O     0.81247   0.59469   0.76767   0.00000  Uiso   1.00
O876   O     0.74119   0.46584   0.73607   0.00000  Uiso   1.00
O877   O     0.93452   0.52512   0.71805   0.00000  Uiso   1.00
O878   O     0.73656   0.52293   0.77820   0.00000  Uiso   1.00
O879   O     0.92106   0.48610   0.76767   0.00000  Uiso   1.00
O880   O     0.80467   0.40236   0.73607   0.00000  Uiso   1.00
O881   O     0.87104   0.58860   0.71805   0.00000  Uiso   1.00
Zn882  Zn    0.85910   0.47423   0.78277   0.00000  Uiso   1.00
Zn883  Zn    0.80125   0.45711   0.72257   0.00000  Uiso   1.00
Zn884  Zn    0.87833   0.52997   0.71188   0.00000  Uiso   1.00
Zn885  Zn    0.79465   0.53868   0.78277   0.00000  Uiso   1.00
C886   C     0.05276   0.82683   0.75882   0.00000  Uiso   1.00
C887   C     0.18945   0.78098   0.95730   0.00000  Uiso   1.00
C888   C     0.21487   0.76555   0.97705   0.00000  Uiso   1.00
C889   C     0.28101   0.84000   0.74133   0.00000  Uiso   1.00
C890   C     0.21071   0.77866   0.51813   0.00000  Uiso   1.00
C891   C     0.17557   0.80181   0.53998   0.00000  Uiso   1.00
C892   C     0.23920   0.76908   0.53881   0.00000  Uiso   1.00
C893   C     0.23058   0.77937   0.57994   0.00000  Uiso   1.00
C894   C     0.17216   0.81733   0.58032   0.00000  Uiso   1.00
C895   C     0.32679   0.84056   0.73695   0.00000  Uiso   1.00
C896   C     0.00761   0.82488   0.76368   0.00000  Uiso   1.00
C897   C     0.08540   0.86284   0.92142   0.00000  Uiso   1.00
C898   C     0.18000   0.98873   0.73897   0.00000  Uiso   1.00
C899   C     0.15087   0.67965   0.76320   0.00000  Uiso   1.00
C900   C     0.15640   0.72297   0.75866   0.00000  Uiso   1.00
C901   C     0.17662   0.94434   0.74157   0.00000  Uiso   1.00
C902   C     0.18802   0.81221   0.64384   0.00000  Uiso   1.00
C903   C     0.14450   0.85365   0.85665   0.00000  Uiso   1.00
C904   C     0.12792   0.85451   0.90061   0.00000  Uiso   1.00
C905   C     0.19713   0.80297   0.60061   0.00000  Uiso   1.00
C906   C     0.06881   0.85645   0.96165   0.00000  Uiso   1.00
C907   C     0.15319   0.84077   0.92124   0.00000  Uiso   1.00
C908   C     0.13492   0.82861   0.95992   0.00000  Uiso   1.00
C909   C     0.09296   0.83895   0.98137   0.00000  Uiso   1.00
C910   C     0.15830   0.80813   0.97853   0.00000  Uiso   1.00
C911   C     0.14604   0.81041   0.52034   0.00000  Uiso   1.00
C912   C     0.10296   0.81675   0.54067   0.00000  Uiso   1.00
C913   C     0.07644   0.83061   0.52159   0.00000  Uiso   1.00
Cl914  Cl    0.02303   0.83703   0.55017   0.00000  Uiso   1.00
Cl915  Cl    0.28834   0.74766   0.51597   0.00000  Uiso   1.00
Cl916  Cl    0.03002   0.86177   0.69479   0.00000  Uiso   1.00
Cl917  Cl    0.30856   0.80665   0.80903   0.00000  Uiso   1.00
Cl918  Cl    0.10464   0.99664   0.80085   0.00000  Uiso   1.00
Cl919  Cl    0.14432   0.86120   0.60386   0.00000  Uiso   1.00
Cl920  Cl    0.24786   0.72669   0.94959   0.00000  Uiso   1.00
Cl921  Cl    0.05060   0.88030   0.89856   0.00000  Uiso   1.00
Cl922  Cl    0.18892   0.75697   0.90896   0.00000  Uiso   1.00
F923   F     0.21396   0.67238   0.71094   0.00000  Uiso   1.00
F924   F     0.25620   0.76778   0.59985   0.00000  Uiso   1.00
F925   F     0.02850   0.86667   0.98062   0.00000  Uiso   1.00
F926   F     0.19634   0.84159   0.90418   0.00000  Uiso   1.00
F927   F     0.08488   0.80468   0.57777   0.00000  Uiso   1.00
O928   O     0.16667   0.83333   0.75000   0.00000  Uiso   1.00
O929   O     0.15693   0.79060   0.66625   0.00000  Uiso   1.00
O930   O     0.12687   0.87313   0.83749   0.00000  Uiso   1.00
O931   O     0.21088   0.84159   0.65877   0.00000  Uiso   1.00
O932   O     0.17198   0.82802   0.83749   0.00000  Uiso   1.00
O933   O     0.17849   0.74768   0.77820   0.00000  Uiso   1.00
O934   O     0.14581   0.92803   0.76767   0.00000  Uiso   1.00
O935   O     0.07452   0.79917   0.73607   0.00000  Uiso   1.00
O936   O     0.26785   0.85845   0.71805   0.00000  Uiso   1.00
O937   O     0.06990   0.85627   0.77820   0.00000  Uiso   1.00
O938   O     0.25440   0.81944   0.76767   0.00000  Uiso   1.00
O939   O     0.13800   0.73570   0.73607   0.00000  Uiso   1.00
O940   O     0.20437   0.92193   0.71805   0.00000  Uiso   1.00
Zn941  Zn    0.19244   0.80756   0.78277   0.00000  Uiso   1.00
Zn942  Zn    0.13459   0.79044   0.72257   0.00000  Uiso   1.00
Zn943  Zn    0.21166   0.86331   0.71188   0.00000  Uiso   1.00
Zn944  Zn    0.12798   0.87202   0.78277   0.00000  Uiso   1.00
C945   C     0.38609   0.82683   0.75882   0.00000  Uiso   1.00
C946   C     0.52278   0.78098   0.95730   0.00000  Uiso   1.00
C947   C     0.54820   0.76555   0.97705   0.00000  Uiso   1.00
C948   C     0.61434   0.84000   0.74133   0.00000  Uiso   1.00
C949   C     0.54404   0.77866   0.51813   0.00000  Uiso   1.00
C950   C     0.50890   0.80181   0.53998   0.00000  Uiso   1.00
C951   C     0.57254   0.76908   0.53881   0.00000  Uiso   1.00
C952   C     0.56391   0.77937   0.57994   0.00000  Uiso   1.00
C953   C     0.50549   0.81733   0.58032   0.00000  Uiso   1.00
C954   C     0.66013   0.84056   0.73695   0.00000  Uiso   1.00
C955   C     0.34094   0.82488   0.76368   0.00000  Uiso   1.00
C956   C     0.41874   0.86284   0.92142   0.00000  Uiso   1.00
C957   C     0.51333   0.98873   0.73897   0.00000  Uiso   1.00
C958   C     0.48420   0.67965   0.76320   0.00000  Uiso   1.00
C959   C     0.48974   0.72297   0.75866   0.00000  Uiso   1.00
C960   C     0.50996   0.94434   0.74157   0.00000  Uiso   1.00
C961   C     0.52135   0.81221   0.64384   0.00000  Uiso   1.00
C962   C     0.47784   0.85365   0.85665   0.00000  Uiso   1.00
C963   C     0.46126   0.85451   0.90061   0.00000  Uiso   1.00
C964   C     0.53046   0.80297   0.60061   0.00000  Uiso   1.00
C965   C     0.40215   0.85645   0.96165   0.00000  Uiso   1.00
C966   C     0.48652   0.84077   0.92124   0.00000  Uiso   1.00
C967   C     0.46826   0.82861   0.95992   0.00000  Uiso   1.00
C968   C     0.42629   0.83895   0.98137   0.00000  Uiso   1.00
C969   C     0.49163   0.80813   0.97853   0.00000  Uiso   1.00
C970   C     0.47937   0.81041   0.52034   0.00000  Uiso   1.00
C971   C     0.43629   0.81675   0.54067   0.00000  Uiso   1.00
C972   C     0.40977   0.83061   0.52159   0.00000  Uiso   1.00
Cl973  Cl    0.35636   0.83703   0.55017   0.00000  Uiso   1.00
Cl974  Cl    0.62168   0.74766   0.51597   0.00000  Uiso   1.00
Cl975  Cl    0.36335   0.86177   0.69479   0.00000  Uiso   1.00
Cl976  Cl    0.64189   0.80665   0.80903   0.00000  Uiso   1.00
Cl977  Cl    0.43797   0.99664   0.80085   0.00000  Uiso   1.00
Cl978  Cl    0.47765   0.86120   0.60386   0.00000  Uiso   1.00
Cl979  Cl    0.58119   0.72669   0.94959   0.00000  Uiso   1.00
Cl980  Cl    0.38394   0.88030   0.89856   0.00000  Uiso   1.00
Cl981  Cl    0.52225   0.75697   0.90896   0.00000  Uiso   1.00
F982   F     0.54729   0.67238   0.71094   0.00000  Uiso   1.00
F983   F     0.58953   0.76778   0.59985   0.00000  Uiso   1.00
F984   F     0.36183   0.86667   0.98062   0.00000  Uiso   1.00
F985   F     0.52967   0.84159   0.90418   0.00000  Uiso   1.00
F986   F     0.41822   0.80468   0.57777   0.00000  Uiso   1.00
O987   O     0.50000   0.83333   0.75000   0.00000  Uiso   1.00
O988   O     0.49027   0.79060   0.66625   0.00000  Uiso   1.00
O989   O     0.46020   0.87313   0.83749   0.00000  Uiso   1.00
O990   O     0.54421   0.84159   0.65877   0.00000  Uiso   1.00
O991   O     0.50532   0.82802   0.83749   0.00000  Uiso   1.00
O992   O     0.51182   0.74768   0.77820   0.00000  Uiso   1.00
O993   O     0.47914   0.92803   0.76767   0.00000  Uiso   1.00
O994   O     0.40785   0.79917   0.73607   0.00000  Uiso   1.00
O995   O     0.60119   0.85845   0.71805   0.00000  Uiso   1.00
O996   O     0.40323   0.85627   0.77820   0.00000  Uiso   1.00
O997   O     0.58773   0.81944   0.76767   0.00000  Uiso   1.00
O998   O     0.47133   0.73570   0.73607   0.00000  Uiso   1.00
O999   O     0.53771   0.92193   0.71805   0.00000  Uiso   1.00
Zn1000 Zn    0.52577   0.80756   0.78277   0.00000  Uiso   1.00
Zn1001 Zn    0.46792   0.79044   0.72257   0.00000  Uiso   1.00
Zn1002 Zn    0.54500   0.86331   0.71188   0.00000  Uiso   1.00
Zn1003 Zn    0.46131   0.87202   0.78277   0.00000  Uiso   1.00
C1004  C     0.71943   0.82683   0.75882   0.00000  Uiso   1.00
C1005  C     0.85612   0.78098   0.95730   0.00000  Uiso   1.00
C1006  C     0.88153   0.76555   0.97705   0.00000  Uiso   1.00
C1007  C     0.94768   0.84000   0.74133   0.00000  Uiso   1.00
C1008  C     0.87737   0.77866   0.51813   0.00000  Uiso   1.00
C1009  C     0.84223   0.80181   0.53998   0.00000  Uiso   1.00
C1010  C     0.90587   0.76908   0.53881   0.00000  Uiso   1.00
C1011  C     0.89724   0.77937   0.57994   0.00000  Uiso   1.00
C1012  C     0.83882   0.81733   0.58032   0.00000  Uiso   1.00
C1013  C     0.99346   0.84056   0.73695   0.00000  Uiso   1.00
C1014  C     0.67427   0.82488   0.76368   0.00000  Uiso   1.00
C1015  C     0.75207   0.86284   0.92142   0.00000  Uiso   1.00
C1016  C     0.84667   0.98873   0.73897   0.00000  Uiso   1.00
C1017  C     0.81753   0.67965   0.76320   0.00000  Uiso   1.00
C1018  C     0.82307   0.72297   0.75866   0.00000  Uiso   1.00
C1019  C     0.84329   0.94434   0.74157   0.00000  Uiso   1.00
C1020  C     0.85468   0.81221   0.64384   0.00000  Uiso   1.00
C1021  C     0.81117   0.85365   0.85665   0.00000  Uiso   1.00
C1022  C     0.79459   0.85451   0.90061   0.00000  Uiso   1.00
C1023  C     0.86380   0.80297   0.60061   0.00000  Uiso   1.00
C1024  C     0.73548   0.85645   0.96165   0.00000  Uiso   1.00
C1025  C     0.81985   0.84077   0.92124   0.00000  Uiso   1.00
C1026  C     0.80159   0.82861   0.95992   0.00000  Uiso   1.00
C1027  C     0.75963   0.83895   0.98137   0.00000  Uiso   1.00
C1028  C     0.82496   0.80813   0.97853   0.00000  Uiso   1.00
C1029  C     0.81270   0.81041   0.52034   0.00000  Uiso   1.00
C1030  C     0.76962   0.81675   0.54067   0.00000  Uiso   1.00
C1031  C     0.74311   0.83061   0.52159   0.00000  Uiso   1.00
Cl1032 Cl    0.68969   0.83703   0.55017   0.00000  Uiso   1.00
Cl1033 Cl    0.95501   0.74766   0.51597   0.00000  Uiso   1.00
Cl1034 Cl    0.69668   0.86177   0.69479   0.00000  Uiso   1.00
Cl1035 Cl    0.97522   0.80665   0.80903   0.00000  Uiso   1.00
Cl1036 Cl    0.77131   0.99664   0.80085   0.00000  Uiso   1.00
Cl1037 Cl    0.81099   0.86120   0.60386   0.00000  Uiso   1.00
Cl1038 Cl    0.91452   0.72669   0.94959   0.00000  Uiso   1.00
Cl1039 Cl    0.71727   0.88030   0.89856   0.00000  Uiso   1.00
Cl1040 Cl    0.85559   0.75697   0.90896   0.00000  Uiso   1.00
F1041  F     0.88062   0.67238   0.71094   0.00000  Uiso   1.00
F1042  F     0.92287   0.76778   0.59985   0.00000  Uiso   1.00
F1043  F     0.69517   0.86667   0.98062   0.00000  Uiso   1.00
F1044  F     0.86300   0.84159   0.90418   0.00000  Uiso   1.00
F1045  F     0.75155   0.80468   0.57777   0.00000  Uiso   1.00
O1046  O     0.83333   0.83333   0.75000   0.00000  Uiso   1.00
O1047  O     0.82360   0.79060   0.66625   0.00000  Uiso   1.00
O1048  O     0.79354   0.87313   0.83749   0.00000  Uiso   1.00
O1049  O     0.87755   0.84159   0.65877   0.00000  Uiso   1.00
O1050  O     0.83865   0.82802   0.83749   0.00000  Uiso   1.00
O1051  O     0.84515   0.74768   0.77820   0.00000  Uiso   1.00
O1052  O     0.81247   0.92803   0.76767   0.00000  Uiso   1.00
O1053  O     0.74119   0.79917   0.73607   0.00000  Uiso   1.00
O1054  O     0.93452   0.85845   0.71805   0.00000  Uiso   1.00
O1055  O     0.73656   0.85627   0.77820   0.00000  Uiso   1.00
O1056  O     0.92106   0.81944   0.76767   0.00000  Uiso   1.00
O1057  O     0.80467   0.73570   0.73607   0.00000  Uiso   1.00
O1058  O     0.87104   0.92193   0.71805   0.00000  Uiso   1.00
Zn1059 Zn    0.85910   0.80756   0.78277   0.00000  Uiso   1.00
Zn1060 Zn    0.80125   0.79044   0.72257   0.00000  Uiso   1.00
Zn1061 Zn    0.87833   0.86331   0.71188   0.00000  Uiso   1.00
Zn1062 Zn    0.79465   0.87202   0.78277   0.00000  Uiso   1.00
loop_
_geom_bond_atom_site_label_1
_geom_bond_atom_site_label_2
_geom_bond_distance
_geom_bond_site_symmetry_2
_ccdc_geom_bond_type
C1     O50     1.269   .     A
C1     O52     1.262   .     A
C1     C11     1.429   .     S
C2     C3      1.410   .     A
C2     Cl37    1.779   .     S
C2     C25     1.417   .     A
C3     Cl35    1.772   .     S
C3     C536    1.426   .     S
C4     O53     1.269   .     A
C4     O51     1.282   .     A
C4     C10     1.457   .     S
C5     C6      1.432   .     A
C5     C7      1.430   .     A
C5     C534    1.426   1_554 S
C6     C26     1.420   .     A
C6     C9      1.421   .     A
C7     C8      1.397   .     A
C7     Cl30    1.767   .     S
C8     C20     1.391   .     A
C8     F39     1.360   .     S
C9     C20     1.395   .     A
C9     Cl34    1.778   .     S
C10    C70     1.352   .     S
C10    Cl90    1.773   .     S
C11    C128    1.352   1_455 S
C11    Cl150   1.772   1_455 S
C12    Cl36    1.767   .     S
C12    C19     1.414   .     A
C12    C21     1.399   .     A
C13    C16     1.452   .     S
C13    C191    1.346   .     S
C13    F215    1.363   .     S
C14    C15     1.426   .     S
C14    C367    1.346   1_545 S
C14    Cl387   1.770   1_545 S
C15    O54     1.271   .     A
C15    O48     1.272   .     A
C16    O55     1.274   .     A
C16    O49     1.262   .     A
C17    C20     1.463   .     S
C17    O44     1.281   .     A
C17    O46     1.281   .     A
C18    O47     1.290   .     A
C18    O45     1.284   .     A
C18    C19     1.485   .     S
C19    C22     1.402   .     A
C21    F40     1.357   .     S
C21    C24     1.413   .     A
C22    F41     1.360   .     S
C22    C23     1.411   .     A
C23    C24     1.422   .     A
C23    C25     1.423   .     A
C24    C559    1.415   .     S
C25    C557    1.407   .     S
C26    C27     1.411   .     A
C26    C556    1.407   1_554 S
C27    F42     1.360   .     S
C27    C28     1.397   .     A
C28    Cl29    1.768   .     S
C28    C555    1.415   1_554 S
Cl31   C128    1.773   1_455 S
Cl32   C70     1.772   .     S
Cl33   C191    1.770   .     S
F38    C367    1.363   1_545 S
O43    Zn59    1.928   .     S
O43    Zn57    1.948   .     S
O43    Zn56    1.951   .     S
O43    Zn58    1.934   .     S
O44    Zn57    1.909   .     S
O45    Zn59    1.918   .     S
O46    Zn58    1.915   .     S
O47    Zn56    1.906   .     S
O48    Zn56    1.939   .     S
O49    Zn59    1.940   .     S
O50    Zn57    1.933   .     S
O51    Zn58    1.943   .     S
O52    Zn59    1.943   .     S
O53    Zn56    1.935   .     S
O54    Zn57    1.940   .     S
O55    Zn58    1.937   .     S
C60    O109    1.269   .     A
C60    O111    1.262   .     A
C60    C70     1.429   .     S
C61    C62     1.410   .     A
C61    Cl96    1.779   .     S
C61    C84     1.417   .     A
C62    Cl94    1.772   .     S
C62    C595    1.426   .     S
C63    O112    1.269   .     A
C63    O110    1.282   .     A
C63    C69     1.457   .     S
C64    C65     1.432   .     A
C64    C66     1.430   .     A
C64    C593    1.426   1_554 S
C65    C85     1.420   .     A
C65    C68     1.421   .     A
C66    C67     1.397   .     A
C66    Cl89    1.767   .     S
C67    C79     1.391   .     A
C67    F98     1.360   .     S
C68    C79     1.395   .     A
C68    Cl93    1.778   .     S
C69    C129    1.352   .     S
C69    Cl149   1.773   .     S
C71    Cl95    1.767   .     S
C71    C78     1.414   .     A
C71    C80     1.399   .     A
C72    C75     1.452   .     S
C72    C250    1.346   .     S
C72    F274    1.363   .     S
C73    C74     1.426   .     S
C73    C426    1.346   1_545 S
C73    Cl446   1.770   1_545 S
C74    O113    1.271   .     A
C74    O107    1.272   .     A
C75    O114    1.274   .     A
C75    O108    1.262   .     A
C76    C79     1.463   .     S
C76    O103    1.281   .     A
C76    O105    1.281   .     A
C77    O106    1.290   .     A
C77    O104    1.284   .     A
C77    C78     1.485   .     S
C78    C81     1.402   .     A
C80    F99     1.357   .     S
C80    C83     1.413   .     A
C81    F100    1.360   .     S
C81    C82     1.411   .     A
C82    C83     1.422   .     A
C82    C84     1.423   .     A
C83    C618    1.415   .     S
C84    C616    1.407   .     S
C85    C86     1.411   .     A
C85    C615    1.407   1_554 S
C86    F101    1.360   .     S
C86    C87     1.397   .     A
C87    Cl88    1.768   .     S
C87    C614    1.415   1_554 S
Cl91   C129    1.772   .     S
Cl92   C250    1.770   .     S
F97    C426    1.363   1_545 S
O102   Zn118   1.928   .     S
O102   Zn116   1.948   .     S
O102   Zn115   1.951   .     S
O102   Zn117   1.934   .     S
O103   Zn116   1.909   .     S
O104   Zn118   1.918   .     S
O105   Zn117   1.915   .     S
O106   Zn115   1.906   .     S
O107   Zn115   1.939   .     S
O108   Zn118   1.940   .     S
O109   Zn116   1.933   .     S
O110   Zn117   1.943   .     S
O111   Zn118   1.943   .     S
O112   Zn115   1.935   .     S
O113   Zn116   1.940   .     S
O114   Zn117   1.937   .     S
C119   O168    1.269   .     A
C119   O170    1.262   .     A
C119   C129    1.429   .     S
C120   C121    1.410   .     A
C120   Cl155   1.779   .     S
C120   C143    1.417   .     A
C121   Cl153   1.772   .     S
C121   C654    1.426   .     S
C122   O171    1.269   .     A
C122   O169    1.282   .     A
C122   C128    1.457   .     S
C123   C124    1.432   .     A
C123   C125    1.430   .     A
C123   C652    1.426   1_554 S
C124   C144    1.420   .     A
C124   C127    1.421   .     A
C125   C126    1.397   .     A
C125   Cl148   1.767   .     S
C126   C138    1.391   .     A
C126   F157    1.360   .     S
C127   C138    1.395   .     A
C127   Cl152   1.778   .     S
C128   C11     1.352   1_655 S
C128   Cl31    1.773   1_655 S
C130   Cl154   1.767   .     S
C130   C137    1.414   .     A
C130   C139    1.399   .     A
C131   C134    1.452   .     S
C131   C309    1.346   .     S
C131   F333    1.363   .     S
C132   C133    1.426   .     S
C132   C485    1.346   1_545 S
C132   Cl505   1.770   1_545 S
C133   O172    1.271   .     A
C133   O166    1.272   .     A
C134   O173    1.274   .     A
C134   O167    1.262   .     A
C135   C138    1.463   .     S
C135   O162    1.281   .     A
C135   O164    1.281   .     A
C136   O165    1.290   .     A
C136   O163    1.284   .     A
C136   C137    1.485   .     S
C137   C140    1.402   .     A
C139   F158    1.357   .     S
C139   C142    1.413   .     A
C140   F159    1.360   .     S
C140   C141    1.411   .     A
C141   C142    1.422   .     A
C141   C143    1.423   .     A
C142   C677    1.415   .     S
C143   C675    1.407   .     S
C144   C145    1.411   .     A
C144   C674    1.407   1_554 S
C145   F160    1.360   .     S
C145   C146    1.397   .     A
C146   Cl147   1.768   .     S
C146   C673    1.415   1_554 S
Cl150  C11     1.772   1_655 S
Cl151  C309    1.770   .     S
F156   C485    1.363   1_545 S
O161   Zn177   1.928   .     S
O161   Zn175   1.948   .     S
O161   Zn174   1.951   .     S
O161   Zn176   1.934   .     S
O162   Zn175   1.909   .     S
O163   Zn177   1.918   .     S
O164   Zn176   1.915   .     S
O165   Zn174   1.906   .     S
O166   Zn174   1.939   .     S
O167   Zn177   1.940   .     S
O168   Zn175   1.933   .     S
O169   Zn176   1.943   .     S
O170   Zn177   1.943   .     S
O171   Zn174   1.935   .     S
O172   Zn175   1.940   .     S
O173   Zn176   1.937   .     S
C178   O227    1.269   .     A
C178   O229    1.262   .     A
C178   C188    1.429   .     S
C179   C180    1.410   .     A
C179   Cl214   1.779   .     S
C179   C202    1.417   .     A
C180   Cl212   1.772   .     S
C180   C713    1.426   .     S
C181   O230    1.269   .     A
C181   O228    1.282   .     A
C181   C187    1.457   .     S
C182   C183    1.432   .     A
C182   C184    1.430   .     A
C182   C711    1.426   1_554 S
C183   C203    1.420   .     A
C183   C186    1.421   .     A
C184   C185    1.397   .     A
C184   Cl207   1.767   .     S
C185   C197    1.391   .     A
C185   F216    1.360   .     S
C186   C197    1.395   .     A
C186   Cl211   1.778   .     S
C187   C247    1.352   .     S
C187   Cl267   1.773   .     S
C188   C305    1.352   1_455 S
C188   Cl327   1.772   1_455 S
C189   Cl213   1.767   .     S
C189   C196    1.414   .     A
C189   C198    1.399   .     A
C190   C193    1.452   .     S
C190   C368    1.346   .     S
C190   F392    1.363   .     S
C191   C192    1.426   .     S
C192   O231    1.271   .     A
C192   O225    1.272   .     A
C193   O232    1.274   .     A
C193   O226    1.262   .     A
C194   C197    1.463   .     S
C194   O221    1.281   .     A
C194   O223    1.281   .     A
C195   O224    1.290   .     A
C195   O222    1.284   .     A
C195   C196    1.485   .     S
C196   C199    1.402   .     A
C198   F217    1.357   .     S
C198   C201    1.413   .     A
C199   F218    1.360   .     S
C199   C200    1.411   .     A
C200   C201    1.422   .     A
C200   C202    1.423   .     A
C201   C736    1.415   .     S
C202   C734    1.407   .     S
C203   C204    1.411   .     A
C203   C733    1.407   1_554 S
C204   F219    1.360   .     S
C204   C205    1.397   .     A
C205   Cl206   1.768   .     S
C205   C732    1.415   1_554 S
Cl208  C305    1.773   1_455 S
Cl209  C247    1.772   .     S
Cl210  C368    1.770   .     S
O220   Zn236   1.928   .     S
O220   Zn234   1.948   .     S
O220   Zn233   1.951   .     S
O220   Zn235   1.934   .     S
O221   Zn234   1.909   .     S
O222   Zn236   1.918   .     S
O223   Zn235   1.915   .     S
O224   Zn233   1.906   .     S
O225   Zn233   1.939   .     S
O226   Zn236   1.940   .     S
O227   Zn234   1.933   .     S
O228   Zn235   1.943   .     S
O229   Zn236   1.943   .     S
O230   Zn233   1.935   .     S
O231   Zn234   1.940   .     S
O232   Zn235   1.937   .     S
C237   O286    1.269   .     A
C237   O288    1.262   .     A
C237   C247    1.429   .     S
C238   C239    1.410   .     A
C238   Cl273   1.779   .     S
C238   C261    1.417   .     A
C239   Cl271   1.772   .     S
C239   C772    1.426   .     S
C240   O289    1.269   .     A
C240   O287    1.282   .     A
C240   C246    1.457   .     S
C241   C242    1.432   .     A
C241   C243    1.430   .     A
C241   C770    1.426   1_554 S
C242   C262    1.420   .     A
C242   C245    1.421   .     A
C243   C244    1.397   .     A
C243   Cl266   1.767   .     S
C244   C256    1.391   .     A
C244   F275    1.360   .     S
C245   C256    1.395   .     A
C245   Cl270   1.778   .     S
C246   C306    1.352   .     S
C246   Cl326   1.773   .     S
C248   Cl272   1.767   .     S
C248   C255    1.414   .     A
C248   C257    1.399   .     A
C249   C252    1.452   .     S
C249   C427    1.346   .     S
C249   F451    1.363   .     S
C250   C251    1.426   .     S
C251   O290    1.271   .     A
C251   O284    1.272   .     A
C252   O291    1.274   .     A
C252   O285    1.262   .     A
C253   C256    1.463   .     S
C253   O280    1.281   .     A
C253   O282    1.281   .     A
C254   O283    1.290   .     A
C254   O281    1.284   .     A
C254   C255    1.485   .     S
C255   C258    1.402   .     A
C257   F276    1.357   .     S
C257   C260    1.413   .     A
C258   F277    1.360   .     S
C258   C259    1.411   .     A
C259   C260    1.422   .     A
C259   C261    1.423   .     A
C260   C795    1.415   .     S
C261   C793    1.407   .     S
C262   C263    1.411   .     A
C262   C792    1.407   1_554 S
C263   F278    1.360   .     S
C263   C264    1.397   .     A
C264   Cl265   1.768   .     S
C264   C791    1.415   1_554 S
Cl268  C306    1.772   .     S
Cl269  C427    1.770   .     S
O279   Zn295   1.928   .     S
O279   Zn293   1.948   .     S
O279   Zn292   1.951   .     S
O279   Zn294   1.934   .     S
O280   Zn293   1.909   .     S
O281   Zn295   1.918   .     S
O282   Zn294   1.915   .     S
O283   Zn292   1.906   .     S
O284   Zn292   1.939   .     S
O285   Zn295   1.940   .     S
O286   Zn293   1.933   .     S
O287   Zn294   1.943   .     S
O288   Zn295   1.943   .     S
O289   Zn292   1.935   .     S
O290   Zn293   1.940   .     S
O291   Zn294   1.937   .     S
C296   O345    1.269   .     A
C296   O347    1.262   .     A
C296   C306    1.429   .     S
C297   C298    1.410   .     A
C297   Cl332   1.779   .     S
C297   C320    1.417   .     A
C298   Cl330   1.772   .     S
C298   C831    1.426   .     S
C299   O348    1.269   .     A
C299   O346    1.282   .     A
C299   C305    1.457   .     S
C300   C301    1.432   .     A
C300   C302    1.430   .     A
C300   C829    1.426   1_554 S
C301   C321    1.420   .     A
C301   C304    1.421   .     A
C302   C303    1.397   .     A
C302   Cl325   1.767   .     S
C303   C315    1.391   .     A
C303   F334    1.360   .     S
C304   C315    1.395   .     A
C304   Cl329   1.778   .     S
C305   C188    1.352   1_655 S
C305   Cl208   1.773   1_655 S
C307   Cl331   1.767   .     S
C307   C314    1.414   .     A
C307   C316    1.399   .     A
C308   C311    1.452   .     S
C308   C486    1.346   .     S
C308   F510    1.363   .     S
C309   C310    1.426   .     S
C310   O349    1.271   .     A
C310   O343    1.272   .     A
C311   O350    1.274   .     A
C311   O344    1.262   .     A
C312   C315    1.463   .     S
C312   O339    1.281   .     A
C312   O341    1.281   .     A
C313   O342    1.290   .     A
C313   O340    1.284   .     A
C313   C314    1.485   .     S
C314   C317    1.402   .     A
C316   F335    1.357   .     S
C316   C319    1.413   .     A
C317   F336    1.360   .     S
C317   C318    1.411   .     A
C318   C319    1.422   .     A
C318   C320    1.423   .     A
C319   C854    1.415   .     S
C320   C852    1.407   .     S
C321   C322    1.411   .     A
C321   C851    1.407   1_554 S
C322   F337    1.360   .     S
C322   C323    1.397   .     A
C323   Cl324   1.768   .     S
C323   C850    1.415   1_554 S
Cl327  C188    1.772   1_655 S
Cl328  C486    1.770   .     S
O338   Zn354   1.928   .     S
O338   Zn352   1.948   .     S
O338   Zn351   1.951   .     S
O338   Zn353   1.934   .     S
O339   Zn352   1.909   .     S
O340   Zn354   1.918   .     S
O341   Zn353   1.915   .     S
O342   Zn351   1.906   .     S
O343   Zn351   1.939   .     S
O344   Zn354   1.940   .     S
O345   Zn352   1.933   .     S
O346   Zn353   1.943   .     S
O347   Zn354   1.943   .     S
O348   Zn351   1.935   .     S
O349   Zn352   1.940   .     S
O350   Zn353   1.937   .     S
C355   O404    1.269   .     A
C355   O406    1.262   .     A
C355   C365    1.429   .     S
C356   C357    1.410   .     A
C356   Cl391   1.779   .     S
C356   C379    1.417   .     A
C357   Cl389   1.772   .     S
C357   C890    1.426   .     S
C358   O407    1.269   .     A
C358   O405    1.282   .     A
C358   C364    1.457   .     S
C359   C360    1.432   .     A
C359   C361    1.430   .     A
C359   C888    1.426   1_554 S
C360   C380    1.420   .     A
C360   C363    1.421   .     A
C361   C362    1.397   .     A
C361   Cl384   1.767   .     S
C362   C374    1.391   .     A
C362   F393    1.360   .     S
C363   C374    1.395   .     A
C363   Cl388   1.778   .     S
C364   C424    1.352   .     S
C364   Cl444   1.773   .     S
C365   C482    1.352   1_455 S
C365   Cl504   1.772   1_455 S
C366   Cl390   1.767   .     S
C366   C373    1.414   .     A
C366   C375    1.399   .     A
C367   C370    1.452   .     S
C367   C14     1.346   1_565 S
C367   F38     1.363   1_565 S
C368   C369    1.426   .     S
C369   O408    1.271   .     A
C369   O402    1.272   .     A
C370   O409    1.274   .     A
C370   O403    1.262   .     A
C371   C374    1.463   .     S
C371   O398    1.281   .     A
C371   O400    1.281   .     A
C372   O401    1.290   .     A
C372   O399    1.284   .     A
C372   C373    1.485   .     S
C373   C376    1.402   .     A
C375   F394    1.357   .     S
C375   C378    1.413   .     A
C376   F395    1.360   .     S
C376   C377    1.411   .     A
C377   C378    1.422   .     A
C377   C379    1.423   .     A
C378   C913    1.415   .     S
C379   C911    1.407   .     S
C380   C381    1.411   .     A
C380   C910    1.407   1_554 S
C381   F396    1.360   .     S
C381   C382    1.397   .     A
C382   Cl383   1.768   .     S
C382   C909    1.415   1_554 S
Cl385  C482    1.773   1_455 S
Cl386  C424    1.772   .     S
Cl387  C14     1.770   1_565 S
O397   Zn413   1.928   .     S
O397   Zn411   1.948   .     S
O397   Zn410   1.951   .     S
O397   Zn412   1.934   .     S
O398   Zn411   1.909   .     S
O399   Zn413   1.918   .     S
O400   Zn412   1.915   .     S
O401   Zn410   1.906   .     S
O402   Zn410   1.939   .     S
O403   Zn413   1.940   .     S
O404   Zn411   1.933   .     S
O405   Zn412   1.943   .     S
O406   Zn413   1.943   .     S
O407   Zn410   1.935   .     S
O408   Zn411   1.940   .     S
O409   Zn412   1.937   .     S
C414   O463    1.269   .     A
C414   O465    1.262   .     A
C414   C424    1.429   .     S
C415   C416    1.410   .     A
C415   Cl450   1.779   .     S
C415   C438    1.417   .     A
C416   Cl448   1.772   .     S
C416   C949    1.426   .     S
C417   O466    1.269   .     A
C417   O464    1.282   .     A
C417   C423    1.457   .     S
C418   C419    1.432   .     A
C418   C420    1.430   .     A
C418   C947    1.426   1_554 S
C419   C439    1.420   .     A
C419   C422    1.421   .     A
C420   C421    1.397   .     A
C420   Cl443   1.767   .     S
C421   C433    1.391   .     A
C421   F452    1.360   .     S
C422   C433    1.395   .     A
C422   Cl447   1.778   .     S
C423   C483    1.352   .     S
C423   Cl503   1.773   .     S
C425   Cl449   1.767   .     S
C425   C432    1.414   .     A
C425   C434    1.399   .     A
C426   C429    1.452   .     S
C426   C73     1.346   1_565 S
C426   F97     1.363   1_565 S
C427   C428    1.426   .     S
C428   O467    1.271   .     A
C428   O461    1.272   .     A
C429   O468    1.274   .     A
C429   O462    1.262   .     A
C430   C433    1.463   .     S
C430   O457    1.281   .     A
C430   O459    1.281   .     A
C431   O460    1.290   .     A
C431   O458    1.284   .     A
C431   C432    1.485   .     S
C432   C435    1.402   .     A
C434   F453    1.357   .     S
C434   C437    1.413   .     A
C435   F454    1.360   .     S
C435   C436    1.411   .     A
C436   C437    1.422   .     A
C436   C438    1.423   .     A
C437   C972    1.415   .     S
C438   C970    1.407   .     S
C439   C440    1.411   .     A
C439   C969    1.407   1_554 S
C440   F455    1.360   .     S
C440   C441    1.397   .     A
C441   Cl442   1.768   .     S
C441   C968    1.415   1_554 S
Cl445  C483    1.772   .     S
Cl446  C73     1.770   1_565 S
O456   Zn472   1.928   .     S
O456   Zn470   1.948   .     S
O456   Zn469   1.951   .     S
O456   Zn471   1.934   .     S
O457   Zn470   1.909   .     S
O458   Zn472   1.918   .     S
O459   Zn471   1.915   .     S
O460   Zn469   1.906   .     S
O461   Zn469   1.939   .     S
O462   Zn472   1.940   .     S
O463   Zn470   1.933   .     S
O464   Zn471   1.943   .     S
O465   Zn472   1.943   .     S
O466   Zn469   1.935   .     S
O467   Zn470   1.940   .     S
O468   Zn471   1.937   .     S
C473   O522    1.269   .     A
C473   O524    1.262   .     A
C473   C483    1.429   .     S
C474   C475    1.410   .     A
C474   Cl509   1.779   .     S
C474   C497    1.417   .     A
C475   Cl507   1.772   .     S
C475   C1008   1.426   .     S
C476   O525    1.269   .     A
C476   O523    1.282   .     A
C476   C482    1.457   .     S
C477   C478    1.432   .     A
C477   C479    1.430   .     A
C477   C1006   1.426   1_554 S
C478   C498    1.420   .     A
C478   C481    1.421   .     A
C479   C480    1.397   .     A
C479   Cl502   1.767   .     S
C480   C492    1.391   .     A
C480   F511    1.360   .     S
C481   C492    1.395   .     A
C481   Cl506   1.778   .     S
C482   C365    1.352   1_655 S
C482   Cl385   1.773   1_655 S
C484   Cl508   1.767   .     S
C484   C491    1.414   .     A
C484   C493    1.399   .     A
C485   C488    1.452   .     S
C485   C132    1.346   1_565 S
C485   F156    1.363   1_565 S
C486   C487    1.426   .     S
C487   O526    1.271   .     A
C487   O520    1.272   .     A
C488   O527    1.274   .     A
C488   O521    1.262   .     A
C489   C492    1.463   .     S
C489   O516    1.281   .     A
C489   O518    1.281   .     A
C490   O519    1.290   .     A
C490   O517    1.284   .     A
C490   C491    1.485   .     S
C491   C494    1.402   .     A
C493   F512    1.357   .     S
C493   C496    1.413   .     A
C494   F513    1.360   .     S
C494   C495    1.411   .     A
C495   C496    1.422   .     A
C495   C497    1.423   .     A
C496   C1031   1.415   .     S
C497   C1029   1.407   .     S
C498   C499    1.411   .     A
C498   C1028   1.407   1_554 S
C499   F514    1.360   .     S
C499   C500    1.397   .     A
C500   Cl501   1.768   .     S
C500   C1027   1.415   1_554 S
Cl504  C365    1.772   1_655 S
Cl505  C132    1.770   1_565 S
O515   Zn531   1.928   .     S
O515   Zn529   1.948   .     S
O515   Zn528   1.951   .     S
O515   Zn530   1.934   .     S
O516   Zn529   1.909   .     S
O517   Zn531   1.918   .     S
O518   Zn530   1.915   .     S
O519   Zn528   1.906   .     S
O520   Zn528   1.939   .     S
O521   Zn531   1.940   .     S
O522   Zn529   1.933   .     S
O523   Zn530   1.943   .     S
O524   Zn531   1.943   .     S
O525   Zn528   1.935   .     S
O526   Zn529   1.940   .     S
O527   Zn530   1.937   .     S
C532   O581    1.269   .     A
C532   O583    1.262   .     A
C532   C542    1.429   .     S
C533   C534    1.410   .     A
C533   Cl568   1.779   .     S
C533   C556    1.417   .     A
C534   Cl566   1.772   .     S
C534   C5      1.426   1_556 S
C535   O584    1.269   .     A
C535   O582    1.282   .     A
C535   C541    1.457   .     S
C536   C537    1.432   .     A
C536   C538    1.430   .     A
C537   C557    1.420   .     A
C537   C540    1.421   .     A
C538   C539    1.397   .     A
C538   Cl561   1.767   .     S
C539   C551    1.391   .     A
C539   F570    1.360   .     S
C540   C551    1.395   .     A
C540   Cl565   1.778   .     S
C541   C601    1.352   .     S
C541   Cl621   1.773   .     S
C542   C659    1.352   1_455 S
C542   Cl681   1.772   1_455 S
C543   Cl567   1.767   .     S
C543   C550    1.414   .     A
C543   C552    1.399   .     A
C544   C547    1.452   .     S
C544   C722    1.346   .     S
C544   F746    1.363   .     S
C545   C546    1.426   .     S
C545   C898    1.346   1_545 S
C545   Cl918   1.770   1_545 S
C546   O585    1.271   .     A
C546   O579    1.272   .     A
C547   O586    1.274   .     A
C547   O580    1.262   .     A
C548   C551    1.463   .     S
C548   O575    1.281   .     A
C548   O577    1.281   .     A
C549   O578    1.290   .     A
C549   O576    1.284   .     A
C549   C550    1.485   .     S
C550   C553    1.402   .     A
C552   F571    1.357   .     S
C552   C555    1.413   .     A
C553   F572    1.360   .     S
C553   C554    1.411   .     A
C554   C555    1.422   .     A
C554   C556    1.423   .     A
C555   C28     1.415   1_556 S
C556   C26     1.407   1_556 S
C557   C558    1.411   .     A
C558   F573    1.360   .     S
C558   C559    1.397   .     A
C559   Cl560   1.768   .     S
Cl562  C659    1.773   1_455 S
Cl563  C601    1.772   .     S
Cl564  C722    1.770   .     S
F569   C898    1.363   1_545 S
O574   Zn590   1.928   .     S
O574   Zn588   1.948   .     S
O574   Zn587   1.951   .     S
O574   Zn589   1.934   .     S
O575   Zn588   1.909   .     S
O576   Zn590   1.918   .     S
O577   Zn589   1.915   .     S
O578   Zn587   1.906   .     S
O579   Zn587   1.939   .     S
O580   Zn590   1.940   .     S
O581   Zn588   1.933   .     S
O582   Zn589   1.943   .     S
O583   Zn590   1.943   .     S
O584   Zn587   1.935   .     S
O585   Zn588   1.940   .     S
O586   Zn589   1.937   .     S
C591   O640    1.269   .     A
C591   O642    1.262   .     A
C591   C601    1.429   .     S
C592   C593    1.410   .     A
C592   Cl627   1.779   .     S
C592   C615    1.417   .     A
C593   Cl625   1.772   .     S
C593   C64     1.426   1_556 S
C594   O643    1.269   .     A
C594   O641    1.282   .     A
C594   C600    1.457   .     S
C595   C596    1.432   .     A
C595   C597    1.430   .     A
C596   C616    1.420   .     A
C596   C599    1.421   .     A
C597   C598    1.397   .     A
C597   Cl620   1.767   .     S
C598   C610    1.391   .     A
C598   F629    1.360   .     S
C599   C610    1.395   .     A
C599   Cl624   1.778   .     S
C600   C660    1.352   .     S
C600   Cl680   1.773   .     S
C602   Cl626   1.767   .     S
C602   C609    1.414   .     A
C602   C611    1.399   .     A
C603   C606    1.452   .     S
C603   C781    1.346   .     S
C603   F805    1.363   .     S
C604   C605    1.426   .     S
C604   C957    1.346   1_545 S
C604   Cl977   1.770   1_545 S
C605   O644    1.271   .     A
C605   O638    1.272   .     A
C606   O645    1.274   .     A
C606   O639    1.262   .     A
C607   C610    1.463   .     S
C607   O634    1.281   .     A
C607   O636    1.281   .     A
C608   O637    1.290   .     A
C608   O635    1.284   .     A
C608   C609    1.485   .     S
C609   C612    1.402   .     A
C611   F630    1.357   .     S
C611   C614    1.413   .     A
C612   F631    1.360   .     S
C612   C613    1.411   .     A
C613   C614    1.422   .     A
C613   C615    1.423   .     A
C614   C87     1.415   1_556 S
C615   C85     1.407   1_556 S
C616   C617    1.411   .     A
C617   F632    1.360   .     S
C617   C618    1.397   .     A
C618   Cl619   1.768   .     S
Cl622  C660    1.772   .     S
Cl623  C781    1.770   .     S
F628   C957    1.363   1_545 S
O633   Zn649   1.928   .     S
O633   Zn647   1.948   .     S
O633   Zn646   1.951   .     S
O633   Zn648   1.934   .     S
O634   Zn647   1.909   .     S
O635   Zn649   1.918   .     S
O636   Zn648   1.915   .     S
O637   Zn646   1.906   .     S
O638   Zn646   1.939   .     S
O639   Zn649   1.940   .     S
O640   Zn647   1.933   .     S
O641   Zn648   1.943   .     S
O642   Zn649   1.943   .     S
O643   Zn646   1.935   .     S
O644   Zn647   1.940   .     S
O645   Zn648   1.937   .     S
C650   O699    1.269   .     A
C650   O701    1.262   .     A
C650   C660    1.429   .     S
C651   C652    1.410   .     A
C651   Cl686   1.779   .     S
C651   C674    1.417   .     A
C652   Cl684   1.772   .     S
C652   C123    1.426   1_556 S
C653   O702    1.269   .     A
C653   O700    1.282   .     A
C653   C659    1.457   .     S
C654   C655    1.432   .     A
C654   C656    1.430   .     A
C655   C675    1.420   .     A
C655   C658    1.421   .     A
C656   C657    1.397   .     A
C656   Cl679   1.767   .     S
C657   C669    1.391   .     A
C657   F688    1.360   .     S
C658   C669    1.395   .     A
C658   Cl683   1.778   .     S
C659   C542    1.352   1_655 S
C659   Cl562   1.773   1_655 S
C661   Cl685   1.767   .     S
C661   C668    1.414   .     A
C661   C670    1.399   .     A
C662   C665    1.452   .     S
C662   C840    1.346   .     S
C662   F864    1.363   .     S
C663   C664    1.426   .     S
C663   C1016   1.346   1_545 S
C663   Cl1036  1.770   1_545 S
C664   O703    1.271   .     A
C664   O697    1.272   .     A
C665   O704    1.274   .     A
C665   O698    1.262   .     A
C666   C669    1.463   .     S
C666   O693    1.281   .     A
C666   O695    1.281   .     A
C667   O696    1.290   .     A
C667   O694    1.284   .     A
C667   C668    1.485   .     S
C668   C671    1.402   .     A
C670   F689    1.357   .     S
C670   C673    1.413   .     A
C671   F690    1.360   .     S
C671   C672    1.411   .     A
C672   C673    1.422   .     A
C672   C674    1.423   .     A
C673   C146    1.415   1_556 S
C674   C144    1.407   1_556 S
C675   C676    1.411   .     A
C676   F691    1.360   .     S
C676   C677    1.397   .     A
C677   Cl678   1.768   .     S
Cl681  C542    1.772   1_655 S
Cl682  C840    1.770   .     S
F687   C1016   1.363   1_545 S
O692   Zn708   1.928   .     S
O692   Zn706   1.948   .     S
O692   Zn705   1.951   .     S
O692   Zn707   1.934   .     S
O693   Zn706   1.909   .     S
O694   Zn708   1.918   .     S
O695   Zn707   1.915   .     S
O696   Zn705   1.906   .     S
O697   Zn705   1.939   .     S
O698   Zn708   1.940   .     S
O699   Zn706   1.933   .     S
O700   Zn707   1.943   .     S
O701   Zn708   1.943   .     S
O702   Zn705   1.935   .     S
O703   Zn706   1.940   .     S
O704   Zn707   1.937   .     S
C709   O758    1.269   .     A
C709   O760    1.262   .     A
C709   C719    1.429   .     S
C710   C711    1.410   .     A
C710   Cl745   1.779   .     S
C710   C733    1.417   .     A
C711   Cl743   1.772   .     S
C711   C182    1.426   1_556 S
C712   O761    1.269   .     A
C712   O759    1.282   .     A
C712   C718    1.457   .     S
C713   C714    1.432   .     A
C713   C715    1.430   .     A
C714   C734    1.420   .     A
C714   C717    1.421   .     A
C715   C716    1.397   .     A
C715   Cl738   1.767   .     S
C716   C728    1.391   .     A
C716   F747    1.360   .     S
C717   C728    1.395   .     A
C717   Cl742   1.778   .     S
C718   C778    1.352   .     S
C718   Cl798   1.773   .     S
C719   C836    1.352   1_455 S
C719   Cl858   1.772   1_455 S
C720   Cl744   1.767   .     S
C720   C727    1.414   .     A
C720   C729    1.399   .     A
C721   C724    1.452   .     S
C721   C899    1.346   .     S
C721   F923    1.363   .     S
C722   C723    1.426   .     S
C723   O762    1.271   .     A
C723   O756    1.272   .     A
C724   O763    1.274   .     A
C724   O757    1.262   .     A
C725   C728    1.463   .     S
C725   O752    1.281   .     A
C725   O754    1.281   .     A
C726   O755    1.290   .     A
C726   O753    1.284   .     A
C726   C727    1.485   .     S
C727   C730    1.402   .     A
C729   F748    1.357   .     S
C729   C732    1.413   .     A
C730   F749    1.360   .     S
C730   C731    1.411   .     A
C731   C732    1.422   .     A
C731   C733    1.423   .     A
C732   C205    1.415   1_556 S
C733   C203    1.407   1_556 S
C734   C735    1.411   .     A
C735   F750    1.360   .     S
C735   C736    1.397   .     A
C736   Cl737   1.768   .     S
Cl739  C836    1.773   1_455 S
Cl740  C778    1.772   .     S
Cl741  C899    1.770   .     S
O751   Zn767   1.928   .     S
O751   Zn765   1.948   .     S
O751   Zn764   1.951   .     S
O751   Zn766   1.934   .     S
O752   Zn765   1.909   .     S
O753   Zn767   1.918   .     S
O754   Zn766   1.915   .     S
O755   Zn764   1.906   .     S
O756   Zn764   1.939   .     S
O757   Zn767   1.940   .     S
O758   Zn765   1.933   .     S
O759   Zn766   1.943   .     S
O760   Zn767   1.943   .     S
O761   Zn764   1.935   .     S
O762   Zn765   1.940   .     S
O763   Zn766   1.937   .     S
C768   O817    1.269   .     A
C768   O819    1.262   .     A
C768   C778    1.429   .     S
C769   C770    1.410   .     A
C769   Cl804   1.779   .     S
C769   C792    1.417   .     A
C770   Cl802   1.772   .     S
C770   C241    1.426   1_556 S
C771   O820    1.269   .     A
C771   O818    1.282   .     A
C771   C777    1.457   .     S
C772   C773    1.432   .     A
C772   C774    1.430   .     A
C773   C793    1.420   .     A
C773   C776    1.421   .     A
C774   C775    1.397   .     A
C774   Cl797   1.767   .     S
C775   C787    1.391   .     A
C775   F806    1.360   .     S
C776   C787    1.395   .     A
C776   Cl801   1.778   .     S
C777   C837    1.352   .     S
C777   Cl857   1.773   .     S
C779   Cl803   1.767   .     S
C779   C786    1.414   .     A
C779   C788    1.399   .     A
C780   C783    1.452   .     S
C780   C958    1.346   .     S
C780   F982    1.363   .     S
C781   C782    1.426   .     S
C782   O821    1.271   .     A
C782   O815    1.272   .     A
C783   O822    1.274   .     A
C783   O816    1.262   .     A
C784   C787    1.463   .     S
C784   O811    1.281   .     A
C784   O813    1.281   .     A
C785   O814    1.290   .     A
C785   O812    1.284   .     A
C785   C786    1.485   .     S
C786   C789    1.402   .     A
C788   F807    1.357   .     S
C788   C791    1.413   .     A
C789   F808    1.360   .     S
C789   C790    1.411   .     A
C790   C791    1.422   .     A
C790   C792    1.423   .     A
C791   C264    1.415   1_556 S
C792   C262    1.407   1_556 S
C793   C794    1.411   .     A
C794   F809    1.360   .     S
C794   C795    1.397   .     A
C795   Cl796   1.768   .     S
Cl799  C837    1.772   .     S
Cl800  C958    1.770   .     S
O810   Zn826   1.928   .     S
O810   Zn824   1.948   .     S
O810   Zn823   1.951   .     S
O810   Zn825   1.934   .     S
O811   Zn824   1.909   .     S
O812   Zn826   1.918   .     S
O813   Zn825   1.915   .     S
O814   Zn823   1.906   .     S
O815   Zn823   1.939   .     S
O816   Zn826   1.940   .     S
O817   Zn824   1.933   .     S
O818   Zn825   1.943   .     S
O819   Zn826   1.943   .     S
O820   Zn823   1.935   .     S
O821   Zn824   1.940   .     S
O822   Zn825   1.937   .     S
C827   O876    1.269   .     A
C827   O878    1.262   .     A
C827   C837    1.429   .     S
C828   C829    1.410   .     A
C828   Cl863   1.779   .     S
C828   C851    1.417   .     A
C829   Cl861   1.772   .     S
C829   C300    1.426   1_556 S
C830   O879    1.269   .     A
C830   O877    1.282   .     A
C830   C836    1.457   .     S
C831   C832    1.432   .     A
C831   C833    1.430   .     A
C832   C852    1.420   .     A
C832   C835    1.421   .     A
C833   C834    1.397   .     A
C833   Cl856   1.767   .     S
C834   C846    1.391   .     A
C834   F865    1.360   .     S
C835   C846    1.395   .     A
C835   Cl860   1.778   .     S
C836   C719    1.352   1_655 S
C836   Cl739   1.773   1_655 S
C838   Cl862   1.767   .     S
C838   C845    1.414   .     A
C838   C847    1.399   .     A
C839   C842    1.452   .     S
C839   C1017   1.346   .     S
C839   F1041   1.363   .     S
C840   C841    1.426   .     S
C841   O880    1.271   .     A
C841   O874    1.272   .     A
C842   O881    1.274   .     A
C842   O875    1.262   .     A
C843   C846    1.463   .     S
C843   O870    1.281   .     A
C843   O872    1.281   .     A
C844   O873    1.290   .     A
C844   O871    1.284   .     A
C844   C845    1.485   .     S
C845   C848    1.402   .     A
C847   F866    1.357   .     S
C847   C850    1.413   .     A
C848   F867    1.360   .     S
C848   C849    1.411   .     A
C849   C850    1.422   .     A
C849   C851    1.423   .     A
C850   C323    1.415   1_556 S
C851   C321    1.407   1_556 S
C852   C853    1.411   .     A
C853   F868    1.360   .     S
C853   C854    1.397   .     A
C854   Cl855   1.768   .     S
Cl858  C719    1.772   1_655 S
Cl859  C1017   1.770   .     S
O869   Zn885   1.928   .     S
O869   Zn883   1.948   .     S
O869   Zn882   1.951   .     S
O869   Zn884   1.934   .     S
O870   Zn883   1.909   .     S
O871   Zn885   1.918   .     S
O872   Zn884   1.915   .     S
O873   Zn882   1.906   .     S
O874   Zn882   1.939   .     S
O875   Zn885   1.940   .     S
O876   Zn883   1.933   .     S
O877   Zn884   1.943   .     S
O878   Zn885   1.943   .     S
O879   Zn882   1.935   .     S
O880   Zn883   1.940   .     S
O881   Zn884   1.937   .     S
C886   O935    1.269   .     A
C886   O937    1.262   .     A
C886   C896    1.429   .     S
C887   C888    1.410   .     A
C887   Cl922   1.779   .     S
C887   C910    1.417   .     A
C888   Cl920   1.772   .     S
C888   C359    1.426   1_556 S
C889   O938    1.269   .     A
C889   O936    1.282   .     A
C889   C895    1.457   .     S
C890   C891    1.432   .     A
C890   C892    1.430   .     A
C891   C911    1.420   .     A
C891   C894    1.421   .     A
C892   C893    1.397   .     A
C892   Cl915   1.767   .     S
C893   C905    1.391   .     A
C893   F924    1.360   .     S
C894   C905    1.395   .     A
C894   Cl919   1.778   .     S
C895   C955    1.352   .     S
C895   Cl975   1.773   .     S
C896   C1013   1.352   1_455 S
C896   Cl1035  1.772   1_455 S
C897   Cl921   1.767   .     S
C897   C904    1.414   .     A
C897   C906    1.399   .     A
C898   C901    1.452   .     S
C898   C545    1.346   1_565 S
C898   F569    1.363   1_565 S
C899   C900    1.426   .     S
C900   O939    1.271   .     A
C900   O933    1.272   .     A
C901   O940    1.274   .     A
C901   O934    1.262   .     A
C902   C905    1.463   .     S
C902   O929    1.281   .     A
C902   O931    1.281   .     A
C903   O932    1.290   .     A
C903   O930    1.284   .     A
C903   C904    1.485   .     S
C904   C907    1.402   .     A
C906   F925    1.357   .     S
C906   C909    1.413   .     A
C907   F926    1.360   .     S
C907   C908    1.411   .     A
C908   C909    1.422   .     A
C908   C910    1.423   .     A
C909   C382    1.415   1_556 S
C910   C380    1.407   1_556 S
C911   C912    1.411   .     A
C912   F927    1.360   .     S
C912   C913    1.397   .     A
C913   Cl914   1.768   .     S
Cl916  C1013   1.773   1_455 S
Cl917  C955    1.772   .     S
Cl918  C545    1.770   1_565 S
O928   Zn944   1.928   .     S
O928   Zn942   1.948   .     S
O928   Zn941   1.951   .     S
O928   Zn943   1.934   .     S
O929   Zn942   1.909   .     S
O930   Zn944   1.918   .     S
O931   Zn943   1.915   .     S
O932   Zn941   1.906   .     S
O933   Zn941   1.939   .     S
O934   Zn944   1.940   .     S
O935   Zn942   1.933   .     S
O936   Zn943   1.943   .     S
O937   Zn944   1.943   .     S
O938   Zn941   1.935   .     S
O939   Zn942   1.940   .     S
O940   Zn943   1.937   .     S
C945   O994    1.269   .     A
C945   O996    1.262   .     A
C945   C955    1.429   .     S
C946   C947    1.410   .     A
C946   Cl981   1.779   .     S
C946   C969    1.417   .     A
C947   Cl979   1.772   .     S
C947   C418    1.426   1_556 S
C948   O997    1.269   .     A
C948   O995    1.282   .     A
C948   C954    1.457   .     S
C949   C950    1.432   .     A
C949   C951    1.430   .     A
C950   C970    1.420   .     A
C950   C953    1.421   .     A
C951   C952    1.397   .     A
C951   Cl974   1.767   .     S
C952   C964    1.391   .     A
C952   F983    1.360   .     S
C953   C964    1.395   .     A
C953   Cl978   1.778   .     S
C954   C1014   1.352   .     S
C954   Cl1034  1.773   .     S
C956   Cl980   1.767   .     S
C956   C963    1.414   .     A
C956   C965    1.399   .     A
C957   C960    1.452   .     S
C957   C604    1.346   1_565 S
C957   F628    1.363   1_565 S
C958   C959    1.426   .     S
C959   O998    1.271   .     A
C959   O992    1.272   .     A
C960   O999    1.274   .     A
C960   O993    1.262   .     A
C961   C964    1.463   .     S
C961   O988    1.281   .     A
C961   O990    1.281   .     A
C962   O991    1.290   .     A
C962   O989    1.284   .     A
C962   C963    1.485   .     S
C963   C966    1.402   .     A
C965   F984    1.357   .     S
C965   C968    1.413   .     A
C966   F985    1.360   .     S
C966   C967    1.411   .     A
C967   C968    1.422   .     A
C967   C969    1.423   .     A
C968   C441    1.415   1_556 S
C969   C439    1.407   1_556 S
C970   C971    1.411   .     A
C971   F986    1.360   .     S
C971   C972    1.397   .     A
C972   Cl973   1.768   .     S
Cl976  C1014   1.772   .     S
Cl977  C604    1.770   1_565 S
O987   Zn1003  1.928   .     S
O987   Zn1001  1.948   .     S
O987   Zn1000  1.951   .     S
O987   Zn1002  1.934   .     S
O988   Zn1001  1.909   .     S
O989   Zn1003  1.918   .     S
O990   Zn1002  1.915   .     S
O991   Zn1000  1.906   .     S
O992   Zn1000  1.939   .     S
O993   Zn1003  1.940   .     S
O994   Zn1001  1.933   .     S
O995   Zn1002  1.943   .     S
O996   Zn1003  1.943   .     S
O997   Zn1000  1.935   .     S
O998   Zn1001  1.940   .     S
O999   Zn1002  1.937   .     S
C1004  O1053   1.269   .     A
C1004  O1055   1.262   .     A
C1004  C1014   1.429   .     S
C1005  C1006   1.410   .     A
C1005  Cl1040  1.779   .     S
C1005  C1028   1.417   .     A
C1006  Cl1038  1.772   .     S
C1006  C477    1.426   1_556 S
C1007  O1056   1.269   .     A
C1007  O1054   1.282   .     A
C1007  C1013   1.457   .     S
C1008  C1009   1.432   .     A
C1008  C1010   1.430   .     A
C1009  C1029   1.420   .     A
C1009  C1012   1.421   .     A
C1010  C1011   1.397   .     A
C1010  Cl1033  1.767   .     S
C1011  C1023   1.391   .     A
C1011  F1042   1.360   .     S
C1012  C1023   1.395   .     A
C1012  Cl1037  1.778   .     S
C1013  C896    1.352   1_655 S
C1013  Cl916   1.773   1_655 S
C1015  Cl1039  1.767   .     S
C1015  C1022   1.414   .     A
C1015  C1024   1.399   .     A
C1016  C1019   1.452   .     S
C1016  C663    1.346   1_565 S
C1016  F687    1.363   1_565 S
C1017  C1018   1.426   .     S
C1018  O1057   1.271   .     A
C1018  O1051   1.272   .     A
C1019  O1058   1.274   .     A
C1019  O1052   1.262   .     A
C1020  C1023   1.463   .     S
C1020  O1047   1.281   .     A
C1020  O1049   1.281   .     A
C1021  O1050   1.290   .     A
C1021  O1048   1.284   .     A
C1021  C1022   1.485   .     S
C1022  C1025   1.402   .     A
C1024  F1043   1.357   .     S
C1024  C1027   1.413   .     A
C1025  F1044   1.360   .     S
C1025  C1026   1.411   .     A
C1026  C1027   1.422   .     A
C1026  C1028   1.423   .     A
C1027  C500    1.415   1_556 S
C1028  C498    1.407   1_556 S
C1029  C1030   1.411   .     A
C1030  F1045   1.360   .     S
C1030  C1031   1.397   .     A
C1031  Cl1032  1.768   .     S
Cl1035 C896    1.772   1_655 S
Cl1036 C663    1.770   1_565 S
O1046  Zn1062  1.928   .     S
O1046  Zn1060  1.948   .     S
O1046  Zn1059  1.951   .     S
O1046  Zn1061  1.934   .     S
O1047  Zn1060  1.909   .     S
O1048  Zn1062  1.918   .     S
O1049  Zn1061  1.915   .     S
O1050  Zn1059  1.906   .     S
O1051  Zn1059  1.939   .     S
O1052  Zn1062  1.940   .     S
O1053  Zn1060  1.933   .     S
O1054  Zn1061  1.943   .     S
O1055  Zn1062  1.943   .     S
O1056  Zn1059  1.935   .     S
O1057  Zn1060  1.940   .     S
O1058  Zn1061  1.937   .     S
