data_str_m1_o10_o18_pcu_sym.216
_audit_creation_date              2020-01-03
_audit_creation_method            'Materials Studio'
_symmetry_space_group_name_H-M    'P1'
_symmetry_Int_Tables_number       1
_symmetry_cell_setting            triclinic
loop_
_symmetry_equiv_pos_as_xyz
  x,y,z
_cell_length_a                    32.7018
_cell_length_b                    32.5037
_cell_length_c                    35.4326
_cell_angle_alpha                 97.7302
_cell_angle_beta                  73.2325
_cell_angle_gamma                 98.3679
loop_
_atom_site_label
_atom_site_type_symbol
_atom_site_fract_x
_atom_site_fract_y
_atom_site_fract_z
_atom_site_U_iso_or_equiv
_atom_site_adp_type
_atom_site_occupancy
C1     C     0.05286   0.16020   0.25832   0.00000  Uiso   1.00
C2     C     0.22084   0.15051   0.45630   0.00000  Uiso   1.00
C3     C     0.24267   0.13082   0.47601   0.00000  Uiso   1.00
C4     C     0.28100   0.17331   0.24140   0.00000  Uiso   1.00
C5     C     0.22862   0.13182   0.01783   0.00000  Uiso   1.00
C6     C     0.19914   0.16112   0.03885   0.00000  Uiso   1.00
C7     C     0.24178   0.10465   0.03977   0.00000  Uiso   1.00
C8     C     0.22827   0.10971   0.08119   0.00000  Uiso   1.00
C9     C     0.18244   0.16075   0.07998   0.00000  Uiso   1.00
C10    C     0.32651   0.17581   0.23907   0.00000  Uiso   1.00
C11    C     0.00733   0.15621   0.26331   0.00000  Uiso   1.00
C12    C     0.11580   0.23108   0.41979   0.00000  Uiso   1.00
C13    C     0.18096   0.32218   0.23794   0.00000  Uiso   1.00
C14    C     0.15200   0.01208   0.26233   0.00000  Uiso   1.00
C15    C     0.15609   0.05609   0.25894   0.00000  Uiso   1.00
C16    C     0.17691   0.27767   0.24130   0.00000  Uiso   1.00
C17    C     0.18820   0.14551   0.14394   0.00000  Uiso   1.00
C18    C     0.14574   0.18779   0.35631   0.00000  Uiso   1.00
C19    C     0.14074   0.19940   0.39894   0.00000  Uiso   1.00
C20    C     0.19866   0.13734   0.10103   0.00000  Uiso   1.00
C21    C     0.11477   0.24420   0.45914   0.00000  Uiso   1.00
C22    C     0.32477   0.12495   0.32627   0.00000  Uiso   1.00
C23    C     0.16373   0.18039   0.41827   0.00000  Uiso   1.00
C24    C     0.31899   0.14114   0.44729   0.00000  Uiso   1.00
C25    C     0.16458   0.19432   0.45745   0.00000  Uiso   1.00
C26    C     0.13917   0.22628   0.47801   0.00000  Uiso   1.00
C27    C     0.18926   0.17672   0.47696   0.00000  Uiso   1.00
C28    C     0.18420   0.18769   0.01799   0.00000  Uiso   1.00
C29    C     0.16427   0.22452   0.03592   0.00000  Uiso   1.00
C30    C     0.14025   0.24171   0.01641   0.00000  Uiso   1.00
H31    H     0.12384   0.26874   0.03066   0.00000  Uiso   1.00
H32    H     0.23175   0.14746   0.42436   0.00000  Uiso   1.00
H33    H     0.28036   0.00407   0.03848   0.00000  Uiso   1.00
H34    H     0.30248   0.10066   0.27725   0.00000  Uiso   1.00
H35    H     0.29806   0.10675   0.34660   0.00000  Uiso   1.00
H36    H     0.33079   0.15634   0.34178   0.00000  Uiso   1.00
H37    H     0.02059   0.10839   0.31889   0.00000  Uiso   1.00
H38    H     0.27675   0.09626   0.42685   0.00000  Uiso   1.00
H39    H     0.01367   0.12406   0.43126   0.00000  Uiso   1.00
H40    H     0.32372   0.15538   0.47627   0.00000  Uiso   1.00
H41    H     0.31747   0.16621   0.42942   0.00000  Uiso   1.00
H42    H     0.01586   0.19479   0.21745   0.00000  Uiso   1.00
H43    H     0.14783   0.26610   0.13965   0.00000  Uiso   1.00
H44    H     0.20768   0.00281   0.21549   0.00000  Uiso   1.00
H45    H     0.12495   0.33222   0.28491   0.00000  Uiso   1.00
H46    H     0.15647   0.17854   0.09629   0.00000  Uiso   1.00
H47    H     0.23995   0.09128   0.09835   0.00000  Uiso   1.00
H48    H     0.09559   0.26903   0.47458   0.00000  Uiso   1.00
H49    H     0.09768   0.24620   0.40553   0.00000  Uiso   1.00
H50    H     0.18056   0.15445   0.40222   0.00000  Uiso   1.00
N51    N     0.31285   0.12880   0.29069   0.00000  Uiso   1.00
N52    N     0.28003   0.11237   0.45317   0.00000  Uiso   1.00
O53    O     0.16667   0.16667   0.25000   0.00000  Uiso   1.00
O54    O     0.15693   0.12393   0.16625   0.00000  Uiso   1.00
O55    O     0.12687   0.20646   0.33749   0.00000  Uiso   1.00
O56    O     0.21088   0.17493   0.15877   0.00000  Uiso   1.00
O57    O     0.17198   0.16135   0.33749   0.00000  Uiso   1.00
O58    O     0.25266   0.03736   0.48598   0.00000  Uiso   1.00
O59    O     0.31724   0.07528   0.00199   0.00000  Uiso   1.00
O60    O     0.26547   0.02831   0.05303   0.00000  Uiso   1.00
O61    O     0.21848   0.24730   0.08219   0.00000  Uiso   1.00
O62    O     0.18210   0.30192   0.06860   0.00000  Uiso   1.00
O63    O     0.13694   0.24997   0.11806   0.00000  Uiso   1.00
O64    O     0.17849   0.08101   0.27820   0.00000  Uiso   1.00
O65    O     0.14581   0.26136   0.26767   0.00000  Uiso   1.00
O66    O     0.07452   0.13251   0.23607   0.00000  Uiso   1.00
O67    O     0.26785   0.19179   0.21805   0.00000  Uiso   1.00
O68    O     0.06990   0.18960   0.27820   0.00000  Uiso   1.00
O69    O     0.25440   0.15277   0.26767   0.00000  Uiso   1.00
O70    O     0.13800   0.06903   0.23607   0.00000  Uiso   1.00
O71    O     0.20437   0.25527   0.21805   0.00000  Uiso   1.00
S72    S     0.27038   0.06085   0.01844   0.00000  Uiso   1.00
S73    S     0.17714   0.25692   0.07655   0.00000  Uiso   1.00
Zn74   Zn    0.19244   0.14090   0.28277   0.00000  Uiso   1.00
Zn75   Zn    0.13459   0.12378   0.22257   0.00000  Uiso   1.00
Zn76   Zn    0.21166   0.19664   0.21188   0.00000  Uiso   1.00
Zn77   Zn    0.12798   0.20535   0.28277   0.00000  Uiso   1.00
C78    C     0.38620   0.16020   0.25832   0.00000  Uiso   1.00
C79    C     0.55417   0.15051   0.45630   0.00000  Uiso   1.00
C80    C     0.57600   0.13082   0.47601   0.00000  Uiso   1.00
C81    C     0.61434   0.17331   0.24140   0.00000  Uiso   1.00
C82    C     0.56195   0.13182   0.01783   0.00000  Uiso   1.00
C83    C     0.53248   0.16112   0.03885   0.00000  Uiso   1.00
C84    C     0.57511   0.10465   0.03977   0.00000  Uiso   1.00
C85    C     0.56160   0.10971   0.08119   0.00000  Uiso   1.00
C86    C     0.51577   0.16075   0.07998   0.00000  Uiso   1.00
C87    C     0.65984   0.17581   0.23907   0.00000  Uiso   1.00
C88    C     0.34066   0.15621   0.26331   0.00000  Uiso   1.00
C89    C     0.44913   0.23108   0.41979   0.00000  Uiso   1.00
C90    C     0.51429   0.32218   0.23794   0.00000  Uiso   1.00
C91    C     0.48534   0.01208   0.26233   0.00000  Uiso   1.00
C92    C     0.48943   0.05609   0.25894   0.00000  Uiso   1.00
C93    C     0.51025   0.27767   0.24130   0.00000  Uiso   1.00
C94    C     0.52153   0.14551   0.14394   0.00000  Uiso   1.00
C95    C     0.47907   0.18779   0.35631   0.00000  Uiso   1.00
C96    C     0.47407   0.19940   0.39894   0.00000  Uiso   1.00
C97    C     0.53200   0.13734   0.10103   0.00000  Uiso   1.00
C98    C     0.44810   0.24420   0.45914   0.00000  Uiso   1.00
C99    C     0.65811   0.12495   0.32627   0.00000  Uiso   1.00
C100   C     0.49706   0.18039   0.41827   0.00000  Uiso   1.00
C101   C     0.65232   0.14114   0.44729   0.00000  Uiso   1.00
C102   C     0.49791   0.19432   0.45745   0.00000  Uiso   1.00
C103   C     0.47250   0.22628   0.47801   0.00000  Uiso   1.00
C104   C     0.52259   0.17672   0.47696   0.00000  Uiso   1.00
C105   C     0.51754   0.18769   0.01799   0.00000  Uiso   1.00
C106   C     0.49761   0.22452   0.03592   0.00000  Uiso   1.00
C107   C     0.47358   0.24171   0.01641   0.00000  Uiso   1.00
H108   H     0.45718   0.26874   0.03066   0.00000  Uiso   1.00
H109   H     0.56508   0.14746   0.42436   0.00000  Uiso   1.00
H110   H     0.61369   0.00407   0.03848   0.00000  Uiso   1.00
H111   H     0.63581   0.10066   0.27725   0.00000  Uiso   1.00
H112   H     0.63140   0.10675   0.34660   0.00000  Uiso   1.00
H113   H     0.66412   0.15634   0.34178   0.00000  Uiso   1.00
H114   H     0.35393   0.10839   0.31889   0.00000  Uiso   1.00
H115   H     0.61009   0.09626   0.42685   0.00000  Uiso   1.00
H116   H     0.34700   0.12406   0.43126   0.00000  Uiso   1.00
H117   H     0.65706   0.15538   0.47627   0.00000  Uiso   1.00
H118   H     0.65080   0.16621   0.42942   0.00000  Uiso   1.00
H119   H     0.34919   0.19479   0.21745   0.00000  Uiso   1.00
H120   H     0.48116   0.26610   0.13965   0.00000  Uiso   1.00
H121   H     0.54102   0.00281   0.21549   0.00000  Uiso   1.00
H122   H     0.45829   0.33222   0.28491   0.00000  Uiso   1.00
H123   H     0.48980   0.17854   0.09629   0.00000  Uiso   1.00
H124   H     0.57328   0.09128   0.09835   0.00000  Uiso   1.00
H125   H     0.42893   0.26903   0.47458   0.00000  Uiso   1.00
H126   H     0.43101   0.24620   0.40553   0.00000  Uiso   1.00
H127   H     0.51389   0.15445   0.40222   0.00000  Uiso   1.00
N128   N     0.64618   0.12880   0.29069   0.00000  Uiso   1.00
N129   N     0.61336   0.11237   0.45317   0.00000  Uiso   1.00
O130   O     0.50000   0.16667   0.25000   0.00000  Uiso   1.00
O131   O     0.49027   0.12393   0.16625   0.00000  Uiso   1.00
O132   O     0.46020   0.20646   0.33749   0.00000  Uiso   1.00
O133   O     0.54421   0.17493   0.15877   0.00000  Uiso   1.00
O134   O     0.50532   0.16135   0.33749   0.00000  Uiso   1.00
O135   O     0.58599   0.03736   0.48598   0.00000  Uiso   1.00
O136   O     0.65058   0.07528   0.00199   0.00000  Uiso   1.00
O137   O     0.59880   0.02831   0.05303   0.00000  Uiso   1.00
O138   O     0.55182   0.24730   0.08219   0.00000  Uiso   1.00
O139   O     0.51544   0.30192   0.06860   0.00000  Uiso   1.00
O140   O     0.47028   0.24997   0.11806   0.00000  Uiso   1.00
O141   O     0.51182   0.08101   0.27820   0.00000  Uiso   1.00
O142   O     0.47914   0.26136   0.26767   0.00000  Uiso   1.00
O143   O     0.40785   0.13251   0.23607   0.00000  Uiso   1.00
O144   O     0.60119   0.19179   0.21805   0.00000  Uiso   1.00
O145   O     0.40323   0.18960   0.27820   0.00000  Uiso   1.00
O146   O     0.58773   0.15277   0.26767   0.00000  Uiso   1.00
O147   O     0.47133   0.06903   0.23607   0.00000  Uiso   1.00
O148   O     0.53771   0.25527   0.21805   0.00000  Uiso   1.00
S149   S     0.60371   0.06085   0.01844   0.00000  Uiso   1.00
S150   S     0.51048   0.25692   0.07655   0.00000  Uiso   1.00
Zn151  Zn    0.52577   0.14090   0.28277   0.00000  Uiso   1.00
Zn152  Zn    0.46792   0.12378   0.22257   0.00000  Uiso   1.00
Zn153  Zn    0.54500   0.19664   0.21188   0.00000  Uiso   1.00
Zn154  Zn    0.46131   0.20535   0.28277   0.00000  Uiso   1.00
C155   C     0.71953   0.16020   0.25832   0.00000  Uiso   1.00
C156   C     0.88750   0.15051   0.45630   0.00000  Uiso   1.00
C157   C     0.90933   0.13082   0.47601   0.00000  Uiso   1.00
C158   C     0.94767   0.17331   0.24140   0.00000  Uiso   1.00
C159   C     0.89528   0.13182   0.01783   0.00000  Uiso   1.00
C160   C     0.86581   0.16112   0.03885   0.00000  Uiso   1.00
C161   C     0.90844   0.10465   0.03977   0.00000  Uiso   1.00
C162   C     0.89494   0.10971   0.08119   0.00000  Uiso   1.00
C163   C     0.84911   0.16075   0.07998   0.00000  Uiso   1.00
C164   C     0.99317   0.17581   0.23907   0.00000  Uiso   1.00
C165   C     0.67399   0.15621   0.26331   0.00000  Uiso   1.00
C166   C     0.78246   0.23108   0.41979   0.00000  Uiso   1.00
C167   C     0.84763   0.32218   0.23794   0.00000  Uiso   1.00
C168   C     0.81867   0.01208   0.26233   0.00000  Uiso   1.00
C169   C     0.82276   0.05609   0.25894   0.00000  Uiso   1.00
C170   C     0.84358   0.27767   0.24130   0.00000  Uiso   1.00
C171   C     0.85486   0.14551   0.14394   0.00000  Uiso   1.00
C172   C     0.81241   0.18779   0.35631   0.00000  Uiso   1.00
C173   C     0.80741   0.19940   0.39894   0.00000  Uiso   1.00
C174   C     0.86533   0.13734   0.10103   0.00000  Uiso   1.00
C175   C     0.78144   0.24420   0.45914   0.00000  Uiso   1.00
C176   C     0.99144   0.12495   0.32627   0.00000  Uiso   1.00
C177   C     0.83039   0.18039   0.41827   0.00000  Uiso   1.00
C178   C     0.98566   0.14114   0.44729   0.00000  Uiso   1.00
C179   C     0.83125   0.19432   0.45745   0.00000  Uiso   1.00
C180   C     0.80583   0.22628   0.47801   0.00000  Uiso   1.00
C181   C     0.85593   0.17672   0.47696   0.00000  Uiso   1.00
C182   C     0.85087   0.18769   0.01799   0.00000  Uiso   1.00
C183   C     0.83094   0.22452   0.03592   0.00000  Uiso   1.00
C184   C     0.80692   0.24171   0.01641   0.00000  Uiso   1.00
H185   H     0.79051   0.26874   0.03066   0.00000  Uiso   1.00
H186   H     0.89842   0.14746   0.42436   0.00000  Uiso   1.00
H187   H     0.94703   0.00407   0.03848   0.00000  Uiso   1.00
H188   H     0.96914   0.10066   0.27725   0.00000  Uiso   1.00
H189   H     0.96473   0.10675   0.34660   0.00000  Uiso   1.00
H190   H     0.99746   0.15634   0.34178   0.00000  Uiso   1.00
H191   H     0.68726   0.10839   0.31889   0.00000  Uiso   1.00
H192   H     0.94342   0.09626   0.42685   0.00000  Uiso   1.00
H193   H     0.68034   0.12406   0.43126   0.00000  Uiso   1.00
H194   H     0.99039   0.15538   0.47627   0.00000  Uiso   1.00
H195   H     0.98414   0.16621   0.42942   0.00000  Uiso   1.00
H196   H     0.68252   0.19479   0.21745   0.00000  Uiso   1.00
H197   H     0.81449   0.26610   0.13965   0.00000  Uiso   1.00
H198   H     0.87435   0.00281   0.21549   0.00000  Uiso   1.00
H199   H     0.79162   0.33222   0.28491   0.00000  Uiso   1.00
H200   H     0.82314   0.17854   0.09629   0.00000  Uiso   1.00
H201   H     0.90662   0.09128   0.09835   0.00000  Uiso   1.00
H202   H     0.76226   0.26903   0.47458   0.00000  Uiso   1.00
H203   H     0.76434   0.24620   0.40553   0.00000  Uiso   1.00
H204   H     0.84723   0.15445   0.40222   0.00000  Uiso   1.00
N205   N     0.97952   0.12880   0.29069   0.00000  Uiso   1.00
N206   N     0.94669   0.11237   0.45317   0.00000  Uiso   1.00
O207   O     0.83333   0.16667   0.25000   0.00000  Uiso   1.00
O208   O     0.82360   0.12393   0.16625   0.00000  Uiso   1.00
O209   O     0.79354   0.20646   0.33749   0.00000  Uiso   1.00
O210   O     0.87755   0.17493   0.15877   0.00000  Uiso   1.00
O211   O     0.83865   0.16135   0.33749   0.00000  Uiso   1.00
O212   O     0.91933   0.03736   0.48598   0.00000  Uiso   1.00
O213   O     0.98391   0.07528   0.00199   0.00000  Uiso   1.00
O214   O     0.93213   0.02831   0.05303   0.00000  Uiso   1.00
O215   O     0.88515   0.24730   0.08219   0.00000  Uiso   1.00
O216   O     0.84877   0.30192   0.06860   0.00000  Uiso   1.00
O217   O     0.80361   0.24997   0.11806   0.00000  Uiso   1.00
O218   O     0.84515   0.08101   0.27820   0.00000  Uiso   1.00
O219   O     0.81247   0.26136   0.26767   0.00000  Uiso   1.00
O220   O     0.74119   0.13251   0.23607   0.00000  Uiso   1.00
O221   O     0.93452   0.19179   0.21805   0.00000  Uiso   1.00
O222   O     0.73656   0.18960   0.27820   0.00000  Uiso   1.00
O223   O     0.92106   0.15277   0.26767   0.00000  Uiso   1.00
O224   O     0.80467   0.06903   0.23607   0.00000  Uiso   1.00
O225   O     0.87104   0.25527   0.21805   0.00000  Uiso   1.00
S226   S     0.93704   0.06085   0.01844   0.00000  Uiso   1.00
S227   S     0.84381   0.25692   0.07655   0.00000  Uiso   1.00
Zn228  Zn    0.85910   0.14090   0.28277   0.00000  Uiso   1.00
Zn229  Zn    0.80125   0.12378   0.22257   0.00000  Uiso   1.00
Zn230  Zn    0.87833   0.19664   0.21188   0.00000  Uiso   1.00
Zn231  Zn    0.79465   0.20535   0.28277   0.00000  Uiso   1.00
C232   C     0.05286   0.49354   0.25832   0.00000  Uiso   1.00
C233   C     0.22084   0.48384   0.45630   0.00000  Uiso   1.00
C234   C     0.24267   0.46415   0.47601   0.00000  Uiso   1.00
C235   C     0.28100   0.50664   0.24140   0.00000  Uiso   1.00
C236   C     0.22862   0.46516   0.01783   0.00000  Uiso   1.00
C237   C     0.19914   0.49446   0.03885   0.00000  Uiso   1.00
C238   C     0.24178   0.43798   0.03977   0.00000  Uiso   1.00
C239   C     0.22827   0.44304   0.08119   0.00000  Uiso   1.00
C240   C     0.18244   0.49408   0.07998   0.00000  Uiso   1.00
C241   C     0.32651   0.50914   0.23907   0.00000  Uiso   1.00
C242   C     0.00733   0.48955   0.26331   0.00000  Uiso   1.00
C243   C     0.11580   0.56441   0.41979   0.00000  Uiso   1.00
C244   C     0.18096   0.65552   0.23794   0.00000  Uiso   1.00
C245   C     0.15200   0.34542   0.26233   0.00000  Uiso   1.00
C246   C     0.15609   0.38942   0.25894   0.00000  Uiso   1.00
C247   C     0.17691   0.61100   0.24130   0.00000  Uiso   1.00
C248   C     0.18820   0.47884   0.14394   0.00000  Uiso   1.00
C249   C     0.14574   0.52113   0.35631   0.00000  Uiso   1.00
C250   C     0.14074   0.53273   0.39894   0.00000  Uiso   1.00
C251   C     0.19866   0.47067   0.10103   0.00000  Uiso   1.00
C252   C     0.11477   0.57753   0.45914   0.00000  Uiso   1.00
C253   C     0.32477   0.45829   0.32627   0.00000  Uiso   1.00
C254   C     0.16373   0.51372   0.41827   0.00000  Uiso   1.00
C255   C     0.31899   0.47448   0.44729   0.00000  Uiso   1.00
C256   C     0.16458   0.52765   0.45745   0.00000  Uiso   1.00
C257   C     0.13917   0.55962   0.47801   0.00000  Uiso   1.00
C258   C     0.18926   0.51005   0.47696   0.00000  Uiso   1.00
C259   C     0.18420   0.52102   0.01799   0.00000  Uiso   1.00
C260   C     0.16427   0.55785   0.03592   0.00000  Uiso   1.00
C261   C     0.14025   0.57505   0.01641   0.00000  Uiso   1.00
H262   H     0.12384   0.60207   0.03066   0.00000  Uiso   1.00
H263   H     0.23175   0.48080   0.42436   0.00000  Uiso   1.00
H264   H     0.28036   0.33740   0.03848   0.00000  Uiso   1.00
H265   H     0.30248   0.43399   0.27725   0.00000  Uiso   1.00
H266   H     0.29806   0.44008   0.34660   0.00000  Uiso   1.00
H267   H     0.33079   0.48968   0.34178   0.00000  Uiso   1.00
H268   H     0.02059   0.44172   0.31889   0.00000  Uiso   1.00
H269   H     0.27675   0.42959   0.42685   0.00000  Uiso   1.00
H270   H     0.01367   0.45740   0.43126   0.00000  Uiso   1.00
H271   H     0.32372   0.48872   0.47627   0.00000  Uiso   1.00
H272   H     0.31747   0.49955   0.42942   0.00000  Uiso   1.00
H273   H     0.01586   0.52812   0.21745   0.00000  Uiso   1.00
H274   H     0.14783   0.59943   0.13965   0.00000  Uiso   1.00
H275   H     0.20768   0.33615   0.21549   0.00000  Uiso   1.00
H276   H     0.12495   0.66556   0.28491   0.00000  Uiso   1.00
H277   H     0.15647   0.51188   0.09629   0.00000  Uiso   1.00
H278   H     0.23995   0.42461   0.09835   0.00000  Uiso   1.00
H279   H     0.09559   0.60236   0.47458   0.00000  Uiso   1.00
H280   H     0.09768   0.57953   0.40553   0.00000  Uiso   1.00
H281   H     0.18056   0.48779   0.40222   0.00000  Uiso   1.00
N282   N     0.31285   0.46213   0.29069   0.00000  Uiso   1.00
N283   N     0.28003   0.44570   0.45317   0.00000  Uiso   1.00
O284   O     0.16667   0.50000   0.25000   0.00000  Uiso   1.00
O285   O     0.15693   0.45726   0.16625   0.00000  Uiso   1.00
O286   O     0.12687   0.53979   0.33749   0.00000  Uiso   1.00
O287   O     0.21088   0.50826   0.15877   0.00000  Uiso   1.00
O288   O     0.17198   0.49468   0.33749   0.00000  Uiso   1.00
O289   O     0.25266   0.37069   0.48598   0.00000  Uiso   1.00
O290   O     0.31724   0.40862   0.00199   0.00000  Uiso   1.00
O291   O     0.26547   0.36165   0.05303   0.00000  Uiso   1.00
O292   O     0.21848   0.58063   0.08219   0.00000  Uiso   1.00
O293   O     0.18210   0.63525   0.06860   0.00000  Uiso   1.00
O294   O     0.13694   0.58330   0.11806   0.00000  Uiso   1.00
O295   O     0.17849   0.41434   0.27820   0.00000  Uiso   1.00
O296   O     0.14581   0.59469   0.26767   0.00000  Uiso   1.00
O297   O     0.07452   0.46584   0.23607   0.00000  Uiso   1.00
O298   O     0.26785   0.52512   0.21805   0.00000  Uiso   1.00
O299   O     0.06990   0.52293   0.27820   0.00000  Uiso   1.00
O300   O     0.25440   0.48610   0.26767   0.00000  Uiso   1.00
O301   O     0.13800   0.40236   0.23607   0.00000  Uiso   1.00
O302   O     0.20437   0.58860   0.21805   0.00000  Uiso   1.00
S303   S     0.27038   0.39418   0.01844   0.00000  Uiso   1.00
S304   S     0.17714   0.59025   0.07655   0.00000  Uiso   1.00
Zn305  Zn    0.19244   0.47423   0.28277   0.00000  Uiso   1.00
Zn306  Zn    0.13459   0.45711   0.22257   0.00000  Uiso   1.00
Zn307  Zn    0.21166   0.52997   0.21188   0.00000  Uiso   1.00
Zn308  Zn    0.12798   0.53868   0.28277   0.00000  Uiso   1.00
C309   C     0.38620   0.49354   0.25832   0.00000  Uiso   1.00
C310   C     0.55417   0.48384   0.45630   0.00000  Uiso   1.00
C311   C     0.57600   0.46415   0.47601   0.00000  Uiso   1.00
C312   C     0.61434   0.50664   0.24140   0.00000  Uiso   1.00
C313   C     0.56195   0.46516   0.01783   0.00000  Uiso   1.00
C314   C     0.53248   0.49446   0.03885   0.00000  Uiso   1.00
C315   C     0.57511   0.43798   0.03977   0.00000  Uiso   1.00
C316   C     0.56160   0.44304   0.08119   0.00000  Uiso   1.00
C317   C     0.51577   0.49408   0.07998   0.00000  Uiso   1.00
C318   C     0.65984   0.50914   0.23907   0.00000  Uiso   1.00
C319   C     0.34066   0.48955   0.26331   0.00000  Uiso   1.00
C320   C     0.44913   0.56441   0.41979   0.00000  Uiso   1.00
C321   C     0.51429   0.65552   0.23794   0.00000  Uiso   1.00
C322   C     0.48534   0.34542   0.26233   0.00000  Uiso   1.00
C323   C     0.48943   0.38942   0.25894   0.00000  Uiso   1.00
C324   C     0.51025   0.61100   0.24130   0.00000  Uiso   1.00
C325   C     0.52153   0.47884   0.14394   0.00000  Uiso   1.00
C326   C     0.47907   0.52113   0.35631   0.00000  Uiso   1.00
C327   C     0.47407   0.53273   0.39894   0.00000  Uiso   1.00
C328   C     0.53200   0.47067   0.10103   0.00000  Uiso   1.00
C329   C     0.44810   0.57753   0.45914   0.00000  Uiso   1.00
C330   C     0.65811   0.45829   0.32627   0.00000  Uiso   1.00
C331   C     0.49706   0.51372   0.41827   0.00000  Uiso   1.00
C332   C     0.65232   0.47448   0.44729   0.00000  Uiso   1.00
C333   C     0.49791   0.52765   0.45745   0.00000  Uiso   1.00
C334   C     0.47250   0.55962   0.47801   0.00000  Uiso   1.00
C335   C     0.52259   0.51005   0.47696   0.00000  Uiso   1.00
C336   C     0.51754   0.52102   0.01799   0.00000  Uiso   1.00
C337   C     0.49761   0.55785   0.03592   0.00000  Uiso   1.00
C338   C     0.47358   0.57505   0.01641   0.00000  Uiso   1.00
H339   H     0.45718   0.60207   0.03066   0.00000  Uiso   1.00
H340   H     0.56508   0.48080   0.42436   0.00000  Uiso   1.00
H341   H     0.61369   0.33740   0.03848   0.00000  Uiso   1.00
H342   H     0.63581   0.43399   0.27725   0.00000  Uiso   1.00
H343   H     0.63140   0.44008   0.34660   0.00000  Uiso   1.00
H344   H     0.66412   0.48968   0.34178   0.00000  Uiso   1.00
H345   H     0.35393   0.44172   0.31889   0.00000  Uiso   1.00
H346   H     0.61009   0.42959   0.42685   0.00000  Uiso   1.00
H347   H     0.34700   0.45740   0.43126   0.00000  Uiso   1.00
H348   H     0.65706   0.48872   0.47627   0.00000  Uiso   1.00
H349   H     0.65080   0.49955   0.42942   0.00000  Uiso   1.00
H350   H     0.34919   0.52812   0.21745   0.00000  Uiso   1.00
H351   H     0.48116   0.59943   0.13965   0.00000  Uiso   1.00
H352   H     0.54102   0.33615   0.21549   0.00000  Uiso   1.00
H353   H     0.45829   0.66556   0.28491   0.00000  Uiso   1.00
H354   H     0.48980   0.51188   0.09629   0.00000  Uiso   1.00
H355   H     0.57328   0.42461   0.09835   0.00000  Uiso   1.00
H356   H     0.42893   0.60236   0.47458   0.00000  Uiso   1.00
H357   H     0.43101   0.57953   0.40553   0.00000  Uiso   1.00
H358   H     0.51389   0.48779   0.40222   0.00000  Uiso   1.00
N359   N     0.64618   0.46213   0.29069   0.00000  Uiso   1.00
N360   N     0.61336   0.44570   0.45317   0.00000  Uiso   1.00
O361   O     0.50000   0.50000   0.25000   0.00000  Uiso   1.00
O362   O     0.49027   0.45726   0.16625   0.00000  Uiso   1.00
O363   O     0.46020   0.53979   0.33749   0.00000  Uiso   1.00
O364   O     0.54421   0.50826   0.15877   0.00000  Uiso   1.00
O365   O     0.50532   0.49468   0.33749   0.00000  Uiso   1.00
O366   O     0.58599   0.37069   0.48598   0.00000  Uiso   1.00
O367   O     0.65058   0.40862   0.00199   0.00000  Uiso   1.00
O368   O     0.59880   0.36165   0.05303   0.00000  Uiso   1.00
O369   O     0.55182   0.58063   0.08219   0.00000  Uiso   1.00
O370   O     0.51544   0.63525   0.06860   0.00000  Uiso   1.00
O371   O     0.47028   0.58330   0.11806   0.00000  Uiso   1.00
O372   O     0.51182   0.41434   0.27820   0.00000  Uiso   1.00
O373   O     0.47914   0.59469   0.26767   0.00000  Uiso   1.00
O374   O     0.40785   0.46584   0.23607   0.00000  Uiso   1.00
O375   O     0.60119   0.52512   0.21805   0.00000  Uiso   1.00
O376   O     0.40323   0.52293   0.27820   0.00000  Uiso   1.00
O377   O     0.58773   0.48610   0.26767   0.00000  Uiso   1.00
O378   O     0.47133   0.40236   0.23607   0.00000  Uiso   1.00
O379   O     0.53771   0.58860   0.21805   0.00000  Uiso   1.00
S380   S     0.60371   0.39418   0.01844   0.00000  Uiso   1.00
S381   S     0.51048   0.59025   0.07655   0.00000  Uiso   1.00
Zn382  Zn    0.52577   0.47423   0.28277   0.00000  Uiso   1.00
Zn383  Zn    0.46792   0.45711   0.22257   0.00000  Uiso   1.00
Zn384  Zn    0.54500   0.52997   0.21188   0.00000  Uiso   1.00
Zn385  Zn    0.46131   0.53868   0.28277   0.00000  Uiso   1.00
C386   C     0.71953   0.49354   0.25832   0.00000  Uiso   1.00
C387   C     0.88750   0.48384   0.45630   0.00000  Uiso   1.00
C388   C     0.90933   0.46415   0.47601   0.00000  Uiso   1.00
C389   C     0.94767   0.50664   0.24140   0.00000  Uiso   1.00
C390   C     0.89528   0.46516   0.01783   0.00000  Uiso   1.00
C391   C     0.86581   0.49446   0.03885   0.00000  Uiso   1.00
C392   C     0.90844   0.43798   0.03977   0.00000  Uiso   1.00
C393   C     0.89494   0.44304   0.08119   0.00000  Uiso   1.00
C394   C     0.84911   0.49408   0.07998   0.00000  Uiso   1.00
C395   C     0.99317   0.50914   0.23907   0.00000  Uiso   1.00
C396   C     0.67399   0.48955   0.26331   0.00000  Uiso   1.00
C397   C     0.78246   0.56441   0.41979   0.00000  Uiso   1.00
C398   C     0.84763   0.65552   0.23794   0.00000  Uiso   1.00
C399   C     0.81867   0.34542   0.26233   0.00000  Uiso   1.00
C400   C     0.82276   0.38942   0.25894   0.00000  Uiso   1.00
C401   C     0.84358   0.61100   0.24130   0.00000  Uiso   1.00
C402   C     0.85486   0.47884   0.14394   0.00000  Uiso   1.00
C403   C     0.81241   0.52113   0.35631   0.00000  Uiso   1.00
C404   C     0.80741   0.53273   0.39894   0.00000  Uiso   1.00
C405   C     0.86533   0.47067   0.10103   0.00000  Uiso   1.00
C406   C     0.78144   0.57753   0.45914   0.00000  Uiso   1.00
C407   C     0.99144   0.45829   0.32627   0.00000  Uiso   1.00
C408   C     0.83039   0.51372   0.41827   0.00000  Uiso   1.00
C409   C     0.98566   0.47448   0.44729   0.00000  Uiso   1.00
C410   C     0.83125   0.52765   0.45745   0.00000  Uiso   1.00
C411   C     0.80583   0.55962   0.47801   0.00000  Uiso   1.00
C412   C     0.85593   0.51005   0.47696   0.00000  Uiso   1.00
C413   C     0.85087   0.52102   0.01799   0.00000  Uiso   1.00
C414   C     0.83094   0.55785   0.03592   0.00000  Uiso   1.00
C415   C     0.80692   0.57505   0.01641   0.00000  Uiso   1.00
H416   H     0.79051   0.60207   0.03066   0.00000  Uiso   1.00
H417   H     0.89842   0.48080   0.42436   0.00000  Uiso   1.00
H418   H     0.94703   0.33740   0.03848   0.00000  Uiso   1.00
H419   H     0.96914   0.43399   0.27725   0.00000  Uiso   1.00
H420   H     0.96473   0.44008   0.34660   0.00000  Uiso   1.00
H421   H     0.99746   0.48968   0.34178   0.00000  Uiso   1.00
H422   H     0.68726   0.44172   0.31889   0.00000  Uiso   1.00
H423   H     0.94342   0.42959   0.42685   0.00000  Uiso   1.00
H424   H     0.68034   0.45740   0.43126   0.00000  Uiso   1.00
H425   H     0.99039   0.48872   0.47627   0.00000  Uiso   1.00
H426   H     0.98414   0.49955   0.42942   0.00000  Uiso   1.00
H427   H     0.68252   0.52812   0.21745   0.00000  Uiso   1.00
H428   H     0.81449   0.59943   0.13965   0.00000  Uiso   1.00
H429   H     0.87435   0.33615   0.21549   0.00000  Uiso   1.00
H430   H     0.79162   0.66556   0.28491   0.00000  Uiso   1.00
H431   H     0.82314   0.51188   0.09629   0.00000  Uiso   1.00
H432   H     0.90662   0.42461   0.09835   0.00000  Uiso   1.00
H433   H     0.76226   0.60236   0.47458   0.00000  Uiso   1.00
H434   H     0.76434   0.57953   0.40553   0.00000  Uiso   1.00
H435   H     0.84723   0.48779   0.40222   0.00000  Uiso   1.00
N436   N     0.97952   0.46213   0.29069   0.00000  Uiso   1.00
N437   N     0.94669   0.44570   0.45317   0.00000  Uiso   1.00
O438   O     0.83333   0.50000   0.25000   0.00000  Uiso   1.00
O439   O     0.82360   0.45726   0.16625   0.00000  Uiso   1.00
O440   O     0.79354   0.53979   0.33749   0.00000  Uiso   1.00
O441   O     0.87755   0.50826   0.15877   0.00000  Uiso   1.00
O442   O     0.83865   0.49468   0.33749   0.00000  Uiso   1.00
O443   O     0.91933   0.37069   0.48598   0.00000  Uiso   1.00
O444   O     0.98391   0.40862   0.00199   0.00000  Uiso   1.00
O445   O     0.93213   0.36165   0.05303   0.00000  Uiso   1.00
O446   O     0.88515   0.58063   0.08219   0.00000  Uiso   1.00
O447   O     0.84877   0.63525   0.06860   0.00000  Uiso   1.00
O448   O     0.80361   0.58330   0.11806   0.00000  Uiso   1.00
O449   O     0.84515   0.41434   0.27820   0.00000  Uiso   1.00
O450   O     0.81247   0.59469   0.26767   0.00000  Uiso   1.00
O451   O     0.74119   0.46584   0.23607   0.00000  Uiso   1.00
O452   O     0.93452   0.52512   0.21805   0.00000  Uiso   1.00
O453   O     0.73656   0.52293   0.27820   0.00000  Uiso   1.00
O454   O     0.92106   0.48610   0.26767   0.00000  Uiso   1.00
O455   O     0.80467   0.40236   0.23607   0.00000  Uiso   1.00
O456   O     0.87104   0.58860   0.21805   0.00000  Uiso   1.00
S457   S     0.93704   0.39418   0.01844   0.00000  Uiso   1.00
S458   S     0.84381   0.59025   0.07655   0.00000  Uiso   1.00
Zn459  Zn    0.85910   0.47423   0.28277   0.00000  Uiso   1.00
Zn460  Zn    0.80125   0.45711   0.22257   0.00000  Uiso   1.00
Zn461  Zn    0.87833   0.52997   0.21188   0.00000  Uiso   1.00
Zn462  Zn    0.79465   0.53868   0.28277   0.00000  Uiso   1.00
C463   C     0.05286   0.82687   0.25832   0.00000  Uiso   1.00
C464   C     0.22084   0.81717   0.45630   0.00000  Uiso   1.00
C465   C     0.24267   0.79748   0.47601   0.00000  Uiso   1.00
C466   C     0.28100   0.83998   0.24140   0.00000  Uiso   1.00
C467   C     0.22862   0.79849   0.01783   0.00000  Uiso   1.00
C468   C     0.19914   0.82779   0.03885   0.00000  Uiso   1.00
C469   C     0.24178   0.77131   0.03977   0.00000  Uiso   1.00
C470   C     0.22827   0.77638   0.08119   0.00000  Uiso   1.00
C471   C     0.18244   0.82741   0.07998   0.00000  Uiso   1.00
C472   C     0.32651   0.84248   0.23907   0.00000  Uiso   1.00
C473   C     0.00733   0.82288   0.26331   0.00000  Uiso   1.00
C474   C     0.11580   0.89774   0.41979   0.00000  Uiso   1.00
C475   C     0.18096   0.98885   0.23794   0.00000  Uiso   1.00
C476   C     0.15200   0.67875   0.26233   0.00000  Uiso   1.00
C477   C     0.15609   0.72275   0.25894   0.00000  Uiso   1.00
C478   C     0.17691   0.94434   0.24130   0.00000  Uiso   1.00
C479   C     0.18820   0.81217   0.14394   0.00000  Uiso   1.00
C480   C     0.14574   0.85446   0.35631   0.00000  Uiso   1.00
C481   C     0.14074   0.86607   0.39894   0.00000  Uiso   1.00
C482   C     0.19866   0.80401   0.10103   0.00000  Uiso   1.00
C483   C     0.11477   0.91086   0.45914   0.00000  Uiso   1.00
C484   C     0.32477   0.79162   0.32627   0.00000  Uiso   1.00
C485   C     0.16373   0.84705   0.41827   0.00000  Uiso   1.00
C486   C     0.31899   0.80781   0.44729   0.00000  Uiso   1.00
C487   C     0.16458   0.86099   0.45745   0.00000  Uiso   1.00
C488   C     0.13917   0.89295   0.47801   0.00000  Uiso   1.00
C489   C     0.18926   0.84338   0.47696   0.00000  Uiso   1.00
C490   C     0.18420   0.85436   0.01799   0.00000  Uiso   1.00
C491   C     0.16427   0.89119   0.03592   0.00000  Uiso   1.00
C492   C     0.14025   0.90838   0.01641   0.00000  Uiso   1.00
H493   H     0.12384   0.93541   0.03066   0.00000  Uiso   1.00
H494   H     0.23175   0.81413   0.42436   0.00000  Uiso   1.00
H495   H     0.28036   0.67074   0.03848   0.00000  Uiso   1.00
H496   H     0.30248   0.76732   0.27725   0.00000  Uiso   1.00
H497   H     0.29806   0.77342   0.34660   0.00000  Uiso   1.00
H498   H     0.33079   0.82301   0.34178   0.00000  Uiso   1.00
H499   H     0.02059   0.77506   0.31889   0.00000  Uiso   1.00
H500   H     0.27675   0.76293   0.42685   0.00000  Uiso   1.00
H501   H     0.01367   0.79073   0.43126   0.00000  Uiso   1.00
H502   H     0.32372   0.82205   0.47627   0.00000  Uiso   1.00
H503   H     0.31747   0.83288   0.42942   0.00000  Uiso   1.00
H504   H     0.01586   0.86146   0.21745   0.00000  Uiso   1.00
H505   H     0.14783   0.93276   0.13965   0.00000  Uiso   1.00
H506   H     0.20768   0.66948   0.21549   0.00000  Uiso   1.00
H507   H     0.12495   0.99889   0.28491   0.00000  Uiso   1.00
H508   H     0.15647   0.84521   0.09629   0.00000  Uiso   1.00
H509   H     0.23995   0.75794   0.09835   0.00000  Uiso   1.00
H510   H     0.09559   0.93570   0.47458   0.00000  Uiso   1.00
H511   H     0.09768   0.91287   0.40553   0.00000  Uiso   1.00
H512   H     0.18056   0.82112   0.40222   0.00000  Uiso   1.00
N513   N     0.31285   0.79546   0.29069   0.00000  Uiso   1.00
N514   N     0.28003   0.77904   0.45317   0.00000  Uiso   1.00
O515   O     0.16667   0.83333   0.25000   0.00000  Uiso   1.00
O516   O     0.15693   0.79060   0.16625   0.00000  Uiso   1.00
O517   O     0.12687   0.87313   0.33749   0.00000  Uiso   1.00
O518   O     0.21088   0.84159   0.15877   0.00000  Uiso   1.00
O519   O     0.17198   0.82802   0.33749   0.00000  Uiso   1.00
O520   O     0.25266   0.70403   0.48598   0.00000  Uiso   1.00
O521   O     0.31724   0.74195   0.00199   0.00000  Uiso   1.00
O522   O     0.26547   0.69498   0.05303   0.00000  Uiso   1.00
O523   O     0.21848   0.91397   0.08219   0.00000  Uiso   1.00
O524   O     0.18210   0.96858   0.06860   0.00000  Uiso   1.00
O525   O     0.13694   0.91664   0.11806   0.00000  Uiso   1.00
O526   O     0.17849   0.74768   0.27820   0.00000  Uiso   1.00
O527   O     0.14581   0.92803   0.26767   0.00000  Uiso   1.00
O528   O     0.07452   0.79917   0.23607   0.00000  Uiso   1.00
O529   O     0.26785   0.85845   0.21805   0.00000  Uiso   1.00
O530   O     0.06990   0.85627   0.27820   0.00000  Uiso   1.00
O531   O     0.25440   0.81944   0.26767   0.00000  Uiso   1.00
O532   O     0.13800   0.73570   0.23607   0.00000  Uiso   1.00
O533   O     0.20437   0.92193   0.21805   0.00000  Uiso   1.00
S534   S     0.27038   0.72751   0.01844   0.00000  Uiso   1.00
S535   S     0.17714   0.92358   0.07655   0.00000  Uiso   1.00
Zn536  Zn    0.19244   0.80756   0.28277   0.00000  Uiso   1.00
Zn537  Zn    0.13459   0.79044   0.22257   0.00000  Uiso   1.00
Zn538  Zn    0.21166   0.86331   0.21188   0.00000  Uiso   1.00
Zn539  Zn    0.12798   0.87202   0.28277   0.00000  Uiso   1.00
C540   C     0.38620   0.82687   0.25832   0.00000  Uiso   1.00
C541   C     0.55417   0.81717   0.45630   0.00000  Uiso   1.00
C542   C     0.57600   0.79748   0.47601   0.00000  Uiso   1.00
C543   C     0.61434   0.83998   0.24140   0.00000  Uiso   1.00
C544   C     0.56195   0.79849   0.01783   0.00000  Uiso   1.00
C545   C     0.53248   0.82779   0.03885   0.00000  Uiso   1.00
C546   C     0.57511   0.77131   0.03977   0.00000  Uiso   1.00
C547   C     0.56160   0.77638   0.08119   0.00000  Uiso   1.00
C548   C     0.51577   0.82741   0.07998   0.00000  Uiso   1.00
C549   C     0.65984   0.84248   0.23907   0.00000  Uiso   1.00
C550   C     0.34066   0.82288   0.26331   0.00000  Uiso   1.00
C551   C     0.44913   0.89774   0.41979   0.00000  Uiso   1.00
C552   C     0.51429   0.98885   0.23794   0.00000  Uiso   1.00
C553   C     0.48534   0.67875   0.26233   0.00000  Uiso   1.00
C554   C     0.48943   0.72275   0.25894   0.00000  Uiso   1.00
C555   C     0.51025   0.94434   0.24130   0.00000  Uiso   1.00
C556   C     0.52153   0.81217   0.14394   0.00000  Uiso   1.00
C557   C     0.47907   0.85446   0.35631   0.00000  Uiso   1.00
C558   C     0.47407   0.86607   0.39894   0.00000  Uiso   1.00
C559   C     0.53200   0.80401   0.10103   0.00000  Uiso   1.00
C560   C     0.44810   0.91086   0.45914   0.00000  Uiso   1.00
C561   C     0.65811   0.79162   0.32627   0.00000  Uiso   1.00
C562   C     0.49706   0.84705   0.41827   0.00000  Uiso   1.00
C563   C     0.65232   0.80781   0.44729   0.00000  Uiso   1.00
C564   C     0.49791   0.86099   0.45745   0.00000  Uiso   1.00
C565   C     0.47250   0.89295   0.47801   0.00000  Uiso   1.00
C566   C     0.52259   0.84338   0.47696   0.00000  Uiso   1.00
C567   C     0.51754   0.85436   0.01799   0.00000  Uiso   1.00
C568   C     0.49761   0.89119   0.03592   0.00000  Uiso   1.00
C569   C     0.47358   0.90838   0.01641   0.00000  Uiso   1.00
H570   H     0.45718   0.93541   0.03066   0.00000  Uiso   1.00
H571   H     0.56508   0.81413   0.42436   0.00000  Uiso   1.00
H572   H     0.61369   0.67074   0.03848   0.00000  Uiso   1.00
H573   H     0.63581   0.76732   0.27725   0.00000  Uiso   1.00
H574   H     0.63140   0.77342   0.34660   0.00000  Uiso   1.00
H575   H     0.66412   0.82301   0.34178   0.00000  Uiso   1.00
H576   H     0.35393   0.77506   0.31889   0.00000  Uiso   1.00
H577   H     0.61009   0.76293   0.42685   0.00000  Uiso   1.00
H578   H     0.34700   0.79073   0.43126   0.00000  Uiso   1.00
H579   H     0.65706   0.82205   0.47627   0.00000  Uiso   1.00
H580   H     0.65080   0.83288   0.42942   0.00000  Uiso   1.00
H581   H     0.34919   0.86146   0.21745   0.00000  Uiso   1.00
H582   H     0.48116   0.93276   0.13965   0.00000  Uiso   1.00
H583   H     0.54102   0.66948   0.21549   0.00000  Uiso   1.00
H584   H     0.45829   0.99889   0.28491   0.00000  Uiso   1.00
H585   H     0.48980   0.84521   0.09629   0.00000  Uiso   1.00
H586   H     0.57328   0.75794   0.09835   0.00000  Uiso   1.00
H587   H     0.42893   0.93570   0.47458   0.00000  Uiso   1.00
H588   H     0.43101   0.91287   0.40553   0.00000  Uiso   1.00
H589   H     0.51389   0.82112   0.40222   0.00000  Uiso   1.00
N590   N     0.64618   0.79546   0.29069   0.00000  Uiso   1.00
N591   N     0.61336   0.77904   0.45317   0.00000  Uiso   1.00
O592   O     0.50000   0.83333   0.25000   0.00000  Uiso   1.00
O593   O     0.49027   0.79060   0.16625   0.00000  Uiso   1.00
O594   O     0.46020   0.87313   0.33749   0.00000  Uiso   1.00
O595   O     0.54421   0.84159   0.15877   0.00000  Uiso   1.00
O596   O     0.50532   0.82802   0.33749   0.00000  Uiso   1.00
O597   O     0.58599   0.70403   0.48598   0.00000  Uiso   1.00
O598   O     0.65058   0.74195   0.00199   0.00000  Uiso   1.00
O599   O     0.59880   0.69498   0.05303   0.00000  Uiso   1.00
O600   O     0.55182   0.91397   0.08219   0.00000  Uiso   1.00
O601   O     0.51544   0.96858   0.06860   0.00000  Uiso   1.00
O602   O     0.47028   0.91664   0.11806   0.00000  Uiso   1.00
O603   O     0.51182   0.74768   0.27820   0.00000  Uiso   1.00
O604   O     0.47914   0.92803   0.26767   0.00000  Uiso   1.00
O605   O     0.40785   0.79917   0.23607   0.00000  Uiso   1.00
O606   O     0.60119   0.85845   0.21805   0.00000  Uiso   1.00
O607   O     0.40323   0.85627   0.27820   0.00000  Uiso   1.00
O608   O     0.58773   0.81944   0.26767   0.00000  Uiso   1.00
O609   O     0.47133   0.73570   0.23607   0.00000  Uiso   1.00
O610   O     0.53771   0.92193   0.21805   0.00000  Uiso   1.00
S611   S     0.60371   0.72751   0.01844   0.00000  Uiso   1.00
S612   S     0.51048   0.92358   0.07655   0.00000  Uiso   1.00
Zn613  Zn    0.52577   0.80756   0.28277   0.00000  Uiso   1.00
Zn614  Zn    0.46792   0.79044   0.22257   0.00000  Uiso   1.00
Zn615  Zn    0.54500   0.86331   0.21188   0.00000  Uiso   1.00
Zn616  Zn    0.46131   0.87202   0.28277   0.00000  Uiso   1.00
C617   C     0.71953   0.82687   0.25832   0.00000  Uiso   1.00
C618   C     0.88750   0.81717   0.45630   0.00000  Uiso   1.00
C619   C     0.90933   0.79748   0.47601   0.00000  Uiso   1.00
C620   C     0.94767   0.83998   0.24140   0.00000  Uiso   1.00
C621   C     0.89528   0.79849   0.01783   0.00000  Uiso   1.00
C622   C     0.86581   0.82779   0.03885   0.00000  Uiso   1.00
C623   C     0.90844   0.77131   0.03977   0.00000  Uiso   1.00
C624   C     0.89494   0.77638   0.08119   0.00000  Uiso   1.00
C625   C     0.84911   0.82741   0.07998   0.00000  Uiso   1.00
C626   C     0.99317   0.84248   0.23907   0.00000  Uiso   1.00
C627   C     0.67399   0.82288   0.26331   0.00000  Uiso   1.00
C628   C     0.78246   0.89774   0.41979   0.00000  Uiso   1.00
C629   C     0.84763   0.98885   0.23794   0.00000  Uiso   1.00
C630   C     0.81867   0.67875   0.26233   0.00000  Uiso   1.00
C631   C     0.82276   0.72275   0.25894   0.00000  Uiso   1.00
C632   C     0.84358   0.94434   0.24130   0.00000  Uiso   1.00
C633   C     0.85486   0.81217   0.14394   0.00000  Uiso   1.00
C634   C     0.81241   0.85446   0.35631   0.00000  Uiso   1.00
C635   C     0.80741   0.86607   0.39894   0.00000  Uiso   1.00
C636   C     0.86533   0.80401   0.10103   0.00000  Uiso   1.00
C637   C     0.78144   0.91086   0.45914   0.00000  Uiso   1.00
C638   C     0.99144   0.79162   0.32627   0.00000  Uiso   1.00
C639   C     0.83039   0.84705   0.41827   0.00000  Uiso   1.00
C640   C     0.98566   0.80781   0.44729   0.00000  Uiso   1.00
C641   C     0.83125   0.86099   0.45745   0.00000  Uiso   1.00
C642   C     0.80583   0.89295   0.47801   0.00000  Uiso   1.00
C643   C     0.85593   0.84338   0.47696   0.00000  Uiso   1.00
C644   C     0.85087   0.85436   0.01799   0.00000  Uiso   1.00
C645   C     0.83094   0.89119   0.03592   0.00000  Uiso   1.00
C646   C     0.80692   0.90838   0.01641   0.00000  Uiso   1.00
H647   H     0.79051   0.93541   0.03066   0.00000  Uiso   1.00
H648   H     0.89842   0.81413   0.42436   0.00000  Uiso   1.00
H649   H     0.94703   0.67074   0.03848   0.00000  Uiso   1.00
H650   H     0.96914   0.76732   0.27725   0.00000  Uiso   1.00
H651   H     0.96473   0.77342   0.34660   0.00000  Uiso   1.00
H652   H     0.99746   0.82301   0.34178   0.00000  Uiso   1.00
H653   H     0.68726   0.77506   0.31889   0.00000  Uiso   1.00
H654   H     0.94342   0.76293   0.42685   0.00000  Uiso   1.00
H655   H     0.68034   0.79073   0.43126   0.00000  Uiso   1.00
H656   H     0.99039   0.82205   0.47627   0.00000  Uiso   1.00
H657   H     0.98414   0.83288   0.42942   0.00000  Uiso   1.00
H658   H     0.68252   0.86146   0.21745   0.00000  Uiso   1.00
H659   H     0.81449   0.93276   0.13965   0.00000  Uiso   1.00
H660   H     0.87435   0.66948   0.21549   0.00000  Uiso   1.00
H661   H     0.79162   0.99889   0.28491   0.00000  Uiso   1.00
H662   H     0.82314   0.84521   0.09629   0.00000  Uiso   1.00
H663   H     0.90662   0.75794   0.09835   0.00000  Uiso   1.00
H664   H     0.76226   0.93570   0.47458   0.00000  Uiso   1.00
H665   H     0.76434   0.91287   0.40553   0.00000  Uiso   1.00
H666   H     0.84723   0.82112   0.40222   0.00000  Uiso   1.00
N667   N     0.97952   0.79546   0.29069   0.00000  Uiso   1.00
N668   N     0.94669   0.77904   0.45317   0.00000  Uiso   1.00
O669   O     0.83333   0.83333   0.25000   0.00000  Uiso   1.00
O670   O     0.82360   0.79060   0.16625   0.00000  Uiso   1.00
O671   O     0.79354   0.87313   0.33749   0.00000  Uiso   1.00
O672   O     0.87755   0.84159   0.15877   0.00000  Uiso   1.00
O673   O     0.83865   0.82802   0.33749   0.00000  Uiso   1.00
O674   O     0.91933   0.70403   0.48598   0.00000  Uiso   1.00
O675   O     0.98391   0.74195   0.00199   0.00000  Uiso   1.00
O676   O     0.93213   0.69498   0.05303   0.00000  Uiso   1.00
O677   O     0.88515   0.91397   0.08219   0.00000  Uiso   1.00
O678   O     0.84877   0.96858   0.06860   0.00000  Uiso   1.00
O679   O     0.80361   0.91664   0.11806   0.00000  Uiso   1.00
O680   O     0.84515   0.74768   0.27820   0.00000  Uiso   1.00
O681   O     0.81247   0.92803   0.26767   0.00000  Uiso   1.00
O682   O     0.74119   0.79917   0.23607   0.00000  Uiso   1.00
O683   O     0.93452   0.85845   0.21805   0.00000  Uiso   1.00
O684   O     0.73656   0.85627   0.27820   0.00000  Uiso   1.00
O685   O     0.92106   0.81944   0.26767   0.00000  Uiso   1.00
O686   O     0.80467   0.73570   0.23607   0.00000  Uiso   1.00
O687   O     0.87104   0.92193   0.21805   0.00000  Uiso   1.00
S688   S     0.93704   0.72751   0.01844   0.00000  Uiso   1.00
S689   S     0.84381   0.92358   0.07655   0.00000  Uiso   1.00
Zn690  Zn    0.85910   0.80756   0.28277   0.00000  Uiso   1.00
Zn691  Zn    0.80125   0.79044   0.22257   0.00000  Uiso   1.00
Zn692  Zn    0.87833   0.86331   0.21188   0.00000  Uiso   1.00
Zn693  Zn    0.79465   0.87202   0.28277   0.00000  Uiso   1.00
C694   C     0.05286   0.16020   0.75832   0.00000  Uiso   1.00
C695   C     0.22084   0.15051   0.95630   0.00000  Uiso   1.00
C696   C     0.24267   0.13082   0.97601   0.00000  Uiso   1.00
C697   C     0.28100   0.17331   0.74140   0.00000  Uiso   1.00
C698   C     0.22862   0.13182   0.51783   0.00000  Uiso   1.00
C699   C     0.19914   0.16112   0.53885   0.00000  Uiso   1.00
C700   C     0.24178   0.10465   0.53977   0.00000  Uiso   1.00
C701   C     0.22827   0.10971   0.58119   0.00000  Uiso   1.00
C702   C     0.18244   0.16075   0.57998   0.00000  Uiso   1.00
C703   C     0.32651   0.17581   0.73907   0.00000  Uiso   1.00
C704   C     0.00733   0.15621   0.76331   0.00000  Uiso   1.00
C705   C     0.11580   0.23108   0.91979   0.00000  Uiso   1.00
C706   C     0.18096   0.32218   0.73794   0.00000  Uiso   1.00
C707   C     0.15200   0.01208   0.76233   0.00000  Uiso   1.00
C708   C     0.15609   0.05609   0.75894   0.00000  Uiso   1.00
C709   C     0.17691   0.27767   0.74130   0.00000  Uiso   1.00
C710   C     0.18820   0.14551   0.64394   0.00000  Uiso   1.00
C711   C     0.14574   0.18779   0.85631   0.00000  Uiso   1.00
C712   C     0.14074   0.19940   0.89894   0.00000  Uiso   1.00
C713   C     0.19866   0.13734   0.60103   0.00000  Uiso   1.00
C714   C     0.11477   0.24420   0.95914   0.00000  Uiso   1.00
C715   C     0.32477   0.12495   0.82627   0.00000  Uiso   1.00
C716   C     0.16373   0.18039   0.91827   0.00000  Uiso   1.00
C717   C     0.31899   0.14114   0.94729   0.00000  Uiso   1.00
C718   C     0.16458   0.19432   0.95745   0.00000  Uiso   1.00
C719   C     0.13917   0.22628   0.97801   0.00000  Uiso   1.00
C720   C     0.18926   0.17672   0.97696   0.00000  Uiso   1.00
C721   C     0.18420   0.18769   0.51799   0.00000  Uiso   1.00
C722   C     0.16427   0.22452   0.53592   0.00000  Uiso   1.00
C723   C     0.14025   0.24171   0.51641   0.00000  Uiso   1.00
H724   H     0.12384   0.26874   0.53066   0.00000  Uiso   1.00
H725   H     0.23175   0.14746   0.92436   0.00000  Uiso   1.00
H726   H     0.28036   0.00407   0.53848   0.00000  Uiso   1.00
H727   H     0.30248   0.10066   0.77725   0.00000  Uiso   1.00
H728   H     0.29806   0.10675   0.84660   0.00000  Uiso   1.00
H729   H     0.33079   0.15634   0.84178   0.00000  Uiso   1.00
H730   H     0.02059   0.10839   0.81889   0.00000  Uiso   1.00
H731   H     0.27675   0.09626   0.92685   0.00000  Uiso   1.00
H732   H     0.01367   0.12406   0.93126   0.00000  Uiso   1.00
H733   H     0.32372   0.15538   0.97627   0.00000  Uiso   1.00
H734   H     0.31747   0.16621   0.92942   0.00000  Uiso   1.00
H735   H     0.01586   0.19479   0.71745   0.00000  Uiso   1.00
H736   H     0.14783   0.26610   0.63965   0.00000  Uiso   1.00
H737   H     0.20768   0.00281   0.71549   0.00000  Uiso   1.00
H738   H     0.12495   0.33222   0.78491   0.00000  Uiso   1.00
H739   H     0.15647   0.17854   0.59629   0.00000  Uiso   1.00
H740   H     0.23995   0.09128   0.59835   0.00000  Uiso   1.00
H741   H     0.09559   0.26903   0.97458   0.00000  Uiso   1.00
H742   H     0.09768   0.24620   0.90553   0.00000  Uiso   1.00
H743   H     0.18056   0.15445   0.90222   0.00000  Uiso   1.00
N744   N     0.31285   0.12880   0.79069   0.00000  Uiso   1.00
N745   N     0.28003   0.11237   0.95317   0.00000  Uiso   1.00
O746   O     0.16667   0.16667   0.75000   0.00000  Uiso   1.00
O747   O     0.15693   0.12393   0.66625   0.00000  Uiso   1.00
O748   O     0.12687   0.20646   0.83749   0.00000  Uiso   1.00
O749   O     0.21088   0.17493   0.65877   0.00000  Uiso   1.00
O750   O     0.17198   0.16135   0.83749   0.00000  Uiso   1.00
O751   O     0.25266   0.03736   0.98598   0.00000  Uiso   1.00
O752   O     0.31724   0.07528   0.50199   0.00000  Uiso   1.00
O753   O     0.26547   0.02831   0.55303   0.00000  Uiso   1.00
O754   O     0.21848   0.24730   0.58219   0.00000  Uiso   1.00
O755   O     0.18210   0.30192   0.56860   0.00000  Uiso   1.00
O756   O     0.13694   0.24997   0.61806   0.00000  Uiso   1.00
O757   O     0.17849   0.08101   0.77820   0.00000  Uiso   1.00
O758   O     0.14581   0.26136   0.76767   0.00000  Uiso   1.00
O759   O     0.07452   0.13251   0.73607   0.00000  Uiso   1.00
O760   O     0.26785   0.19179   0.71805   0.00000  Uiso   1.00
O761   O     0.06990   0.18960   0.77820   0.00000  Uiso   1.00
O762   O     0.25440   0.15277   0.76767   0.00000  Uiso   1.00
O763   O     0.13800   0.06903   0.73607   0.00000  Uiso   1.00
O764   O     0.20437   0.25527   0.71805   0.00000  Uiso   1.00
S765   S     0.27038   0.06085   0.51844   0.00000  Uiso   1.00
S766   S     0.17714   0.25692   0.57655   0.00000  Uiso   1.00
Zn767  Zn    0.19244   0.14090   0.78277   0.00000  Uiso   1.00
Zn768  Zn    0.13459   0.12378   0.72257   0.00000  Uiso   1.00
Zn769  Zn    0.21166   0.19664   0.71188   0.00000  Uiso   1.00
Zn770  Zn    0.12798   0.20535   0.78277   0.00000  Uiso   1.00
C771   C     0.38620   0.16020   0.75832   0.00000  Uiso   1.00
C772   C     0.55417   0.15051   0.95630   0.00000  Uiso   1.00
C773   C     0.57600   0.13082   0.97601   0.00000  Uiso   1.00
C774   C     0.61434   0.17331   0.74140   0.00000  Uiso   1.00
C775   C     0.56195   0.13182   0.51783   0.00000  Uiso   1.00
C776   C     0.53248   0.16112   0.53885   0.00000  Uiso   1.00
C777   C     0.57511   0.10465   0.53977   0.00000  Uiso   1.00
C778   C     0.56160   0.10971   0.58119   0.00000  Uiso   1.00
C779   C     0.51577   0.16075   0.57998   0.00000  Uiso   1.00
C780   C     0.65984   0.17581   0.73907   0.00000  Uiso   1.00
C781   C     0.34066   0.15621   0.76331   0.00000  Uiso   1.00
C782   C     0.44913   0.23108   0.91979   0.00000  Uiso   1.00
C783   C     0.51429   0.32218   0.73794   0.00000  Uiso   1.00
C784   C     0.48534   0.01208   0.76233   0.00000  Uiso   1.00
C785   C     0.48943   0.05609   0.75894   0.00000  Uiso   1.00
C786   C     0.51025   0.27767   0.74130   0.00000  Uiso   1.00
C787   C     0.52153   0.14551   0.64394   0.00000  Uiso   1.00
C788   C     0.47907   0.18779   0.85631   0.00000  Uiso   1.00
C789   C     0.47407   0.19940   0.89894   0.00000  Uiso   1.00
C790   C     0.53200   0.13734   0.60103   0.00000  Uiso   1.00
C791   C     0.44810   0.24420   0.95914   0.00000  Uiso   1.00
C792   C     0.65811   0.12495   0.82627   0.00000  Uiso   1.00
C793   C     0.49706   0.18039   0.91827   0.00000  Uiso   1.00
C794   C     0.65232   0.14114   0.94729   0.00000  Uiso   1.00
C795   C     0.49791   0.19432   0.95745   0.00000  Uiso   1.00
C796   C     0.47250   0.22628   0.97801   0.00000  Uiso   1.00
C797   C     0.52259   0.17672   0.97696   0.00000  Uiso   1.00
C798   C     0.51754   0.18769   0.51799   0.00000  Uiso   1.00
C799   C     0.49761   0.22452   0.53592   0.00000  Uiso   1.00
C800   C     0.47358   0.24171   0.51641   0.00000  Uiso   1.00
H801   H     0.45718   0.26874   0.53066   0.00000  Uiso   1.00
H802   H     0.56508   0.14746   0.92436   0.00000  Uiso   1.00
H803   H     0.61369   0.00407   0.53848   0.00000  Uiso   1.00
H804   H     0.63581   0.10066   0.77725   0.00000  Uiso   1.00
H805   H     0.63140   0.10675   0.84660   0.00000  Uiso   1.00
H806   H     0.66412   0.15634   0.84178   0.00000  Uiso   1.00
H807   H     0.35393   0.10839   0.81889   0.00000  Uiso   1.00
H808   H     0.61009   0.09626   0.92685   0.00000  Uiso   1.00
H809   H     0.34700   0.12406   0.93126   0.00000  Uiso   1.00
H810   H     0.65706   0.15538   0.97627   0.00000  Uiso   1.00
H811   H     0.65080   0.16621   0.92942   0.00000  Uiso   1.00
H812   H     0.34919   0.19479   0.71745   0.00000  Uiso   1.00
H813   H     0.48116   0.26610   0.63965   0.00000  Uiso   1.00
H814   H     0.54102   0.00281   0.71549   0.00000  Uiso   1.00
H815   H     0.45829   0.33222   0.78491   0.00000  Uiso   1.00
H816   H     0.48980   0.17854   0.59629   0.00000  Uiso   1.00
H817   H     0.57328   0.09128   0.59835   0.00000  Uiso   1.00
H818   H     0.42893   0.26903   0.97458   0.00000  Uiso   1.00
H819   H     0.43101   0.24620   0.90553   0.00000  Uiso   1.00
H820   H     0.51389   0.15445   0.90222   0.00000  Uiso   1.00
N821   N     0.64618   0.12880   0.79069   0.00000  Uiso   1.00
N822   N     0.61336   0.11237   0.95317   0.00000  Uiso   1.00
O823   O     0.50000   0.16667   0.75000   0.00000  Uiso   1.00
O824   O     0.49027   0.12393   0.66625   0.00000  Uiso   1.00
O825   O     0.46020   0.20646   0.83749   0.00000  Uiso   1.00
O826   O     0.54421   0.17493   0.65877   0.00000  Uiso   1.00
O827   O     0.50532   0.16135   0.83749   0.00000  Uiso   1.00
O828   O     0.58599   0.03736   0.98598   0.00000  Uiso   1.00
O829   O     0.65058   0.07528   0.50199   0.00000  Uiso   1.00
O830   O     0.59880   0.02831   0.55303   0.00000  Uiso   1.00
O831   O     0.55182   0.24730   0.58219   0.00000  Uiso   1.00
O832   O     0.51544   0.30192   0.56860   0.00000  Uiso   1.00
O833   O     0.47028   0.24997   0.61806   0.00000  Uiso   1.00
O834   O     0.51182   0.08101   0.77820   0.00000  Uiso   1.00
O835   O     0.47914   0.26136   0.76767   0.00000  Uiso   1.00
O836   O     0.40785   0.13251   0.73607   0.00000  Uiso   1.00
O837   O     0.60119   0.19179   0.71805   0.00000  Uiso   1.00
O838   O     0.40323   0.18960   0.77820   0.00000  Uiso   1.00
O839   O     0.58773   0.15277   0.76767   0.00000  Uiso   1.00
O840   O     0.47133   0.06903   0.73607   0.00000  Uiso   1.00
O841   O     0.53771   0.25527   0.71805   0.00000  Uiso   1.00
S842   S     0.60371   0.06085   0.51844   0.00000  Uiso   1.00
S843   S     0.51048   0.25692   0.57655   0.00000  Uiso   1.00
Zn844  Zn    0.52577   0.14090   0.78277   0.00000  Uiso   1.00
Zn845  Zn    0.46792   0.12378   0.72257   0.00000  Uiso   1.00
Zn846  Zn    0.54500   0.19664   0.71188   0.00000  Uiso   1.00
Zn847  Zn    0.46131   0.20535   0.78277   0.00000  Uiso   1.00
C848   C     0.71953   0.16020   0.75832   0.00000  Uiso   1.00
C849   C     0.88750   0.15051   0.95630   0.00000  Uiso   1.00
C850   C     0.90933   0.13082   0.97601   0.00000  Uiso   1.00
C851   C     0.94767   0.17331   0.74140   0.00000  Uiso   1.00
C852   C     0.89528   0.13182   0.51783   0.00000  Uiso   1.00
C853   C     0.86581   0.16112   0.53885   0.00000  Uiso   1.00
C854   C     0.90844   0.10465   0.53977   0.00000  Uiso   1.00
C855   C     0.89494   0.10971   0.58119   0.00000  Uiso   1.00
C856   C     0.84911   0.16075   0.57998   0.00000  Uiso   1.00
C857   C     0.99317   0.17581   0.73907   0.00000  Uiso   1.00
C858   C     0.67399   0.15621   0.76331   0.00000  Uiso   1.00
C859   C     0.78246   0.23108   0.91979   0.00000  Uiso   1.00
C860   C     0.84763   0.32218   0.73794   0.00000  Uiso   1.00
C861   C     0.81867   0.01208   0.76233   0.00000  Uiso   1.00
C862   C     0.82276   0.05609   0.75894   0.00000  Uiso   1.00
C863   C     0.84358   0.27767   0.74130   0.00000  Uiso   1.00
C864   C     0.85486   0.14551   0.64394   0.00000  Uiso   1.00
C865   C     0.81241   0.18779   0.85631   0.00000  Uiso   1.00
C866   C     0.80741   0.19940   0.89894   0.00000  Uiso   1.00
C867   C     0.86533   0.13734   0.60103   0.00000  Uiso   1.00
C868   C     0.78144   0.24420   0.95914   0.00000  Uiso   1.00
C869   C     0.99144   0.12495   0.82627   0.00000  Uiso   1.00
C870   C     0.83039   0.18039   0.91827   0.00000  Uiso   1.00
C871   C     0.98566   0.14114   0.94729   0.00000  Uiso   1.00
C872   C     0.83125   0.19432   0.95745   0.00000  Uiso   1.00
C873   C     0.80583   0.22628   0.97801   0.00000  Uiso   1.00
C874   C     0.85593   0.17672   0.97696   0.00000  Uiso   1.00
C875   C     0.85087   0.18769   0.51799   0.00000  Uiso   1.00
C876   C     0.83094   0.22452   0.53592   0.00000  Uiso   1.00
C877   C     0.80692   0.24171   0.51641   0.00000  Uiso   1.00
H878   H     0.79051   0.26874   0.53066   0.00000  Uiso   1.00
H879   H     0.89842   0.14746   0.92436   0.00000  Uiso   1.00
H880   H     0.94703   0.00407   0.53848   0.00000  Uiso   1.00
H881   H     0.96914   0.10066   0.77725   0.00000  Uiso   1.00
H882   H     0.96473   0.10675   0.84660   0.00000  Uiso   1.00
H883   H     0.99746   0.15634   0.84178   0.00000  Uiso   1.00
H884   H     0.68726   0.10839   0.81889   0.00000  Uiso   1.00
H885   H     0.94342   0.09626   0.92685   0.00000  Uiso   1.00
H886   H     0.68034   0.12406   0.93126   0.00000  Uiso   1.00
H887   H     0.99039   0.15538   0.97627   0.00000  Uiso   1.00
H888   H     0.98414   0.16621   0.92942   0.00000  Uiso   1.00
H889   H     0.68252   0.19479   0.71745   0.00000  Uiso   1.00
H890   H     0.81449   0.26610   0.63965   0.00000  Uiso   1.00
H891   H     0.87435   0.00281   0.71549   0.00000  Uiso   1.00
H892   H     0.79162   0.33222   0.78491   0.00000  Uiso   1.00
H893   H     0.82314   0.17854   0.59629   0.00000  Uiso   1.00
H894   H     0.90662   0.09128   0.59835   0.00000  Uiso   1.00
H895   H     0.76226   0.26903   0.97458   0.00000  Uiso   1.00
H896   H     0.76434   0.24620   0.90553   0.00000  Uiso   1.00
H897   H     0.84723   0.15445   0.90222   0.00000  Uiso   1.00
N898   N     0.97952   0.12880   0.79069   0.00000  Uiso   1.00
N899   N     0.94669   0.11237   0.95317   0.00000  Uiso   1.00
O900   O     0.83333   0.16667   0.75000   0.00000  Uiso   1.00
O901   O     0.82360   0.12393   0.66625   0.00000  Uiso   1.00
O902   O     0.79354   0.20646   0.83749   0.00000  Uiso   1.00
O903   O     0.87755   0.17493   0.65877   0.00000  Uiso   1.00
O904   O     0.83865   0.16135   0.83749   0.00000  Uiso   1.00
O905   O     0.91933   0.03736   0.98598   0.00000  Uiso   1.00
O906   O     0.98391   0.07528   0.50199   0.00000  Uiso   1.00
O907   O     0.93213   0.02831   0.55303   0.00000  Uiso   1.00
O908   O     0.88515   0.24730   0.58219   0.00000  Uiso   1.00
O909   O     0.84877   0.30192   0.56860   0.00000  Uiso   1.00
O910   O     0.80361   0.24997   0.61806   0.00000  Uiso   1.00
O911   O     0.84515   0.08101   0.77820   0.00000  Uiso   1.00
O912   O     0.81247   0.26136   0.76767   0.00000  Uiso   1.00
O913   O     0.74119   0.13251   0.73607   0.00000  Uiso   1.00
O914   O     0.93452   0.19179   0.71805   0.00000  Uiso   1.00
O915   O     0.73656   0.18960   0.77820   0.00000  Uiso   1.00
O916   O     0.92106   0.15277   0.76767   0.00000  Uiso   1.00
O917   O     0.80467   0.06903   0.73607   0.00000  Uiso   1.00
O918   O     0.87104   0.25527   0.71805   0.00000  Uiso   1.00
S919   S     0.93704   0.06085   0.51844   0.00000  Uiso   1.00
S920   S     0.84381   0.25692   0.57655   0.00000  Uiso   1.00
Zn921  Zn    0.85910   0.14090   0.78277   0.00000  Uiso   1.00
Zn922  Zn    0.80125   0.12378   0.72257   0.00000  Uiso   1.00
Zn923  Zn    0.87833   0.19664   0.71188   0.00000  Uiso   1.00
Zn924  Zn    0.79465   0.20535   0.78277   0.00000  Uiso   1.00
C925   C     0.05286   0.49354   0.75832   0.00000  Uiso   1.00
C926   C     0.22084   0.48384   0.95630   0.00000  Uiso   1.00
C927   C     0.24267   0.46415   0.97601   0.00000  Uiso   1.00
C928   C     0.28100   0.50664   0.74140   0.00000  Uiso   1.00
C929   C     0.22862   0.46516   0.51783   0.00000  Uiso   1.00
C930   C     0.19914   0.49446   0.53885   0.00000  Uiso   1.00
C931   C     0.24178   0.43798   0.53977   0.00000  Uiso   1.00
C932   C     0.22827   0.44304   0.58119   0.00000  Uiso   1.00
C933   C     0.18244   0.49408   0.57998   0.00000  Uiso   1.00
C934   C     0.32651   0.50914   0.73907   0.00000  Uiso   1.00
C935   C     0.00733   0.48955   0.76331   0.00000  Uiso   1.00
C936   C     0.11580   0.56441   0.91979   0.00000  Uiso   1.00
C937   C     0.18096   0.65552   0.73794   0.00000  Uiso   1.00
C938   C     0.15200   0.34542   0.76233   0.00000  Uiso   1.00
C939   C     0.15609   0.38942   0.75894   0.00000  Uiso   1.00
C940   C     0.17691   0.61100   0.74130   0.00000  Uiso   1.00
C941   C     0.18820   0.47884   0.64394   0.00000  Uiso   1.00
C942   C     0.14574   0.52113   0.85631   0.00000  Uiso   1.00
C943   C     0.14074   0.53273   0.89894   0.00000  Uiso   1.00
C944   C     0.19866   0.47067   0.60103   0.00000  Uiso   1.00
C945   C     0.11477   0.57753   0.95914   0.00000  Uiso   1.00
C946   C     0.32477   0.45829   0.82627   0.00000  Uiso   1.00
C947   C     0.16373   0.51372   0.91827   0.00000  Uiso   1.00
C948   C     0.31899   0.47448   0.94729   0.00000  Uiso   1.00
C949   C     0.16458   0.52765   0.95745   0.00000  Uiso   1.00
C950   C     0.13917   0.55962   0.97801   0.00000  Uiso   1.00
C951   C     0.18926   0.51005   0.97696   0.00000  Uiso   1.00
C952   C     0.18420   0.52102   0.51799   0.00000  Uiso   1.00
C953   C     0.16427   0.55785   0.53592   0.00000  Uiso   1.00
C954   C     0.14025   0.57505   0.51641   0.00000  Uiso   1.00
H955   H     0.12384   0.60207   0.53066   0.00000  Uiso   1.00
H956   H     0.23175   0.48080   0.92436   0.00000  Uiso   1.00
H957   H     0.28036   0.33740   0.53848   0.00000  Uiso   1.00
H958   H     0.30248   0.43399   0.77725   0.00000  Uiso   1.00
H959   H     0.29806   0.44008   0.84660   0.00000  Uiso   1.00
H960   H     0.33079   0.48968   0.84178   0.00000  Uiso   1.00
H961   H     0.02059   0.44172   0.81889   0.00000  Uiso   1.00
H962   H     0.27675   0.42959   0.92685   0.00000  Uiso   1.00
H963   H     0.01367   0.45740   0.93126   0.00000  Uiso   1.00
H964   H     0.32372   0.48872   0.97627   0.00000  Uiso   1.00
H965   H     0.31747   0.49955   0.92942   0.00000  Uiso   1.00
H966   H     0.01586   0.52812   0.71745   0.00000  Uiso   1.00
H967   H     0.14783   0.59943   0.63965   0.00000  Uiso   1.00
H968   H     0.20768   0.33615   0.71549   0.00000  Uiso   1.00
H969   H     0.12495   0.66556   0.78491   0.00000  Uiso   1.00
H970   H     0.15647   0.51188   0.59629   0.00000  Uiso   1.00
H971   H     0.23995   0.42461   0.59835   0.00000  Uiso   1.00
H972   H     0.09559   0.60236   0.97458   0.00000  Uiso   1.00
H973   H     0.09768   0.57953   0.90553   0.00000  Uiso   1.00
H974   H     0.18056   0.48779   0.90222   0.00000  Uiso   1.00
N975   N     0.31285   0.46213   0.79069   0.00000  Uiso   1.00
N976   N     0.28003   0.44570   0.95317   0.00000  Uiso   1.00
O977   O     0.16667   0.50000   0.75000   0.00000  Uiso   1.00
O978   O     0.15693   0.45726   0.66625   0.00000  Uiso   1.00
O979   O     0.12687   0.53979   0.83749   0.00000  Uiso   1.00
O980   O     0.21088   0.50826   0.65877   0.00000  Uiso   1.00
O981   O     0.17198   0.49468   0.83749   0.00000  Uiso   1.00
O982   O     0.25266   0.37069   0.98598   0.00000  Uiso   1.00
O983   O     0.31724   0.40862   0.50199   0.00000  Uiso   1.00
O984   O     0.26547   0.36165   0.55303   0.00000  Uiso   1.00
O985   O     0.21848   0.58063   0.58219   0.00000  Uiso   1.00
O986   O     0.18210   0.63525   0.56860   0.00000  Uiso   1.00
O987   O     0.13694   0.58330   0.61806   0.00000  Uiso   1.00
O988   O     0.17849   0.41434   0.77820   0.00000  Uiso   1.00
O989   O     0.14581   0.59469   0.76767   0.00000  Uiso   1.00
O990   O     0.07452   0.46584   0.73607   0.00000  Uiso   1.00
O991   O     0.26785   0.52512   0.71805   0.00000  Uiso   1.00
O992   O     0.06990   0.52293   0.77820   0.00000  Uiso   1.00
O993   O     0.25440   0.48610   0.76767   0.00000  Uiso   1.00
O994   O     0.13800   0.40236   0.73607   0.00000  Uiso   1.00
O995   O     0.20437   0.58860   0.71805   0.00000  Uiso   1.00
S996   S     0.27038   0.39418   0.51844   0.00000  Uiso   1.00
S997   S     0.17714   0.59025   0.57655   0.00000  Uiso   1.00
Zn998  Zn    0.19244   0.47423   0.78277   0.00000  Uiso   1.00
Zn999  Zn    0.13459   0.45711   0.72257   0.00000  Uiso   1.00
Zn1000 Zn    0.21166   0.52997   0.71188   0.00000  Uiso   1.00
Zn1001 Zn    0.12798   0.53868   0.78277   0.00000  Uiso   1.00
C1002  C     0.38620   0.49354   0.75832   0.00000  Uiso   1.00
C1003  C     0.55417   0.48384   0.95630   0.00000  Uiso   1.00
C1004  C     0.57600   0.46415   0.97601   0.00000  Uiso   1.00
C1005  C     0.61434   0.50664   0.74140   0.00000  Uiso   1.00
C1006  C     0.56195   0.46516   0.51783   0.00000  Uiso   1.00
C1007  C     0.53248   0.49446   0.53885   0.00000  Uiso   1.00
C1008  C     0.57511   0.43798   0.53977   0.00000  Uiso   1.00
C1009  C     0.56160   0.44304   0.58119   0.00000  Uiso   1.00
C1010  C     0.51577   0.49408   0.57998   0.00000  Uiso   1.00
C1011  C     0.65984   0.50914   0.73907   0.00000  Uiso   1.00
C1012  C     0.34066   0.48955   0.76331   0.00000  Uiso   1.00
C1013  C     0.44913   0.56441   0.91979   0.00000  Uiso   1.00
C1014  C     0.51429   0.65552   0.73794   0.00000  Uiso   1.00
C1015  C     0.48534   0.34542   0.76233   0.00000  Uiso   1.00
C1016  C     0.48943   0.38942   0.75894   0.00000  Uiso   1.00
C1017  C     0.51025   0.61100   0.74130   0.00000  Uiso   1.00
C1018  C     0.52153   0.47884   0.64394   0.00000  Uiso   1.00
C1019  C     0.47907   0.52113   0.85631   0.00000  Uiso   1.00
C1020  C     0.47407   0.53273   0.89894   0.00000  Uiso   1.00
C1021  C     0.53200   0.47067   0.60103   0.00000  Uiso   1.00
C1022  C     0.44810   0.57753   0.95914   0.00000  Uiso   1.00
C1023  C     0.65811   0.45829   0.82627   0.00000  Uiso   1.00
C1024  C     0.49706   0.51372   0.91827   0.00000  Uiso   1.00
C1025  C     0.65232   0.47448   0.94729   0.00000  Uiso   1.00
C1026  C     0.49791   0.52765   0.95745   0.00000  Uiso   1.00
C1027  C     0.47250   0.55962   0.97801   0.00000  Uiso   1.00
C1028  C     0.52259   0.51005   0.97696   0.00000  Uiso   1.00
C1029  C     0.51754   0.52102   0.51799   0.00000  Uiso   1.00
C1030  C     0.49761   0.55785   0.53592   0.00000  Uiso   1.00
C1031  C     0.47358   0.57505   0.51641   0.00000  Uiso   1.00
H1032  H     0.45718   0.60207   0.53066   0.00000  Uiso   1.00
H1033  H     0.56508   0.48080   0.92436   0.00000  Uiso   1.00
H1034  H     0.61369   0.33740   0.53848   0.00000  Uiso   1.00
H1035  H     0.63581   0.43399   0.77725   0.00000  Uiso   1.00
H1036  H     0.63140   0.44008   0.84660   0.00000  Uiso   1.00
H1037  H     0.66412   0.48968   0.84178   0.00000  Uiso   1.00
H1038  H     0.35393   0.44172   0.81889   0.00000  Uiso   1.00
H1039  H     0.61009   0.42959   0.92685   0.00000  Uiso   1.00
H1040  H     0.34700   0.45740   0.93126   0.00000  Uiso   1.00
H1041  H     0.65706   0.48872   0.97627   0.00000  Uiso   1.00
H1042  H     0.65080   0.49955   0.92942   0.00000  Uiso   1.00
H1043  H     0.34919   0.52812   0.71745   0.00000  Uiso   1.00
H1044  H     0.48116   0.59943   0.63965   0.00000  Uiso   1.00
H1045  H     0.54102   0.33615   0.71549   0.00000  Uiso   1.00
H1046  H     0.45829   0.66556   0.78491   0.00000  Uiso   1.00
H1047  H     0.48980   0.51188   0.59629   0.00000  Uiso   1.00
H1048  H     0.57328   0.42461   0.59835   0.00000  Uiso   1.00
H1049  H     0.42893   0.60236   0.97458   0.00000  Uiso   1.00
H1050  H     0.43101   0.57953   0.90553   0.00000  Uiso   1.00
H1051  H     0.51389   0.48779   0.90222   0.00000  Uiso   1.00
N1052  N     0.64618   0.46213   0.79069   0.00000  Uiso   1.00
N1053  N     0.61336   0.44570   0.95317   0.00000  Uiso   1.00
O1054  O     0.50000   0.50000   0.75000   0.00000  Uiso   1.00
O1055  O     0.49027   0.45726   0.66625   0.00000  Uiso   1.00
O1056  O     0.46020   0.53979   0.83749   0.00000  Uiso   1.00
O1057  O     0.54421   0.50826   0.65877   0.00000  Uiso   1.00
O1058  O     0.50532   0.49468   0.83749   0.00000  Uiso   1.00
O1059  O     0.58599   0.37069   0.98598   0.00000  Uiso   1.00
O1060  O     0.65058   0.40862   0.50199   0.00000  Uiso   1.00
O1061  O     0.59880   0.36165   0.55303   0.00000  Uiso   1.00
O1062  O     0.55182   0.58063   0.58219   0.00000  Uiso   1.00
O1063  O     0.51544   0.63525   0.56860   0.00000  Uiso   1.00
O1064  O     0.47028   0.58330   0.61806   0.00000  Uiso   1.00
O1065  O     0.51182   0.41434   0.77820   0.00000  Uiso   1.00
O1066  O     0.47914   0.59469   0.76767   0.00000  Uiso   1.00
O1067  O     0.40785   0.46584   0.73607   0.00000  Uiso   1.00
O1068  O     0.60119   0.52512   0.71805   0.00000  Uiso   1.00
O1069  O     0.40323   0.52293   0.77820   0.00000  Uiso   1.00
O1070  O     0.58773   0.48610   0.76767   0.00000  Uiso   1.00
O1071  O     0.47133   0.40236   0.73607   0.00000  Uiso   1.00
O1072  O     0.53771   0.58860   0.71805   0.00000  Uiso   1.00
S1073  S     0.60371   0.39418   0.51844   0.00000  Uiso   1.00
S1074  S     0.51048   0.59025   0.57655   0.00000  Uiso   1.00
Zn1075 Zn    0.52577   0.47423   0.78277   0.00000  Uiso   1.00
Zn1076 Zn    0.46792   0.45711   0.72257   0.00000  Uiso   1.00
Zn1077 Zn    0.54500   0.52997   0.71188   0.00000  Uiso   1.00
Zn1078 Zn    0.46131   0.53868   0.78277   0.00000  Uiso   1.00
C1079  C     0.71953   0.49354   0.75832   0.00000  Uiso   1.00
C1080  C     0.88750   0.48384   0.95630   0.00000  Uiso   1.00
C1081  C     0.90933   0.46415   0.97601   0.00000  Uiso   1.00
C1082  C     0.94767   0.50664   0.74140   0.00000  Uiso   1.00
C1083  C     0.89528   0.46516   0.51783   0.00000  Uiso   1.00
C1084  C     0.86581   0.49446   0.53885   0.00000  Uiso   1.00
C1085  C     0.90844   0.43798   0.53977   0.00000  Uiso   1.00
C1086  C     0.89494   0.44304   0.58119   0.00000  Uiso   1.00
C1087  C     0.84911   0.49408   0.57998   0.00000  Uiso   1.00
C1088  C     0.99317   0.50914   0.73907   0.00000  Uiso   1.00
C1089  C     0.67399   0.48955   0.76331   0.00000  Uiso   1.00
C1090  C     0.78246   0.56441   0.91979   0.00000  Uiso   1.00
C1091  C     0.84763   0.65552   0.73794   0.00000  Uiso   1.00
C1092  C     0.81867   0.34542   0.76233   0.00000  Uiso   1.00
C1093  C     0.82276   0.38942   0.75894   0.00000  Uiso   1.00
C1094  C     0.84358   0.61100   0.74130   0.00000  Uiso   1.00
C1095  C     0.85486   0.47884   0.64394   0.00000  Uiso   1.00
C1096  C     0.81241   0.52113   0.85631   0.00000  Uiso   1.00
C1097  C     0.80741   0.53273   0.89894   0.00000  Uiso   1.00
C1098  C     0.86533   0.47067   0.60103   0.00000  Uiso   1.00
C1099  C     0.78144   0.57753   0.95914   0.00000  Uiso   1.00
C1100  C     0.99144   0.45829   0.82627   0.00000  Uiso   1.00
C1101  C     0.83039   0.51372   0.91827   0.00000  Uiso   1.00
C1102  C     0.98566   0.47448   0.94729   0.00000  Uiso   1.00
C1103  C     0.83125   0.52765   0.95745   0.00000  Uiso   1.00
C1104  C     0.80583   0.55962   0.97801   0.00000  Uiso   1.00
C1105  C     0.85593   0.51005   0.97696   0.00000  Uiso   1.00
C1106  C     0.85087   0.52102   0.51799   0.00000  Uiso   1.00
C1107  C     0.83094   0.55785   0.53592   0.00000  Uiso   1.00
C1108  C     0.80692   0.57505   0.51641   0.00000  Uiso   1.00
H1109  H     0.79051   0.60207   0.53066   0.00000  Uiso   1.00
H1110  H     0.89842   0.48080   0.92436   0.00000  Uiso   1.00
H1111  H     0.94703   0.33740   0.53848   0.00000  Uiso   1.00
H1112  H     0.96914   0.43399   0.77725   0.00000  Uiso   1.00
H1113  H     0.96473   0.44008   0.84660   0.00000  Uiso   1.00
H1114  H     0.99746   0.48968   0.84178   0.00000  Uiso   1.00
H1115  H     0.68726   0.44172   0.81889   0.00000  Uiso   1.00
H1116  H     0.94342   0.42959   0.92685   0.00000  Uiso   1.00
H1117  H     0.68034   0.45740   0.93126   0.00000  Uiso   1.00
H1118  H     0.99039   0.48872   0.97627   0.00000  Uiso   1.00
H1119  H     0.98414   0.49955   0.92942   0.00000  Uiso   1.00
H1120  H     0.68252   0.52812   0.71745   0.00000  Uiso   1.00
H1121  H     0.81449   0.59943   0.63965   0.00000  Uiso   1.00
H1122  H     0.87435   0.33615   0.71549   0.00000  Uiso   1.00
H1123  H     0.79162   0.66556   0.78491   0.00000  Uiso   1.00
H1124  H     0.82314   0.51188   0.59629   0.00000  Uiso   1.00
H1125  H     0.90662   0.42461   0.59835   0.00000  Uiso   1.00
H1126  H     0.76226   0.60236   0.97458   0.00000  Uiso   1.00
H1127  H     0.76434   0.57953   0.90553   0.00000  Uiso   1.00
H1128  H     0.84723   0.48779   0.90222   0.00000  Uiso   1.00
N1129  N     0.97952   0.46213   0.79069   0.00000  Uiso   1.00
N1130  N     0.94669   0.44570   0.95317   0.00000  Uiso   1.00
O1131  O     0.83333   0.50000   0.75000   0.00000  Uiso   1.00
O1132  O     0.82360   0.45726   0.66625   0.00000  Uiso   1.00
O1133  O     0.79354   0.53979   0.83749   0.00000  Uiso   1.00
O1134  O     0.87755   0.50826   0.65877   0.00000  Uiso   1.00
O1135  O     0.83865   0.49468   0.83749   0.00000  Uiso   1.00
O1136  O     0.91933   0.37069   0.98598   0.00000  Uiso   1.00
O1137  O     0.98391   0.40862   0.50199   0.00000  Uiso   1.00
O1138  O     0.93213   0.36165   0.55303   0.00000  Uiso   1.00
O1139  O     0.88515   0.58063   0.58219   0.00000  Uiso   1.00
O1140  O     0.84877   0.63525   0.56860   0.00000  Uiso   1.00
O1141  O     0.80361   0.58330   0.61806   0.00000  Uiso   1.00
O1142  O     0.84515   0.41434   0.77820   0.00000  Uiso   1.00
O1143  O     0.81247   0.59469   0.76767   0.00000  Uiso   1.00
O1144  O     0.74119   0.46584   0.73607   0.00000  Uiso   1.00
O1145  O     0.93452   0.52512   0.71805   0.00000  Uiso   1.00
O1146  O     0.73656   0.52293   0.77820   0.00000  Uiso   1.00
O1147  O     0.92106   0.48610   0.76767   0.00000  Uiso   1.00
O1148  O     0.80467   0.40236   0.73607   0.00000  Uiso   1.00
O1149  O     0.87104   0.58860   0.71805   0.00000  Uiso   1.00
S1150  S     0.93704   0.39418   0.51844   0.00000  Uiso   1.00
S1151  S     0.84381   0.59025   0.57655   0.00000  Uiso   1.00
Zn1152 Zn    0.85910   0.47423   0.78277   0.00000  Uiso   1.00
Zn1153 Zn    0.80125   0.45711   0.72257   0.00000  Uiso   1.00
Zn1154 Zn    0.87833   0.52997   0.71188   0.00000  Uiso   1.00
Zn1155 Zn    0.79465   0.53868   0.78277   0.00000  Uiso   1.00
C1156  C     0.05286   0.82687   0.75832   0.00000  Uiso   1.00
C1157  C     0.22084   0.81717   0.95630   0.00000  Uiso   1.00
C1158  C     0.24267   0.79748   0.97601   0.00000  Uiso   1.00
C1159  C     0.28100   0.83998   0.74140   0.00000  Uiso   1.00
C1160  C     0.22862   0.79849   0.51783   0.00000  Uiso   1.00
C1161  C     0.19914   0.82779   0.53885   0.00000  Uiso   1.00
C1162  C     0.24178   0.77131   0.53977   0.00000  Uiso   1.00
C1163  C     0.22827   0.77638   0.58119   0.00000  Uiso   1.00
C1164  C     0.18244   0.82741   0.57998   0.00000  Uiso   1.00
C1165  C     0.32651   0.84248   0.73907   0.00000  Uiso   1.00
C1166  C     0.00733   0.82288   0.76331   0.00000  Uiso   1.00
C1167  C     0.11580   0.89774   0.91979   0.00000  Uiso   1.00
C1168  C     0.18096   0.98885   0.73794   0.00000  Uiso   1.00
C1169  C     0.15200   0.67875   0.76233   0.00000  Uiso   1.00
C1170  C     0.15609   0.72275   0.75894   0.00000  Uiso   1.00
C1171  C     0.17691   0.94434   0.74130   0.00000  Uiso   1.00
C1172  C     0.18820   0.81217   0.64394   0.00000  Uiso   1.00
C1173  C     0.14574   0.85446   0.85631   0.00000  Uiso   1.00
C1174  C     0.14074   0.86607   0.89894   0.00000  Uiso   1.00
C1175  C     0.19866   0.80401   0.60103   0.00000  Uiso   1.00
C1176  C     0.11477   0.91086   0.95914   0.00000  Uiso   1.00
C1177  C     0.32477   0.79162   0.82627   0.00000  Uiso   1.00
C1178  C     0.16373   0.84705   0.91827   0.00000  Uiso   1.00
C1179  C     0.31899   0.80781   0.94729   0.00000  Uiso   1.00
C1180  C     0.16458   0.86099   0.95745   0.00000  Uiso   1.00
C1181  C     0.13917   0.89295   0.97801   0.00000  Uiso   1.00
C1182  C     0.18926   0.84338   0.97696   0.00000  Uiso   1.00
C1183  C     0.18420   0.85436   0.51799   0.00000  Uiso   1.00
C1184  C     0.16427   0.89119   0.53592   0.00000  Uiso   1.00
C1185  C     0.14025   0.90838   0.51641   0.00000  Uiso   1.00
H1186  H     0.12384   0.93541   0.53066   0.00000  Uiso   1.00
H1187  H     0.23175   0.81413   0.92436   0.00000  Uiso   1.00
H1188  H     0.28036   0.67074   0.53848   0.00000  Uiso   1.00
H1189  H     0.30248   0.76732   0.77725   0.00000  Uiso   1.00
H1190  H     0.29806   0.77342   0.84660   0.00000  Uiso   1.00
H1191  H     0.33079   0.82301   0.84178   0.00000  Uiso   1.00
H1192  H     0.02059   0.77506   0.81889   0.00000  Uiso   1.00
H1193  H     0.27675   0.76293   0.92685   0.00000  Uiso   1.00
H1194  H     0.01367   0.79073   0.93126   0.00000  Uiso   1.00
H1195  H     0.32372   0.82205   0.97627   0.00000  Uiso   1.00
H1196  H     0.31747   0.83288   0.92942   0.00000  Uiso   1.00
H1197  H     0.01586   0.86146   0.71745   0.00000  Uiso   1.00
H1198  H     0.14783   0.93276   0.63965   0.00000  Uiso   1.00
H1199  H     0.20768   0.66948   0.71549   0.00000  Uiso   1.00
H1200  H     0.12495   0.99889   0.78491   0.00000  Uiso   1.00
H1201  H     0.15647   0.84521   0.59629   0.00000  Uiso   1.00
H1202  H     0.23995   0.75794   0.59835   0.00000  Uiso   1.00
H1203  H     0.09559   0.93570   0.97458   0.00000  Uiso   1.00
H1204  H     0.09768   0.91287   0.90553   0.00000  Uiso   1.00
H1205  H     0.18056   0.82112   0.90222   0.00000  Uiso   1.00
N1206  N     0.31285   0.79546   0.79069   0.00000  Uiso   1.00
N1207  N     0.28003   0.77904   0.95317   0.00000  Uiso   1.00
O1208  O     0.16667   0.83333   0.75000   0.00000  Uiso   1.00
O1209  O     0.15693   0.79060   0.66625   0.00000  Uiso   1.00
O1210  O     0.12687   0.87313   0.83749   0.00000  Uiso   1.00
O1211  O     0.21088   0.84159   0.65877   0.00000  Uiso   1.00
O1212  O     0.17198   0.82802   0.83749   0.00000  Uiso   1.00
O1213  O     0.25266   0.70403   0.98598   0.00000  Uiso   1.00
O1214  O     0.31724   0.74195   0.50199   0.00000  Uiso   1.00
O1215  O     0.26547   0.69498   0.55303   0.00000  Uiso   1.00
O1216  O     0.21848   0.91397   0.58219   0.00000  Uiso   1.00
O1217  O     0.18210   0.96858   0.56860   0.00000  Uiso   1.00
O1218  O     0.13694   0.91664   0.61806   0.00000  Uiso   1.00
O1219  O     0.17849   0.74768   0.77820   0.00000  Uiso   1.00
O1220  O     0.14581   0.92803   0.76767   0.00000  Uiso   1.00
O1221  O     0.07452   0.79917   0.73607   0.00000  Uiso   1.00
O1222  O     0.26785   0.85845   0.71805   0.00000  Uiso   1.00
O1223  O     0.06990   0.85627   0.77820   0.00000  Uiso   1.00
O1224  O     0.25440   0.81944   0.76767   0.00000  Uiso   1.00
O1225  O     0.13800   0.73570   0.73607   0.00000  Uiso   1.00
O1226  O     0.20437   0.92193   0.71805   0.00000  Uiso   1.00
S1227  S     0.27038   0.72751   0.51844   0.00000  Uiso   1.00
S1228  S     0.17714   0.92358   0.57655   0.00000  Uiso   1.00
Zn1229 Zn    0.19244   0.80756   0.78277   0.00000  Uiso   1.00
Zn1230 Zn    0.13459   0.79044   0.72257   0.00000  Uiso   1.00
Zn1231 Zn    0.21166   0.86331   0.71188   0.00000  Uiso   1.00
Zn1232 Zn    0.12798   0.87202   0.78277   0.00000  Uiso   1.00
C1233  C     0.38620   0.82687   0.75832   0.00000  Uiso   1.00
C1234  C     0.55417   0.81717   0.95630   0.00000  Uiso   1.00
C1235  C     0.57600   0.79748   0.97601   0.00000  Uiso   1.00
C1236  C     0.61434   0.83998   0.74140   0.00000  Uiso   1.00
C1237  C     0.56195   0.79849   0.51783   0.00000  Uiso   1.00
C1238  C     0.53248   0.82779   0.53885   0.00000  Uiso   1.00
C1239  C     0.57511   0.77131   0.53977   0.00000  Uiso   1.00
C1240  C     0.56160   0.77638   0.58119   0.00000  Uiso   1.00
C1241  C     0.51577   0.82741   0.57998   0.00000  Uiso   1.00
C1242  C     0.65984   0.84248   0.73907   0.00000  Uiso   1.00
C1243  C     0.34066   0.82288   0.76331   0.00000  Uiso   1.00
C1244  C     0.44913   0.89774   0.91979   0.00000  Uiso   1.00
C1245  C     0.51429   0.98885   0.73794   0.00000  Uiso   1.00
C1246  C     0.48534   0.67875   0.76233   0.00000  Uiso   1.00
C1247  C     0.48943   0.72275   0.75894   0.00000  Uiso   1.00
C1248  C     0.51025   0.94434   0.74130   0.00000  Uiso   1.00
C1249  C     0.52153   0.81217   0.64394   0.00000  Uiso   1.00
C1250  C     0.47907   0.85446   0.85631   0.00000  Uiso   1.00
C1251  C     0.47407   0.86607   0.89894   0.00000  Uiso   1.00
C1252  C     0.53200   0.80401   0.60103   0.00000  Uiso   1.00
C1253  C     0.44810   0.91086   0.95914   0.00000  Uiso   1.00
C1254  C     0.65811   0.79162   0.82627   0.00000  Uiso   1.00
C1255  C     0.49706   0.84705   0.91827   0.00000  Uiso   1.00
C1256  C     0.65232   0.80781   0.94729   0.00000  Uiso   1.00
C1257  C     0.49791   0.86099   0.95745   0.00000  Uiso   1.00
C1258  C     0.47250   0.89295   0.97801   0.00000  Uiso   1.00
C1259  C     0.52259   0.84338   0.97696   0.00000  Uiso   1.00
C1260  C     0.51754   0.85436   0.51799   0.00000  Uiso   1.00
C1261  C     0.49761   0.89119   0.53592   0.00000  Uiso   1.00
C1262  C     0.47358   0.90838   0.51641   0.00000  Uiso   1.00
H1263  H     0.45718   0.93541   0.53066   0.00000  Uiso   1.00
H1264  H     0.56508   0.81413   0.92436   0.00000  Uiso   1.00
H1265  H     0.61369   0.67074   0.53848   0.00000  Uiso   1.00
H1266  H     0.63581   0.76732   0.77725   0.00000  Uiso   1.00
H1267  H     0.63140   0.77342   0.84660   0.00000  Uiso   1.00
H1268  H     0.66412   0.82301   0.84178   0.00000  Uiso   1.00
H1269  H     0.35393   0.77506   0.81889   0.00000  Uiso   1.00
H1270  H     0.61009   0.76293   0.92685   0.00000  Uiso   1.00
H1271  H     0.34700   0.79073   0.93126   0.00000  Uiso   1.00
H1272  H     0.65706   0.82205   0.97627   0.00000  Uiso   1.00
H1273  H     0.65080   0.83288   0.92942   0.00000  Uiso   1.00
H1274  H     0.34919   0.86146   0.71745   0.00000  Uiso   1.00
H1275  H     0.48116   0.93276   0.63965   0.00000  Uiso   1.00
H1276  H     0.54102   0.66948   0.71549   0.00000  Uiso   1.00
H1277  H     0.45829   0.99889   0.78491   0.00000  Uiso   1.00
H1278  H     0.48980   0.84521   0.59629   0.00000  Uiso   1.00
H1279  H     0.57328   0.75794   0.59835   0.00000  Uiso   1.00
H1280  H     0.42893   0.93570   0.97458   0.00000  Uiso   1.00
H1281  H     0.43101   0.91287   0.90553   0.00000  Uiso   1.00
H1282  H     0.51389   0.82112   0.90222   0.00000  Uiso   1.00
N1283  N     0.64618   0.79546   0.79069   0.00000  Uiso   1.00
N1284  N     0.61336   0.77904   0.95317   0.00000  Uiso   1.00
O1285  O     0.50000   0.83333   0.75000   0.00000  Uiso   1.00
O1286  O     0.49027   0.79060   0.66625   0.00000  Uiso   1.00
O1287  O     0.46020   0.87313   0.83749   0.00000  Uiso   1.00
O1288  O     0.54421   0.84159   0.65877   0.00000  Uiso   1.00
O1289  O     0.50532   0.82802   0.83749   0.00000  Uiso   1.00
O1290  O     0.58599   0.70403   0.98598   0.00000  Uiso   1.00
O1291  O     0.65058   0.74195   0.50199   0.00000  Uiso   1.00
O1292  O     0.59880   0.69498   0.55303   0.00000  Uiso   1.00
O1293  O     0.55182   0.91397   0.58219   0.00000  Uiso   1.00
O1294  O     0.51544   0.96858   0.56860   0.00000  Uiso   1.00
O1295  O     0.47028   0.91664   0.61806   0.00000  Uiso   1.00
O1296  O     0.51182   0.74768   0.77820   0.00000  Uiso   1.00
O1297  O     0.47914   0.92803   0.76767   0.00000  Uiso   1.00
O1298  O     0.40785   0.79917   0.73607   0.00000  Uiso   1.00
O1299  O     0.60119   0.85845   0.71805   0.00000  Uiso   1.00
O1300  O     0.40323   0.85627   0.77820   0.00000  Uiso   1.00
O1301  O     0.58773   0.81944   0.76767   0.00000  Uiso   1.00
O1302  O     0.47133   0.73570   0.73607   0.00000  Uiso   1.00
O1303  O     0.53771   0.92193   0.71805   0.00000  Uiso   1.00
S1304  S     0.60371   0.72751   0.51844   0.00000  Uiso   1.00
S1305  S     0.51048   0.92358   0.57655   0.00000  Uiso   1.00
Zn1306 Zn    0.52577   0.80756   0.78277   0.00000  Uiso   1.00
Zn1307 Zn    0.46792   0.79044   0.72257   0.00000  Uiso   1.00
Zn1308 Zn    0.54500   0.86331   0.71188   0.00000  Uiso   1.00
Zn1309 Zn    0.46131   0.87202   0.78277   0.00000  Uiso   1.00
C1310  C     0.71953   0.82687   0.75832   0.00000  Uiso   1.00
C1311  C     0.88750   0.81717   0.95630   0.00000  Uiso   1.00
C1312  C     0.90933   0.79748   0.97601   0.00000  Uiso   1.00
C1313  C     0.94767   0.83998   0.74140   0.00000  Uiso   1.00
C1314  C     0.89528   0.79849   0.51783   0.00000  Uiso   1.00
C1315  C     0.86581   0.82779   0.53885   0.00000  Uiso   1.00
C1316  C     0.90844   0.77131   0.53977   0.00000  Uiso   1.00
C1317  C     0.89494   0.77638   0.58119   0.00000  Uiso   1.00
C1318  C     0.84911   0.82741   0.57998   0.00000  Uiso   1.00
C1319  C     0.99317   0.84248   0.73907   0.00000  Uiso   1.00
C1320  C     0.67399   0.82288   0.76331   0.00000  Uiso   1.00
C1321  C     0.78246   0.89774   0.91979   0.00000  Uiso   1.00
C1322  C     0.84763   0.98885   0.73794   0.00000  Uiso   1.00
C1323  C     0.81867   0.67875   0.76233   0.00000  Uiso   1.00
C1324  C     0.82276   0.72275   0.75894   0.00000  Uiso   1.00
C1325  C     0.84358   0.94434   0.74130   0.00000  Uiso   1.00
C1326  C     0.85486   0.81217   0.64394   0.00000  Uiso   1.00
C1327  C     0.81241   0.85446   0.85631   0.00000  Uiso   1.00
C1328  C     0.80741   0.86607   0.89894   0.00000  Uiso   1.00
C1329  C     0.86533   0.80401   0.60103   0.00000  Uiso   1.00
C1330  C     0.78144   0.91086   0.95914   0.00000  Uiso   1.00
C1331  C     0.99144   0.79162   0.82627   0.00000  Uiso   1.00
C1332  C     0.83039   0.84705   0.91827   0.00000  Uiso   1.00
C1333  C     0.98566   0.80781   0.94729   0.00000  Uiso   1.00
C1334  C     0.83125   0.86099   0.95745   0.00000  Uiso   1.00
C1335  C     0.80583   0.89295   0.97801   0.00000  Uiso   1.00
C1336  C     0.85593   0.84338   0.97696   0.00000  Uiso   1.00
C1337  C     0.85087   0.85436   0.51799   0.00000  Uiso   1.00
C1338  C     0.83094   0.89119   0.53592   0.00000  Uiso   1.00
C1339  C     0.80692   0.90838   0.51641   0.00000  Uiso   1.00
H1340  H     0.79051   0.93541   0.53066   0.00000  Uiso   1.00
H1341  H     0.89842   0.81413   0.92436   0.00000  Uiso   1.00
H1342  H     0.94703   0.67074   0.53848   0.00000  Uiso   1.00
H1343  H     0.96914   0.76732   0.77725   0.00000  Uiso   1.00
H1344  H     0.96473   0.77342   0.84660   0.00000  Uiso   1.00
H1345  H     0.99746   0.82301   0.84178   0.00000  Uiso   1.00
H1346  H     0.68726   0.77506   0.81889   0.00000  Uiso   1.00
H1347  H     0.94342   0.76293   0.92685   0.00000  Uiso   1.00
H1348  H     0.68034   0.79073   0.93126   0.00000  Uiso   1.00
H1349  H     0.99039   0.82205   0.97627   0.00000  Uiso   1.00
H1350  H     0.98414   0.83288   0.92942   0.00000  Uiso   1.00
H1351  H     0.68252   0.86146   0.71745   0.00000  Uiso   1.00
H1352  H     0.81449   0.93276   0.63965   0.00000  Uiso   1.00
H1353  H     0.87435   0.66948   0.71549   0.00000  Uiso   1.00
H1354  H     0.79162   0.99889   0.78491   0.00000  Uiso   1.00
H1355  H     0.82314   0.84521   0.59629   0.00000  Uiso   1.00
H1356  H     0.90662   0.75794   0.59835   0.00000  Uiso   1.00
H1357  H     0.76226   0.93570   0.97458   0.00000  Uiso   1.00
H1358  H     0.76434   0.91287   0.90553   0.00000  Uiso   1.00
H1359  H     0.84723   0.82112   0.90222   0.00000  Uiso   1.00
N1360  N     0.97952   0.79546   0.79069   0.00000  Uiso   1.00
N1361  N     0.94669   0.77904   0.95317   0.00000  Uiso   1.00
O1362  O     0.83333   0.83333   0.75000   0.00000  Uiso   1.00
O1363  O     0.82360   0.79060   0.66625   0.00000  Uiso   1.00
O1364  O     0.79354   0.87313   0.83749   0.00000  Uiso   1.00
O1365  O     0.87755   0.84159   0.65877   0.00000  Uiso   1.00
O1366  O     0.83865   0.82802   0.83749   0.00000  Uiso   1.00
O1367  O     0.91933   0.70403   0.98598   0.00000  Uiso   1.00
O1368  O     0.98391   0.74195   0.50199   0.00000  Uiso   1.00
O1369  O     0.93213   0.69498   0.55303   0.00000  Uiso   1.00
O1370  O     0.88515   0.91397   0.58219   0.00000  Uiso   1.00
O1371  O     0.84877   0.96858   0.56860   0.00000  Uiso   1.00
O1372  O     0.80361   0.91664   0.61806   0.00000  Uiso   1.00
O1373  O     0.84515   0.74768   0.77820   0.00000  Uiso   1.00
O1374  O     0.81247   0.92803   0.76767   0.00000  Uiso   1.00
O1375  O     0.74119   0.79917   0.73607   0.00000  Uiso   1.00
O1376  O     0.93452   0.85845   0.71805   0.00000  Uiso   1.00
O1377  O     0.73656   0.85627   0.77820   0.00000  Uiso   1.00
O1378  O     0.92106   0.81944   0.76767   0.00000  Uiso   1.00
O1379  O     0.80467   0.73570   0.73607   0.00000  Uiso   1.00
O1380  O     0.87104   0.92193   0.71805   0.00000  Uiso   1.00
S1381  S     0.93704   0.72751   0.51844   0.00000  Uiso   1.00
S1382  S     0.84381   0.92358   0.57655   0.00000  Uiso   1.00
Zn1383 Zn    0.85910   0.80756   0.78277   0.00000  Uiso   1.00
Zn1384 Zn    0.80125   0.79044   0.72257   0.00000  Uiso   1.00
Zn1385 Zn    0.87833   0.86331   0.71188   0.00000  Uiso   1.00
Zn1386 Zn    0.79465   0.87202   0.78277   0.00000  Uiso   1.00
loop_
_geom_bond_atom_site_label_1
_geom_bond_atom_site_label_2
_geom_bond_distance
_geom_bond_site_symmetry_2
_ccdc_geom_bond_type
C1     C11     1.437   .     S
C1     O66     1.267   .     A
C1     O68     1.269   .     A
C2     H32     1.080   .     S
C2     C27     1.407   .     A
C2     C3      1.396   .     A
C3     N52     1.421   .     S
C3     C698    1.416   .     S
C4     O69     1.265   .     A
C4     C10     1.457   .     S
C4     O67     1.282   .     A
C5     C7      1.435   .     A
C5     C6      1.433   .     A
C5     C696    1.416   1_554 S
C6     C9      1.402   .     A
C6     C28     1.426   .     A
C7     C8      1.399   .     A
C7     S72     1.779   .     S
C8     C20     1.389   .     A
C8     H47     1.083   .     S
C9     H46     1.077   .     S
C9     C20     1.384   .     A
C10    C88     1.349   .     S
C10    H119    1.088   .     S
C11    C164    1.349   1_455 S
C11    N205    1.432   1_455 S
C12    H49     1.083   .     S
C12    C21     1.394   .     A
C12    C19     1.401   .     A
C13    C16     1.451   .     S
C13    C245    1.332   .     S
C13    H275    1.088   .     S
C14    C15     1.435   .     S
C14    C475    1.332   1_545 S
C14    H507    1.086   1_545 S
C15    O64     1.275   .     A
C15    O70     1.275   .     A
C16    O71     1.272   .     A
C16    O65     1.272   .     A
C17    C20     1.455   .     S
C17    O56     1.274   .     A
C17    O54     1.279   .     A
C18    C19     1.474   .     S
C18    O57     1.285   .     A
C18    O55     1.284   .     A
C19    C23     1.401   .     A
C21    C26     1.404   .     A
C21    H48     1.084   .     S
C22    H35     1.110   .     S
C22    H36     1.111   .     S
C22    N51     1.448   .     S
C22    H114    1.111   .     S
C23    H50     1.078   .     S
C23    C25     1.408   .     A
C24    N52     1.447   .     S
C24    H41     1.112   .     S
C24    H40     1.112   .     S
C24    H116    1.110   .     S
C25    C26     1.414   .     A
C25    C27     1.421   .     A
C26    C723    1.394   .     S
C27    C721    1.417   .     S
C28    C29     1.430   .     A
C28    C720    1.417   1_554 S
C29    C30     1.397   .     A
C29    S73     1.781   .     S
C30    H31     1.084   .     S
C30    C719    1.394   1_554 S
H33    O60     0.991   .     S
H34    N51     1.032   .     S
H37    C176    1.111   1_455 S
H38    N52     1.032   .     S
H39    C178    1.110   1_455 S
H42    C164    1.088   1_455 S
H43    O63     0.991   .     S
H44    C475    1.088   1_545 S
H45    C245    1.086   .     S
N51    C88     1.432   .     S
O53    Zn74    1.947   .     S
O53    Zn75    1.946   .     S
O53    Zn77    1.937   .     S
O53    Zn76    1.931   .     S
O54    Zn75    1.918   .     S
O55    Zn77    1.924   .     S
O56    Zn76    1.925   .     S
O57    Zn74    1.919   .     S
O58    S765    1.504   .     S
O59    S72     1.503   .     D
O60    S72     1.683   .     S
O61    S73     1.504   .     D
O62    S73     1.503   .     D
O63    S73     1.682   .     S
O64    Zn74    1.929   .     S
O65    Zn77    1.927   .     S
O66    Zn75    1.937   .     S
O67    Zn76    1.943   .     S
O68    Zn77    1.941   .     S
O69    Zn74    1.935   .     S
O70    Zn75    1.930   .     S
O71    Zn76    1.930   .     S
S72    O751    1.504   1_554 S
C78    C88     1.437   .     S
C78    O143    1.267   .     A
C78    O145    1.269   .     A
C79    H109    1.080   .     S
C79    C104    1.407   .     A
C79    C80     1.396   .     A
C80    N129    1.421   .     S
C80    C775    1.416   .     S
C81    O146    1.265   .     A
C81    C87     1.457   .     S
C81    O144    1.282   .     A
C82    C84     1.435   .     A
C82    C83     1.433   .     A
C82    C773    1.416   1_554 S
C83    C86     1.402   .     A
C83    C105    1.426   .     A
C84    C85     1.399   .     A
C84    S149    1.779   .     S
C85    C97     1.389   .     A
C85    H124    1.083   .     S
C86    H123    1.077   .     S
C86    C97     1.384   .     A
C87    C165    1.349   .     S
C87    H196    1.088   .     S
C89    H126    1.083   .     S
C89    C98     1.394   .     A
C89    C96     1.401   .     A
C90    C93     1.451   .     S
C90    C322    1.332   .     S
C90    H352    1.088   .     S
C91    C92     1.435   .     S
C91    C552    1.332   1_545 S
C91    H584    1.086   1_545 S
C92    O141    1.275   .     A
C92    O147    1.275   .     A
C93    O148    1.272   .     A
C93    O142    1.272   .     A
C94    C97     1.455   .     S
C94    O133    1.274   .     A
C94    O131    1.279   .     A
C95    C96     1.474   .     S
C95    O134    1.285   .     A
C95    O132    1.284   .     A
C96    C100    1.401   .     A
C98    C103    1.404   .     A
C98    H125    1.084   .     S
C99    H112    1.110   .     S
C99    H113    1.111   .     S
C99    N128    1.448   .     S
C99    H191    1.111   .     S
C100   H127    1.078   .     S
C100   C102    1.408   .     A
C101   N129    1.447   .     S
C101   H118    1.112   .     S
C101   H117    1.112   .     S
C101   H193    1.110   .     S
C102   C103    1.414   .     A
C102   C104    1.421   .     A
C103   C800    1.394   .     S
C104   C798    1.417   .     S
C105   C106    1.430   .     A
C105   C797    1.417   1_554 S
C106   C107    1.397   .     A
C106   S150    1.781   .     S
C107   H108    1.084   .     S
C107   C796    1.394   1_554 S
H110   O137    0.991   .     S
H111   N128    1.032   .     S
H115   N129    1.032   .     S
H120   O140    0.991   .     S
H121   C552    1.088   1_545 S
H122   C322    1.086   .     S
N128   C165    1.432   .     S
O130   Zn151   1.947   .     S
O130   Zn152   1.946   .     S
O130   Zn154   1.937   .     S
O130   Zn153   1.931   .     S
O131   Zn152   1.918   .     S
O132   Zn154   1.924   .     S
O133   Zn153   1.925   .     S
O134   Zn151   1.919   .     S
O135   S842    1.504   .     S
O136   S149    1.503   .     D
O137   S149    1.683   .     S
O138   S150    1.504   .     D
O139   S150    1.503   .     D
O140   S150    1.682   .     S
O141   Zn151   1.929   .     S
O142   Zn154   1.927   .     S
O143   Zn152   1.937   .     S
O144   Zn153   1.943   .     S
O145   Zn154   1.941   .     S
O146   Zn151   1.935   .     S
O147   Zn152   1.930   .     S
O148   Zn153   1.930   .     S
S149   O828    1.504   1_554 S
C155   C165    1.437   .     S
C155   O220    1.267   .     A
C155   O222    1.269   .     A
C156   H186    1.080   .     S
C156   C181    1.407   .     A
C156   C157    1.396   .     A
C157   N206    1.421   .     S
C157   C852    1.416   .     S
C158   O223    1.265   .     A
C158   C164    1.457   .     S
C158   O221    1.282   .     A
C159   C161    1.435   .     A
C159   C160    1.433   .     A
C159   C850    1.416   1_554 S
C160   C163    1.402   .     A
C160   C182    1.426   .     A
C161   C162    1.399   .     A
C161   S226    1.779   .     S
C162   C174    1.389   .     A
C162   H201    1.083   .     S
C163   H200    1.077   .     S
C163   C174    1.384   .     A
C164   C11     1.349   1_655 S
C164   H42     1.088   1_655 S
C166   H203    1.083   .     S
C166   C175    1.394   .     A
C166   C173    1.401   .     A
C167   C170    1.451   .     S
C167   C399    1.332   .     S
C167   H429    1.088   .     S
C168   C169    1.435   .     S
C168   C629    1.332   1_545 S
C168   H661    1.086   1_545 S
C169   O218    1.275   .     A
C169   O224    1.275   .     A
C170   O225    1.272   .     A
C170   O219    1.272   .     A
C171   C174    1.455   .     S
C171   O210    1.274   .     A
C171   O208    1.279   .     A
C172   C173    1.474   .     S
C172   O211    1.285   .     A
C172   O209    1.284   .     A
C173   C177    1.401   .     A
C175   C180    1.404   .     A
C175   H202    1.084   .     S
C176   H189    1.110   .     S
C176   H190    1.111   .     S
C176   N205    1.448   .     S
C176   H37     1.111   1_655 S
C177   H204    1.078   .     S
C177   C179    1.408   .     A
C178   N206    1.447   .     S
C178   H195    1.112   .     S
C178   H194    1.112   .     S
C178   H39     1.110   1_655 S
C179   C180    1.414   .     A
C179   C181    1.421   .     A
C180   C877    1.394   .     S
C181   C875    1.417   .     S
C182   C183    1.430   .     A
C182   C874    1.417   1_554 S
C183   C184    1.397   .     A
C183   S227    1.781   .     S
C184   H185    1.084   .     S
C184   C873    1.394   1_554 S
H187   O214    0.991   .     S
H188   N205    1.032   .     S
H192   N206    1.032   .     S
H197   O217    0.991   .     S
H198   C629    1.088   1_545 S
H199   C399    1.086   .     S
N205   C11     1.432   1_655 S
O207   Zn228   1.947   .     S
O207   Zn229   1.946   .     S
O207   Zn231   1.937   .     S
O207   Zn230   1.931   .     S
O208   Zn229   1.918   .     S
O209   Zn231   1.924   .     S
O210   Zn230   1.925   .     S
O211   Zn228   1.919   .     S
O212   S919    1.504   .     S
O213   S226    1.503   .     D
O214   S226    1.683   .     S
O215   S227    1.504   .     D
O216   S227    1.503   .     D
O217   S227    1.682   .     S
O218   Zn228   1.929   .     S
O219   Zn231   1.927   .     S
O220   Zn229   1.937   .     S
O221   Zn230   1.943   .     S
O222   Zn231   1.941   .     S
O223   Zn228   1.935   .     S
O224   Zn229   1.930   .     S
O225   Zn230   1.930   .     S
S226   O905    1.504   1_554 S
C232   C242    1.437   .     S
C232   O297    1.267   .     A
C232   O299    1.269   .     A
C233   H263    1.080   .     S
C233   C258    1.407   .     A
C233   C234    1.396   .     A
C234   N283    1.421   .     S
C234   C929    1.416   .     S
C235   O300    1.265   .     A
C235   C241    1.457   .     S
C235   O298    1.282   .     A
C236   C238    1.435   .     A
C236   C237    1.433   .     A
C236   C927    1.416   1_554 S
C237   C240    1.402   .     A
C237   C259    1.426   .     A
C238   C239    1.399   .     A
C238   S303    1.779   .     S
C239   C251    1.389   .     A
C239   H278    1.083   .     S
C240   H277    1.077   .     S
C240   C251    1.384   .     A
C241   C319    1.349   .     S
C241   H350    1.088   .     S
C242   C395    1.349   1_455 S
C242   N436    1.432   1_455 S
C243   H280    1.083   .     S
C243   C252    1.394   .     A
C243   C250    1.401   .     A
C244   C247    1.451   .     S
C244   C476    1.332   .     S
C244   H506    1.088   .     S
C245   C246    1.435   .     S
C246   O295    1.275   .     A
C246   O301    1.275   .     A
C247   O302    1.272   .     A
C247   O296    1.272   .     A
C248   C251    1.455   .     S
C248   O287    1.274   .     A
C248   O285    1.279   .     A
C249   C250    1.474   .     S
C249   O288    1.285   .     A
C249   O286    1.284   .     A
C250   C254    1.401   .     A
C252   C257    1.404   .     A
C252   H279    1.084   .     S
C253   H266    1.110   .     S
C253   H267    1.111   .     S
C253   N282    1.448   .     S
C253   H345    1.111   .     S
C254   H281    1.078   .     S
C254   C256    1.408   .     A
C255   N283    1.447   .     S
C255   H272    1.112   .     S
C255   H271    1.112   .     S
C255   H347    1.110   .     S
C256   C257    1.414   .     A
C256   C258    1.421   .     A
C257   C954    1.394   .     S
C258   C952    1.417   .     S
C259   C260    1.430   .     A
C259   C951    1.417   1_554 S
C260   C261    1.397   .     A
C260   S304    1.781   .     S
C261   H262    1.084   .     S
C261   C950    1.394   1_554 S
H264   O291    0.991   .     S
H265   N282    1.032   .     S
H268   C407    1.111   1_455 S
H269   N283    1.032   .     S
H270   C409    1.110   1_455 S
H273   C395    1.088   1_455 S
H274   O294    0.991   .     S
H276   C476    1.086   .     S
N282   C319    1.432   .     S
O284   Zn305   1.947   .     S
O284   Zn306   1.946   .     S
O284   Zn308   1.937   .     S
O284   Zn307   1.931   .     S
O285   Zn306   1.918   .     S
O286   Zn308   1.924   .     S
O287   Zn307   1.925   .     S
O288   Zn305   1.919   .     S
O289   S996    1.504   .     S
O290   S303    1.503   .     D
O291   S303    1.683   .     S
O292   S304    1.504   .     D
O293   S304    1.503   .     D
O294   S304    1.682   .     S
O295   Zn305   1.929   .     S
O296   Zn308   1.927   .     S
O297   Zn306   1.937   .     S
O298   Zn307   1.943   .     S
O299   Zn308   1.941   .     S
O300   Zn305   1.935   .     S
O301   Zn306   1.930   .     S
O302   Zn307   1.930   .     S
S303   O982    1.504   1_554 S
C309   C319    1.437   .     S
C309   O374    1.267   .     A
C309   O376    1.269   .     A
C310   H340    1.080   .     S
C310   C335    1.407   .     A
C310   C311    1.396   .     A
C311   N360    1.421   .     S
C311   C1006   1.416   .     S
C312   O377    1.265   .     A
C312   C318    1.457   .     S
C312   O375    1.282   .     A
C313   C315    1.435   .     A
C313   C314    1.433   .     A
C313   C1004   1.416   1_554 S
C314   C317    1.402   .     A
C314   C336    1.426   .     A
C315   C316    1.399   .     A
C315   S380    1.779   .     S
C316   C328    1.389   .     A
C316   H355    1.083   .     S
C317   H354    1.077   .     S
C317   C328    1.384   .     A
C318   C396    1.349   .     S
C318   H427    1.088   .     S
C320   H357    1.083   .     S
C320   C329    1.394   .     A
C320   C327    1.401   .     A
C321   C324    1.451   .     S
C321   C553    1.332   .     S
C321   H583    1.088   .     S
C322   C323    1.435   .     S
C323   O372    1.275   .     A
C323   O378    1.275   .     A
C324   O379    1.272   .     A
C324   O373    1.272   .     A
C325   C328    1.455   .     S
C325   O364    1.274   .     A
C325   O362    1.279   .     A
C326   C327    1.474   .     S
C326   O365    1.285   .     A
C326   O363    1.284   .     A
C327   C331    1.401   .     A
C329   C334    1.404   .     A
C329   H356    1.084   .     S
C330   H343    1.110   .     S
C330   H344    1.111   .     S
C330   N359    1.448   .     S
C330   H422    1.111   .     S
C331   H358    1.078   .     S
C331   C333    1.408   .     A
C332   N360    1.447   .     S
C332   H349    1.112   .     S
C332   H348    1.112   .     S
C332   H424    1.110   .     S
C333   C334    1.414   .     A
C333   C335    1.421   .     A
C334   C1031   1.394   .     S
C335   C1029   1.417   .     S
C336   C337    1.430   .     A
C336   C1028   1.417   1_554 S
C337   C338    1.397   .     A
C337   S381    1.781   .     S
C338   H339    1.084   .     S
C338   C1027   1.394   1_554 S
H341   O368    0.991   .     S
H342   N359    1.032   .     S
H346   N360    1.032   .     S
H351   O371    0.991   .     S
H353   C553    1.086   .     S
N359   C396    1.432   .     S
O361   Zn382   1.947   .     S
O361   Zn383   1.946   .     S
O361   Zn385   1.937   .     S
O361   Zn384   1.931   .     S
O362   Zn383   1.918   .     S
O363   Zn385   1.924   .     S
O364   Zn384   1.925   .     S
O365   Zn382   1.919   .     S
O366   S1073   1.504   .     S
O367   S380    1.503   .     D
O368   S380    1.683   .     S
O369   S381    1.504   .     D
O370   S381    1.503   .     D
O371   S381    1.682   .     S
O372   Zn382   1.929   .     S
O373   Zn385   1.927   .     S
O374   Zn383   1.937   .     S
O375   Zn384   1.943   .     S
O376   Zn385   1.941   .     S
O377   Zn382   1.935   .     S
O378   Zn383   1.930   .     S
O379   Zn384   1.930   .     S
S380   O1059   1.504   1_554 S
C386   C396    1.437   .     S
C386   O451    1.267   .     A
C386   O453    1.269   .     A
C387   H417    1.080   .     S
C387   C412    1.407   .     A
C387   C388    1.396   .     A
C388   N437    1.421   .     S
C388   C1083   1.416   .     S
C389   O454    1.265   .     A
C389   C395    1.457   .     S
C389   O452    1.282   .     A
C390   C392    1.435   .     A
C390   C391    1.433   .     A
C390   C1081   1.416   1_554 S
C391   C394    1.402   .     A
C391   C413    1.426   .     A
C392   C393    1.399   .     A
C392   S457    1.779   .     S
C393   C405    1.389   .     A
C393   H432    1.083   .     S
C394   H431    1.077   .     S
C394   C405    1.384   .     A
C395   C242    1.349   1_655 S
C395   H273    1.088   1_655 S
C397   H434    1.083   .     S
C397   C406    1.394   .     A
C397   C404    1.401   .     A
C398   C401    1.451   .     S
C398   C630    1.332   .     S
C398   H660    1.088   .     S
C399   C400    1.435   .     S
C400   O449    1.275   .     A
C400   O455    1.275   .     A
C401   O456    1.272   .     A
C401   O450    1.272   .     A
C402   C405    1.455   .     S
C402   O441    1.274   .     A
C402   O439    1.279   .     A
C403   C404    1.474   .     S
C403   O442    1.285   .     A
C403   O440    1.284   .     A
C404   C408    1.401   .     A
C406   C411    1.404   .     A
C406   H433    1.084   .     S
C407   H420    1.110   .     S
C407   H421    1.111   .     S
C407   N436    1.448   .     S
C407   H268    1.111   1_655 S
C408   H435    1.078   .     S
C408   C410    1.408   .     A
C409   N437    1.447   .     S
C409   H426    1.112   .     S
C409   H425    1.112   .     S
C409   H270    1.110   1_655 S
C410   C411    1.414   .     A
C410   C412    1.421   .     A
C411   C1108   1.394   .     S
C412   C1106   1.417   .     S
C413   C414    1.430   .     A
C413   C1105   1.417   1_554 S
C414   C415    1.397   .     A
C414   S458    1.781   .     S
C415   H416    1.084   .     S
C415   C1104   1.394   1_554 S
H418   O445    0.991   .     S
H419   N436    1.032   .     S
H423   N437    1.032   .     S
H428   O448    0.991   .     S
H430   C630    1.086   .     S
N436   C242    1.432   1_655 S
O438   Zn459   1.947   .     S
O438   Zn460   1.946   .     S
O438   Zn462   1.937   .     S
O438   Zn461   1.931   .     S
O439   Zn460   1.918   .     S
O440   Zn462   1.924   .     S
O441   Zn461   1.925   .     S
O442   Zn459   1.919   .     S
O443   S1150   1.504   .     S
O444   S457    1.503   .     D
O445   S457    1.683   .     S
O446   S458    1.504   .     D
O447   S458    1.503   .     D
O448   S458    1.682   .     S
O449   Zn459   1.929   .     S
O450   Zn462   1.927   .     S
O451   Zn460   1.937   .     S
O452   Zn461   1.943   .     S
O453   Zn462   1.941   .     S
O454   Zn459   1.935   .     S
O455   Zn460   1.930   .     S
O456   Zn461   1.930   .     S
S457   O1136   1.504   1_554 S
C463   C473    1.437   .     S
C463   O528    1.267   .     A
C463   O530    1.269   .     A
C464   H494    1.080   .     S
C464   C489    1.407   .     A
C464   C465    1.396   .     A
C465   N514    1.421   .     S
C465   C1160   1.416   .     S
C466   O531    1.265   .     A
C466   C472    1.457   .     S
C466   O529    1.282   .     A
C467   C469    1.435   .     A
C467   C468    1.433   .     A
C467   C1158   1.416   1_554 S
C468   C471    1.402   .     A
C468   C490    1.426   .     A
C469   C470    1.399   .     A
C469   S534    1.779   .     S
C470   C482    1.389   .     A
C470   H509    1.083   .     S
C471   H508    1.077   .     S
C471   C482    1.384   .     A
C472   C550    1.349   .     S
C472   H581    1.088   .     S
C473   C626    1.349   1_455 S
C473   N667    1.432   1_455 S
C474   H511    1.083   .     S
C474   C483    1.394   .     A
C474   C481    1.401   .     A
C475   C478    1.451   .     S
C475   C14     1.332   1_565 S
C475   H44     1.088   1_565 S
C476   C477    1.435   .     S
C477   O526    1.275   .     A
C477   O532    1.275   .     A
C478   O533    1.272   .     A
C478   O527    1.272   .     A
C479   C482    1.455   .     S
C479   O518    1.274   .     A
C479   O516    1.279   .     A
C480   C481    1.474   .     S
C480   O519    1.285   .     A
C480   O517    1.284   .     A
C481   C485    1.401   .     A
C483   C488    1.404   .     A
C483   H510    1.084   .     S
C484   H497    1.110   .     S
C484   H498    1.111   .     S
C484   N513    1.448   .     S
C484   H576    1.111   .     S
C485   H512    1.078   .     S
C485   C487    1.408   .     A
C486   N514    1.447   .     S
C486   H503    1.112   .     S
C486   H502    1.112   .     S
C486   H578    1.110   .     S
C487   C488    1.414   .     A
C487   C489    1.421   .     A
C488   C1185   1.394   .     S
C489   C1183   1.417   .     S
C490   C491    1.430   .     A
C490   C1182   1.417   1_554 S
C491   C492    1.397   .     A
C491   S535    1.781   .     S
C492   H493    1.084   .     S
C492   C1181   1.394   1_554 S
H495   O522    0.991   .     S
H496   N513    1.032   .     S
H499   C638    1.111   1_455 S
H500   N514    1.032   .     S
H501   C640    1.110   1_455 S
H504   C626    1.088   1_455 S
H505   O525    0.991   .     S
H507   C14     1.086   1_565 S
N513   C550    1.432   .     S
O515   Zn536   1.947   .     S
O515   Zn537   1.946   .     S
O515   Zn539   1.937   .     S
O515   Zn538   1.931   .     S
O516   Zn537   1.918   .     S
O517   Zn539   1.924   .     S
O518   Zn538   1.925   .     S
O519   Zn536   1.919   .     S
O520   S1227   1.504   .     S
O521   S534    1.503   .     D
O522   S534    1.683   .     S
O523   S535    1.504   .     D
O524   S535    1.503   .     D
O525   S535    1.682   .     S
O526   Zn536   1.929   .     S
O527   Zn539   1.927   .     S
O528   Zn537   1.937   .     S
O529   Zn538   1.943   .     S
O530   Zn539   1.941   .     S
O531   Zn536   1.935   .     S
O532   Zn537   1.930   .     S
O533   Zn538   1.930   .     S
S534   O1213   1.504   1_554 S
C540   C550    1.437   .     S
C540   O605    1.267   .     A
C540   O607    1.269   .     A
C541   H571    1.080   .     S
C541   C566    1.407   .     A
C541   C542    1.396   .     A
C542   N591    1.421   .     S
C542   C1237   1.416   .     S
C543   O608    1.265   .     A
C543   C549    1.457   .     S
C543   O606    1.282   .     A
C544   C546    1.435   .     A
C544   C545    1.433   .     A
C544   C1235   1.416   1_554 S
C545   C548    1.402   .     A
C545   C567    1.426   .     A
C546   C547    1.399   .     A
C546   S611    1.779   .     S
C547   C559    1.389   .     A
C547   H586    1.083   .     S
C548   H585    1.077   .     S
C548   C559    1.384   .     A
C549   C627    1.349   .     S
C549   H658    1.088   .     S
C551   H588    1.083   .     S
C551   C560    1.394   .     A
C551   C558    1.401   .     A
C552   C555    1.451   .     S
C552   C91     1.332   1_565 S
C552   H121    1.088   1_565 S
C553   C554    1.435   .     S
C554   O603    1.275   .     A
C554   O609    1.275   .     A
C555   O610    1.272   .     A
C555   O604    1.272   .     A
C556   C559    1.455   .     S
C556   O595    1.274   .     A
C556   O593    1.279   .     A
C557   C558    1.474   .     S
C557   O596    1.285   .     A
C557   O594    1.284   .     A
C558   C562    1.401   .     A
C560   C565    1.404   .     A
C560   H587    1.084   .     S
C561   H574    1.110   .     S
C561   H575    1.111   .     S
C561   N590    1.448   .     S
C561   H653    1.111   .     S
C562   H589    1.078   .     S
C562   C564    1.408   .     A
C563   N591    1.447   .     S
C563   H580    1.112   .     S
C563   H579    1.112   .     S
C563   H655    1.110   .     S
C564   C565    1.414   .     A
C564   C566    1.421   .     A
C565   C1262   1.394   .     S
C566   C1260   1.417   .     S
C567   C568    1.430   .     A
C567   C1259   1.417   1_554 S
C568   C569    1.397   .     A
C568   S612    1.781   .     S
C569   H570    1.084   .     S
C569   C1258   1.394   1_554 S
H572   O599    0.991   .     S
H573   N590    1.032   .     S
H577   N591    1.032   .     S
H582   O602    0.991   .     S
H584   C91     1.086   1_565 S
N590   C627    1.432   .     S
O592   Zn613   1.947   .     S
O592   Zn614   1.946   .     S
O592   Zn616   1.937   .     S
O592   Zn615   1.931   .     S
O593   Zn614   1.918   .     S
O594   Zn616   1.924   .     S
O595   Zn615   1.925   .     S
O596   Zn613   1.919   .     S
O597   S1304   1.504   .     S
O598   S611    1.503   .     D
O599   S611    1.683   .     S
O600   S612    1.504   .     D
O601   S612    1.503   .     D
O602   S612    1.682   .     S
O603   Zn613   1.929   .     S
O604   Zn616   1.927   .     S
O605   Zn614   1.937   .     S
O606   Zn615   1.943   .     S
O607   Zn616   1.941   .     S
O608   Zn613   1.935   .     S
O609   Zn614   1.930   .     S
O610   Zn615   1.930   .     S
S611   O1290   1.504   1_554 S
C617   C627    1.437   .     S
C617   O682    1.267   .     A
C617   O684    1.269   .     A
C618   H648    1.080   .     S
C618   C643    1.407   .     A
C618   C619    1.396   .     A
C619   N668    1.421   .     S
C619   C1314   1.416   .     S
C620   O685    1.265   .     A
C620   C626    1.457   .     S
C620   O683    1.282   .     A
C621   C623    1.435   .     A
C621   C622    1.433   .     A
C621   C1312   1.416   1_554 S
C622   C625    1.402   .     A
C622   C644    1.426   .     A
C623   C624    1.399   .     A
C623   S688    1.779   .     S
C624   C636    1.389   .     A
C624   H663    1.083   .     S
C625   H662    1.077   .     S
C625   C636    1.384   .     A
C626   C473    1.349   1_655 S
C626   H504    1.088   1_655 S
C628   H665    1.083   .     S
C628   C637    1.394   .     A
C628   C635    1.401   .     A
C629   C632    1.451   .     S
C629   C168    1.332   1_565 S
C629   H198    1.088   1_565 S
C630   C631    1.435   .     S
C631   O680    1.275   .     A
C631   O686    1.275   .     A
C632   O687    1.272   .     A
C632   O681    1.272   .     A
C633   C636    1.455   .     S
C633   O672    1.274   .     A
C633   O670    1.279   .     A
C634   C635    1.474   .     S
C634   O673    1.285   .     A
C634   O671    1.284   .     A
C635   C639    1.401   .     A
C637   C642    1.404   .     A
C637   H664    1.084   .     S
C638   H651    1.110   .     S
C638   H652    1.111   .     S
C638   N667    1.448   .     S
C638   H499    1.111   1_655 S
C639   H666    1.078   .     S
C639   C641    1.408   .     A
C640   N668    1.447   .     S
C640   H657    1.112   .     S
C640   H656    1.112   .     S
C640   H501    1.110   1_655 S
C641   C642    1.414   .     A
C641   C643    1.421   .     A
C642   C1339   1.394   .     S
C643   C1337   1.417   .     S
C644   C645    1.430   .     A
C644   C1336   1.417   1_554 S
C645   C646    1.397   .     A
C645   S689    1.781   .     S
C646   H647    1.084   .     S
C646   C1335   1.394   1_554 S
H649   O676    0.991   .     S
H650   N667    1.032   .     S
H654   N668    1.032   .     S
H659   O679    0.991   .     S
H661   C168    1.086   1_565 S
N667   C473    1.432   1_655 S
O669   Zn690   1.947   .     S
O669   Zn691   1.946   .     S
O669   Zn693   1.937   .     S
O669   Zn692   1.931   .     S
O670   Zn691   1.918   .     S
O671   Zn693   1.924   .     S
O672   Zn692   1.925   .     S
O673   Zn690   1.919   .     S
O674   S1381   1.504   .     S
O675   S688    1.503   .     D
O676   S688    1.683   .     S
O677   S689    1.504   .     D
O678   S689    1.503   .     D
O679   S689    1.682   .     S
O680   Zn690   1.929   .     S
O681   Zn693   1.927   .     S
O682   Zn691   1.937   .     S
O683   Zn692   1.943   .     S
O684   Zn693   1.941   .     S
O685   Zn690   1.935   .     S
O686   Zn691   1.930   .     S
O687   Zn692   1.930   .     S
S688   O1367   1.504   1_554 S
C694   C704    1.437   .     S
C694   O759    1.267   .     A
C694   O761    1.269   .     A
C695   H725    1.080   .     S
C695   C720    1.407   .     A
C695   C696    1.396   .     A
C696   N745    1.421   .     S
C696   C5      1.416   1_556 S
C697   O762    1.265   .     A
C697   C703    1.457   .     S
C697   O760    1.282   .     A
C698   C700    1.435   .     A
C698   C699    1.433   .     A
C699   C702    1.402   .     A
C699   C721    1.426   .     A
C700   C701    1.399   .     A
C700   S765    1.779   .     S
C701   C713    1.389   .     A
C701   H740    1.083   .     S
C702   H739    1.077   .     S
C702   C713    1.384   .     A
C703   C781    1.349   .     S
C703   H812    1.088   .     S
C704   C857    1.349   1_455 S
C704   N898    1.432   1_455 S
C705   H742    1.083   .     S
C705   C714    1.394   .     A
C705   C712    1.401   .     A
C706   C709    1.451   .     S
C706   C938    1.332   .     S
C706   H968    1.088   .     S
C707   C708    1.435   .     S
C707   C1168   1.332   1_545 S
C707   H1200   1.086   1_545 S
C708   O757    1.275   .     A
C708   O763    1.275   .     A
C709   O764    1.272   .     A
C709   O758    1.272   .     A
C710   C713    1.455   .     S
C710   O749    1.274   .     A
C710   O747    1.279   .     A
C711   C712    1.474   .     S
C711   O750    1.285   .     A
C711   O748    1.284   .     A
C712   C716    1.401   .     A
C714   C719    1.404   .     A
C714   H741    1.084   .     S
C715   H728    1.110   .     S
C715   H729    1.111   .     S
C715   N744    1.448   .     S
C715   H807    1.111   .     S
C716   H743    1.078   .     S
C716   C718    1.408   .     A
C717   N745    1.447   .     S
C717   H734    1.112   .     S
C717   H733    1.112   .     S
C717   H809    1.110   .     S
C718   C719    1.414   .     A
C718   C720    1.421   .     A
C719   C30     1.394   1_556 S
C720   C28     1.417   1_556 S
C721   C722    1.430   .     A
C722   C723    1.397   .     A
C722   S766    1.781   .     S
C723   H724    1.084   .     S
H726   O753    0.991   .     S
H727   N744    1.032   .     S
H730   C869    1.111   1_455 S
H731   N745    1.032   .     S
H732   C871    1.110   1_455 S
H735   C857    1.088   1_455 S
H736   O756    0.991   .     S
H737   C1168   1.088   1_545 S
H738   C938    1.086   .     S
N744   C781    1.432   .     S
O746   Zn767   1.947   .     S
O746   Zn768   1.946   .     S
O746   Zn770   1.937   .     S
O746   Zn769   1.931   .     S
O747   Zn768   1.918   .     S
O748   Zn770   1.924   .     S
O749   Zn769   1.925   .     S
O750   Zn767   1.919   .     S
O751   S72     1.504   1_556 S
O752   S765    1.503   .     D
O753   S765    1.683   .     S
O754   S766    1.504   .     D
O755   S766    1.503   .     D
O756   S766    1.682   .     S
O757   Zn767   1.929   .     S
O758   Zn770   1.927   .     S
O759   Zn768   1.937   .     S
O760   Zn769   1.943   .     S
O761   Zn770   1.941   .     S
O762   Zn767   1.935   .     S
O763   Zn768   1.930   .     S
O764   Zn769   1.930   .     S
C771   C781    1.437   .     S
C771   O836    1.267   .     A
C771   O838    1.269   .     A
C772   H802    1.080   .     S
C772   C797    1.407   .     A
C772   C773    1.396   .     A
C773   N822    1.421   .     S
C773   C82     1.416   1_556 S
C774   O839    1.265   .     A
C774   C780    1.457   .     S
C774   O837    1.282   .     A
C775   C777    1.435   .     A
C775   C776    1.433   .     A
C776   C779    1.402   .     A
C776   C798    1.426   .     A
C777   C778    1.399   .     A
C777   S842    1.779   .     S
C778   C790    1.389   .     A
C778   H817    1.083   .     S
C779   H816    1.077   .     S
C779   C790    1.384   .     A
C780   C858    1.349   .     S
C780   H889    1.088   .     S
C782   H819    1.083   .     S
C782   C791    1.394   .     A
C782   C789    1.401   .     A
C783   C786    1.451   .     S
C783   C1015   1.332   .     S
C783   H1045   1.088   .     S
C784   C785    1.435   .     S
C784   C1245   1.332   1_545 S
C784   H1277   1.086   1_545 S
C785   O834    1.275   .     A
C785   O840    1.275   .     A
C786   O841    1.272   .     A
C786   O835    1.272   .     A
C787   C790    1.455   .     S
C787   O826    1.274   .     A
C787   O824    1.279   .     A
C788   C789    1.474   .     S
C788   O827    1.285   .     A
C788   O825    1.284   .     A
C789   C793    1.401   .     A
C791   C796    1.404   .     A
C791   H818    1.084   .     S
C792   H805    1.110   .     S
C792   H806    1.111   .     S
C792   N821    1.448   .     S
C792   H884    1.111   .     S
C793   H820    1.078   .     S
C793   C795    1.408   .     A
C794   N822    1.447   .     S
C794   H811    1.112   .     S
C794   H810    1.112   .     S
C794   H886    1.110   .     S
C795   C796    1.414   .     A
C795   C797    1.421   .     A
C796   C107    1.394   1_556 S
C797   C105    1.417   1_556 S
C798   C799    1.430   .     A
C799   C800    1.397   .     A
C799   S843    1.781   .     S
C800   H801    1.084   .     S
H803   O830    0.991   .     S
H804   N821    1.032   .     S
H808   N822    1.032   .     S
H813   O833    0.991   .     S
H814   C1245   1.088   1_545 S
H815   C1015   1.086   .     S
N821   C858    1.432   .     S
O823   Zn844   1.947   .     S
O823   Zn845   1.946   .     S
O823   Zn847   1.937   .     S
O823   Zn846   1.931   .     S
O824   Zn845   1.918   .     S
O825   Zn847   1.924   .     S
O826   Zn846   1.925   .     S
O827   Zn844   1.919   .     S
O828   S149    1.504   1_556 S
O829   S842    1.503   .     D
O830   S842    1.683   .     S
O831   S843    1.504   .     D
O832   S843    1.503   .     D
O833   S843    1.682   .     S
O834   Zn844   1.929   .     S
O835   Zn847   1.927   .     S
O836   Zn845   1.937   .     S
O837   Zn846   1.943   .     S
O838   Zn847   1.941   .     S
O839   Zn844   1.935   .     S
O840   Zn845   1.930   .     S
O841   Zn846   1.930   .     S
C848   C858    1.437   .     S
C848   O913    1.267   .     A
C848   O915    1.269   .     A
C849   H879    1.080   .     S
C849   C874    1.407   .     A
C849   C850    1.396   .     A
C850   N899    1.421   .     S
C850   C159    1.416   1_556 S
C851   O916    1.265   .     A
C851   C857    1.457   .     S
C851   O914    1.282   .     A
C852   C854    1.435   .     A
C852   C853    1.433   .     A
C853   C856    1.402   .     A
C853   C875    1.426   .     A
C854   C855    1.399   .     A
C854   S919    1.779   .     S
C855   C867    1.389   .     A
C855   H894    1.083   .     S
C856   H893    1.077   .     S
C856   C867    1.384   .     A
C857   C704    1.349   1_655 S
C857   H735    1.088   1_655 S
C859   H896    1.083   .     S
C859   C868    1.394   .     A
C859   C866    1.401   .     A
C860   C863    1.451   .     S
C860   C1092   1.332   .     S
C860   H1122   1.088   .     S
C861   C862    1.435   .     S
C861   C1322   1.332   1_545 S
C861   H1354   1.086   1_545 S
C862   O911    1.275   .     A
C862   O917    1.275   .     A
C863   O918    1.272   .     A
C863   O912    1.272   .     A
C864   C867    1.455   .     S
C864   O903    1.274   .     A
C864   O901    1.279   .     A
C865   C866    1.474   .     S
C865   O904    1.285   .     A
C865   O902    1.284   .     A
C866   C870    1.401   .     A
C868   C873    1.404   .     A
C868   H895    1.084   .     S
C869   H882    1.110   .     S
C869   H883    1.111   .     S
C869   N898    1.448   .     S
C869   H730    1.111   1_655 S
C870   H897    1.078   .     S
C870   C872    1.408   .     A
C871   N899    1.447   .     S
C871   H888    1.112   .     S
C871   H887    1.112   .     S
C871   H732    1.110   1_655 S
C872   C873    1.414   .     A
C872   C874    1.421   .     A
C873   C184    1.394   1_556 S
C874   C182    1.417   1_556 S
C875   C876    1.430   .     A
C876   C877    1.397   .     A
C876   S920    1.781   .     S
C877   H878    1.084   .     S
H880   O907    0.991   .     S
H881   N898    1.032   .     S
H885   N899    1.032   .     S
H890   O910    0.991   .     S
H891   C1322   1.088   1_545 S
H892   C1092   1.086   .     S
N898   C704    1.432   1_655 S
O900   Zn921   1.947   .     S
O900   Zn922   1.946   .     S
O900   Zn924   1.937   .     S
O900   Zn923   1.931   .     S
O901   Zn922   1.918   .     S
O902   Zn924   1.924   .     S
O903   Zn923   1.925   .     S
O904   Zn921   1.919   .     S
O905   S226    1.504   1_556 S
O906   S919    1.503   .     D
O907   S919    1.683   .     S
O908   S920    1.504   .     D
O909   S920    1.503   .     D
O910   S920    1.682   .     S
O911   Zn921   1.929   .     S
O912   Zn924   1.927   .     S
O913   Zn922   1.937   .     S
O914   Zn923   1.943   .     S
O915   Zn924   1.941   .     S
O916   Zn921   1.935   .     S
O917   Zn922   1.930   .     S
O918   Zn923   1.930   .     S
C925   C935    1.437   .     S
C925   O990    1.267   .     A
C925   O992    1.269   .     A
C926   H956    1.080   .     S
C926   C951    1.407   .     A
C926   C927    1.396   .     A
C927   N976    1.421   .     S
C927   C236    1.416   1_556 S
C928   O993    1.265   .     A
C928   C934    1.457   .     S
C928   O991    1.282   .     A
C929   C931    1.435   .     A
C929   C930    1.433   .     A
C930   C933    1.402   .     A
C930   C952    1.426   .     A
C931   C932    1.399   .     A
C931   S996    1.779   .     S
C932   C944    1.389   .     A
C932   H971    1.083   .     S
C933   H970    1.077   .     S
C933   C944    1.384   .     A
C934   C1012   1.349   .     S
C934   H1043   1.088   .     S
C935   C1088   1.349   1_455 S
C935   N1129   1.432   1_455 S
C936   H973    1.083   .     S
C936   C945    1.394   .     A
C936   C943    1.401   .     A
C937   C940    1.451   .     S
C937   C1169   1.332   .     S
C937   H1199   1.088   .     S
C938   C939    1.435   .     S
C939   O988    1.275   .     A
C939   O994    1.275   .     A
C940   O995    1.272   .     A
C940   O989    1.272   .     A
C941   C944    1.455   .     S
C941   O980    1.274   .     A
C941   O978    1.279   .     A
C942   C943    1.474   .     S
C942   O981    1.285   .     A
C942   O979    1.284   .     A
C943   C947    1.401   .     A
C945   C950    1.404   .     A
C945   H972    1.084   .     S
C946   H959    1.110   .     S
C946   H960    1.111   .     S
C946   N975    1.448   .     S
C946   H1038   1.111   .     S
C947   H974    1.078   .     S
C947   C949    1.408   .     A
C948   N976    1.447   .     S
C948   H965    1.112   .     S
C948   H964    1.112   .     S
C948   H1040   1.110   .     S
C949   C950    1.414   .     A
C949   C951    1.421   .     A
C950   C261    1.394   1_556 S
C951   C259    1.417   1_556 S
C952   C953    1.430   .     A
C953   C954    1.397   .     A
C953   S997    1.781   .     S
C954   H955    1.084   .     S
H957   O984    0.991   .     S
H958   N975    1.032   .     S
H961   C1100   1.111   1_455 S
H962   N976    1.032   .     S
H963   C1102   1.110   1_455 S
H966   C1088   1.088   1_455 S
H967   O987    0.991   .     S
H969   C1169   1.086   .     S
N975   C1012   1.432   .     S
O977   Zn998   1.947   .     S
O977   Zn999   1.946   .     S
O977   Zn1001  1.937   .     S
O977   Zn1000  1.931   .     S
O978   Zn999   1.918   .     S
O979   Zn1001  1.924   .     S
O980   Zn1000  1.925   .     S
O981   Zn998   1.919   .     S
O982   S303    1.504   1_556 S
O983   S996    1.503   .     D
O984   S996    1.683   .     S
O985   S997    1.504   .     D
O986   S997    1.503   .     D
O987   S997    1.682   .     S
O988   Zn998   1.929   .     S
O989   Zn1001  1.927   .     S
O990   Zn999   1.937   .     S
O991   Zn1000  1.943   .     S
O992   Zn1001  1.941   .     S
O993   Zn998   1.935   .     S
O994   Zn999   1.930   .     S
O995   Zn1000  1.930   .     S
C1002  C1012   1.437   .     S
C1002  O1067   1.267   .     A
C1002  O1069   1.269   .     A
C1003  H1033   1.080   .     S
C1003  C1028   1.407   .     A
C1003  C1004   1.396   .     A
C1004  N1053   1.421   .     S
C1004  C313    1.416   1_556 S
C1005  O1070   1.265   .     A
C1005  C1011   1.457   .     S
C1005  O1068   1.282   .     A
C1006  C1008   1.435   .     A
C1006  C1007   1.433   .     A
C1007  C1010   1.402   .     A
C1007  C1029   1.426   .     A
C1008  C1009   1.399   .     A
C1008  S1073   1.779   .     S
C1009  C1021   1.389   .     A
C1009  H1048   1.083   .     S
C1010  H1047   1.077   .     S
C1010  C1021   1.384   .     A
C1011  C1089   1.349   .     S
C1011  H1120   1.088   .     S
C1013  H1050   1.083   .     S
C1013  C1022   1.394   .     A
C1013  C1020   1.401   .     A
C1014  C1017   1.451   .     S
C1014  C1246   1.332   .     S
C1014  H1276   1.088   .     S
C1015  C1016   1.435   .     S
C1016  O1065   1.275   .     A
C1016  O1071   1.275   .     A
C1017  O1072   1.272   .     A
C1017  O1066   1.272   .     A
C1018  C1021   1.455   .     S
C1018  O1057   1.274   .     A
C1018  O1055   1.279   .     A
C1019  C1020   1.474   .     S
C1019  O1058   1.285   .     A
C1019  O1056   1.284   .     A
C1020  C1024   1.401   .     A
C1022  C1027   1.404   .     A
C1022  H1049   1.084   .     S
C1023  H1036   1.110   .     S
C1023  H1037   1.111   .     S
C1023  N1052   1.448   .     S
C1023  H1115   1.111   .     S
C1024  H1051   1.078   .     S
C1024  C1026   1.408   .     A
C1025  N1053   1.447   .     S
C1025  H1042   1.112   .     S
C1025  H1041   1.112   .     S
C1025  H1117   1.110   .     S
C1026  C1027   1.414   .     A
C1026  C1028   1.421   .     A
C1027  C338    1.394   1_556 S
C1028  C336    1.417   1_556 S
C1029  C1030   1.430   .     A
C1030  C1031   1.397   .     A
C1030  S1074   1.781   .     S
C1031  H1032   1.084   .     S
H1034  O1061   0.991   .     S
H1035  N1052   1.032   .     S
H1039  N1053   1.032   .     S
H1044  O1064   0.991   .     S
H1046  C1246   1.086   .     S
N1052  C1089   1.432   .     S
O1054  Zn1075  1.947   .     S
O1054  Zn1076  1.946   .     S
O1054  Zn1078  1.937   .     S
O1054  Zn1077  1.931   .     S
O1055  Zn1076  1.918   .     S
O1056  Zn1078  1.924   .     S
O1057  Zn1077  1.925   .     S
O1058  Zn1075  1.919   .     S
O1059  S380    1.504   1_556 S
O1060  S1073   1.503   .     D
O1061  S1073   1.683   .     S
O1062  S1074   1.504   .     D
O1063  S1074   1.503   .     D
O1064  S1074   1.682   .     S
O1065  Zn1075  1.929   .     S
O1066  Zn1078  1.927   .     S
O1067  Zn1076  1.937   .     S
O1068  Zn1077  1.943   .     S
O1069  Zn1078  1.941   .     S
O1070  Zn1075  1.935   .     S
O1071  Zn1076  1.930   .     S
O1072  Zn1077  1.930   .     S
C1079  C1089   1.437   .     S
C1079  O1144   1.267   .     A
C1079  O1146   1.269   .     A
C1080  H1110   1.080   .     S
C1080  C1105   1.407   .     A
C1080  C1081   1.396   .     A
C1081  N1130   1.421   .     S
C1081  C390    1.416   1_556 S
C1082  O1147   1.265   .     A
C1082  C1088   1.457   .     S
C1082  O1145   1.282   .     A
C1083  C1085   1.435   .     A
C1083  C1084   1.433   .     A
C1084  C1087   1.402   .     A
C1084  C1106   1.426   .     A
C1085  C1086   1.399   .     A
C1085  S1150   1.779   .     S
C1086  C1098   1.389   .     A
C1086  H1125   1.083   .     S
C1087  H1124   1.077   .     S
C1087  C1098   1.384   .     A
C1088  C935    1.349   1_655 S
C1088  H966    1.088   1_655 S
C1090  H1127   1.083   .     S
C1090  C1099   1.394   .     A
C1090  C1097   1.401   .     A
C1091  C1094   1.451   .     S
C1091  C1323   1.332   .     S
C1091  H1353   1.088   .     S
C1092  C1093   1.435   .     S
C1093  O1142   1.275   .     A
C1093  O1148   1.275   .     A
C1094  O1149   1.272   .     A
C1094  O1143   1.272   .     A
C1095  C1098   1.455   .     S
C1095  O1134   1.274   .     A
C1095  O1132   1.279   .     A
C1096  C1097   1.474   .     S
C1096  O1135   1.285   .     A
C1096  O1133   1.284   .     A
C1097  C1101   1.401   .     A
C1099  C1104   1.404   .     A
C1099  H1126   1.084   .     S
C1100  H1113   1.110   .     S
C1100  H1114   1.111   .     S
C1100  N1129   1.448   .     S
C1100  H961    1.111   1_655 S
C1101  H1128   1.078   .     S
C1101  C1103   1.408   .     A
C1102  N1130   1.447   .     S
C1102  H1119   1.112   .     S
C1102  H1118   1.112   .     S
C1102  H963    1.110   1_655 S
C1103  C1104   1.414   .     A
C1103  C1105   1.421   .     A
C1104  C415    1.394   1_556 S
C1105  C413    1.417   1_556 S
C1106  C1107   1.430   .     A
C1107  C1108   1.397   .     A
C1107  S1151   1.781   .     S
C1108  H1109   1.084   .     S
H1111  O1138   0.991   .     S
H1112  N1129   1.032   .     S
H1116  N1130   1.032   .     S
H1121  O1141   0.991   .     S
H1123  C1323   1.086   .     S
N1129  C935    1.432   1_655 S
O1131  Zn1152  1.947   .     S
O1131  Zn1153  1.946   .     S
O1131  Zn1155  1.937   .     S
O1131  Zn1154  1.931   .     S
O1132  Zn1153  1.918   .     S
O1133  Zn1155  1.924   .     S
O1134  Zn1154  1.925   .     S
O1135  Zn1152  1.919   .     S
O1136  S457    1.504   1_556 S
O1137  S1150   1.503   .     D
O1138  S1150   1.683   .     S
O1139  S1151   1.504   .     D
O1140  S1151   1.503   .     D
O1141  S1151   1.682   .     S
O1142  Zn1152  1.929   .     S
O1143  Zn1155  1.927   .     S
O1144  Zn1153  1.937   .     S
O1145  Zn1154  1.943   .     S
O1146  Zn1155  1.941   .     S
O1147  Zn1152  1.935   .     S
O1148  Zn1153  1.930   .     S
O1149  Zn1154  1.930   .     S
C1156  C1166   1.437   .     S
C1156  O1221   1.267   .     A
C1156  O1223   1.269   .     A
C1157  H1187   1.080   .     S
C1157  C1182   1.407   .     A
C1157  C1158   1.396   .     A
C1158  N1207   1.421   .     S
C1158  C467    1.416   1_556 S
C1159  O1224   1.265   .     A
C1159  C1165   1.457   .     S
C1159  O1222   1.282   .     A
C1160  C1162   1.435   .     A
C1160  C1161   1.433   .     A
C1161  C1164   1.402   .     A
C1161  C1183   1.426   .     A
C1162  C1163   1.399   .     A
C1162  S1227   1.779   .     S
C1163  C1175   1.389   .     A
C1163  H1202   1.083   .     S
C1164  H1201   1.077   .     S
C1164  C1175   1.384   .     A
C1165  C1243   1.349   .     S
C1165  H1274   1.088   .     S
C1166  C1319   1.349   1_455 S
C1166  N1360   1.432   1_455 S
C1167  H1204   1.083   .     S
C1167  C1176   1.394   .     A
C1167  C1174   1.401   .     A
C1168  C1171   1.451   .     S
C1168  C707    1.332   1_565 S
C1168  H737    1.088   1_565 S
C1169  C1170   1.435   .     S
C1170  O1219   1.275   .     A
C1170  O1225   1.275   .     A
C1171  O1226   1.272   .     A
C1171  O1220   1.272   .     A
C1172  C1175   1.455   .     S
C1172  O1211   1.274   .     A
C1172  O1209   1.279   .     A
C1173  C1174   1.474   .     S
C1173  O1212   1.285   .     A
C1173  O1210   1.284   .     A
C1174  C1178   1.401   .     A
C1176  C1181   1.404   .     A
C1176  H1203   1.084   .     S
C1177  H1190   1.110   .     S
C1177  H1191   1.111   .     S
C1177  N1206   1.448   .     S
C1177  H1269   1.111   .     S
C1178  H1205   1.078   .     S
C1178  C1180   1.408   .     A
C1179  N1207   1.447   .     S
C1179  H1196   1.112   .     S
C1179  H1195   1.112   .     S
C1179  H1271   1.110   .     S
C1180  C1181   1.414   .     A
C1180  C1182   1.421   .     A
C1181  C492    1.394   1_556 S
C1182  C490    1.417   1_556 S
C1183  C1184   1.430   .     A
C1184  C1185   1.397   .     A
C1184  S1228   1.781   .     S
C1185  H1186   1.084   .     S
H1188  O1215   0.991   .     S
H1189  N1206   1.032   .     S
H1192  C1331   1.111   1_455 S
H1193  N1207   1.032   .     S
H1194  C1333   1.110   1_455 S
H1197  C1319   1.088   1_455 S
H1198  O1218   0.991   .     S
H1200  C707    1.086   1_565 S
N1206  C1243   1.432   .     S
O1208  Zn1229  1.947   .     S
O1208  Zn1230  1.946   .     S
O1208  Zn1232  1.937   .     S
O1208  Zn1231  1.931   .     S
O1209  Zn1230  1.918   .     S
O1210  Zn1232  1.924   .     S
O1211  Zn1231  1.925   .     S
O1212  Zn1229  1.919   .     S
O1213  S534    1.504   1_556 S
O1214  S1227   1.503   .     D
O1215  S1227   1.683   .     S
O1216  S1228   1.504   .     D
O1217  S1228   1.503   .     D
O1218  S1228   1.682   .     S
O1219  Zn1229  1.929   .     S
O1220  Zn1232  1.927   .     S
O1221  Zn1230  1.937   .     S
O1222  Zn1231  1.943   .     S
O1223  Zn1232  1.941   .     S
O1224  Zn1229  1.935   .     S
O1225  Zn1230  1.930   .     S
O1226  Zn1231  1.930   .     S
C1233  C1243   1.437   .     S
C1233  O1298   1.267   .     A
C1233  O1300   1.269   .     A
C1234  H1264   1.080   .     S
C1234  C1259   1.407   .     A
C1234  C1235   1.396   .     A
C1235  N1284   1.421   .     S
C1235  C544    1.416   1_556 S
C1236  O1301   1.265   .     A
C1236  C1242   1.457   .     S
C1236  O1299   1.282   .     A
C1237  C1239   1.435   .     A
C1237  C1238   1.433   .     A
C1238  C1241   1.402   .     A
C1238  C1260   1.426   .     A
C1239  C1240   1.399   .     A
C1239  S1304   1.779   .     S
C1240  C1252   1.389   .     A
C1240  H1279   1.083   .     S
C1241  H1278   1.077   .     S
C1241  C1252   1.384   .     A
C1242  C1320   1.349   .     S
C1242  H1351   1.088   .     S
C1244  H1281   1.083   .     S
C1244  C1253   1.394   .     A
C1244  C1251   1.401   .     A
C1245  C1248   1.451   .     S
C1245  C784    1.332   1_565 S
C1245  H814    1.088   1_565 S
C1246  C1247   1.435   .     S
C1247  O1296   1.275   .     A
C1247  O1302   1.275   .     A
C1248  O1303   1.272   .     A
C1248  O1297   1.272   .     A
C1249  C1252   1.455   .     S
C1249  O1288   1.274   .     A
C1249  O1286   1.279   .     A
C1250  C1251   1.474   .     S
C1250  O1289   1.285   .     A
C1250  O1287   1.284   .     A
C1251  C1255   1.401   .     A
C1253  C1258   1.404   .     A
C1253  H1280   1.084   .     S
C1254  H1267   1.110   .     S
C1254  H1268   1.111   .     S
C1254  N1283   1.448   .     S
C1254  H1346   1.111   .     S
C1255  H1282   1.078   .     S
C1255  C1257   1.408   .     A
C1256  N1284   1.447   .     S
C1256  H1273   1.112   .     S
C1256  H1272   1.112   .     S
C1256  H1348   1.110   .     S
C1257  C1258   1.414   .     A
C1257  C1259   1.421   .     A
C1258  C569    1.394   1_556 S
C1259  C567    1.417   1_556 S
C1260  C1261   1.430   .     A
C1261  C1262   1.397   .     A
C1261  S1305   1.781   .     S
C1262  H1263   1.084   .     S
H1265  O1292   0.991   .     S
H1266  N1283   1.032   .     S
H1270  N1284   1.032   .     S
H1275  O1295   0.991   .     S
H1277  C784    1.086   1_565 S
N1283  C1320   1.432   .     S
O1285  Zn1306  1.947   .     S
O1285  Zn1307  1.946   .     S
O1285  Zn1309  1.937   .     S
O1285  Zn1308  1.931   .     S
O1286  Zn1307  1.918   .     S
O1287  Zn1309  1.924   .     S
O1288  Zn1308  1.925   .     S
O1289  Zn1306  1.919   .     S
O1290  S611    1.504   1_556 S
O1291  S1304   1.503   .     D
O1292  S1304   1.683   .     S
O1293  S1305   1.504   .     D
O1294  S1305   1.503   .     D
O1295  S1305   1.682   .     S
O1296  Zn1306  1.929   .     S
O1297  Zn1309  1.927   .     S
O1298  Zn1307  1.937   .     S
O1299  Zn1308  1.943   .     S
O1300  Zn1309  1.941   .     S
O1301  Zn1306  1.935   .     S
O1302  Zn1307  1.930   .     S
O1303  Zn1308  1.930   .     S
C1310  C1320   1.437   .     S
C1310  O1375   1.267   .     A
C1310  O1377   1.269   .     A
C1311  H1341   1.080   .     S
C1311  C1336   1.407   .     A
C1311  C1312   1.396   .     A
C1312  N1361   1.421   .     S
C1312  C621    1.416   1_556 S
C1313  O1378   1.265   .     A
C1313  C1319   1.457   .     S
C1313  O1376   1.282   .     A
C1314  C1316   1.435   .     A
C1314  C1315   1.433   .     A
C1315  C1318   1.402   .     A
C1315  C1337   1.426   .     A
C1316  C1317   1.399   .     A
C1316  S1381   1.779   .     S
C1317  C1329   1.389   .     A
C1317  H1356   1.083   .     S
C1318  H1355   1.077   .     S
C1318  C1329   1.384   .     A
C1319  C1166   1.349   1_655 S
C1319  H1197   1.088   1_655 S
C1321  H1358   1.083   .     S
C1321  C1330   1.394   .     A
C1321  C1328   1.401   .     A
C1322  C1325   1.451   .     S
C1322  C861    1.332   1_565 S
C1322  H891    1.088   1_565 S
C1323  C1324   1.435   .     S
C1324  O1373   1.275   .     A
C1324  O1379   1.275   .     A
C1325  O1380   1.272   .     A
C1325  O1374   1.272   .     A
C1326  C1329   1.455   .     S
C1326  O1365   1.274   .     A
C1326  O1363   1.279   .     A
C1327  C1328   1.474   .     S
C1327  O1366   1.285   .     A
C1327  O1364   1.284   .     A
C1328  C1332   1.401   .     A
C1330  C1335   1.404   .     A
C1330  H1357   1.084   .     S
C1331  H1344   1.110   .     S
C1331  H1345   1.111   .     S
C1331  N1360   1.448   .     S
C1331  H1192   1.111   1_655 S
C1332  H1359   1.078   .     S
C1332  C1334   1.408   .     A
C1333  N1361   1.447   .     S
C1333  H1350   1.112   .     S
C1333  H1349   1.112   .     S
C1333  H1194   1.110   1_655 S
C1334  C1335   1.414   .     A
C1334  C1336   1.421   .     A
C1335  C646    1.394   1_556 S
C1336  C644    1.417   1_556 S
C1337  C1338   1.430   .     A
C1338  C1339   1.397   .     A
C1338  S1382   1.781   .     S
C1339  H1340   1.084   .     S
H1342  O1369   0.991   .     S
H1343  N1360   1.032   .     S
H1347  N1361   1.032   .     S
H1352  O1372   0.991   .     S
H1354  C861    1.086   1_565 S
N1360  C1166   1.432   1_655 S
O1362  Zn1383  1.947   .     S
O1362  Zn1384  1.946   .     S
O1362  Zn1386  1.937   .     S
O1362  Zn1385  1.931   .     S
O1363  Zn1384  1.918   .     S
O1364  Zn1386  1.924   .     S
O1365  Zn1385  1.925   .     S
O1366  Zn1383  1.919   .     S
O1367  S688    1.504   1_556 S
O1368  S1381   1.503   .     D
O1369  S1381   1.683   .     S
O1370  S1382   1.504   .     D
O1371  S1382   1.503   .     D
O1372  S1382   1.682   .     S
O1373  Zn1383  1.929   .     S
O1374  Zn1386  1.927   .     S
O1375  Zn1384  1.937   .     S
O1376  Zn1385  1.943   .     S
O1377  Zn1386  1.941   .     S
O1378  Zn1383  1.935   .     S
O1379  Zn1384  1.930   .     S
O1380  Zn1385  1.930   .     S
