data_str_m3_o1_o18_pcu_sym.51
_audit_creation_date              2020-01-03
_audit_creation_method            'Materials Studio'
_symmetry_space_group_name_H-M    'P1'
_symmetry_Int_Tables_number       1
_symmetry_cell_setting            triclinic
loop_
_symmetry_equiv_pos_as_xyz
  x,y,z
_cell_length_a                    29.5273
_cell_length_b                    32.0774
_cell_length_c                    31.3053
_cell_angle_alpha                 90.3448
_cell_angle_beta                  66.9448
_cell_angle_gamma                 90.1298
loop_
_atom_site_label
_atom_site_type_symbol
_atom_site_fract_x
_atom_site_fract_y
_atom_site_fract_z
_atom_site_U_iso_or_equiv
_atom_site_adp_type
_atom_site_occupancy
C1     C     0.16668   0.24670   0.25009   0.00000  Uiso   1.00
C2     C     0.12185   0.31197   0.26400   0.00000  Uiso   1.00
C3     C     0.16665   0.04250   0.24982   0.00000  Uiso   1.00
C4     C     0.16668   0.29083   0.25018   0.00000  Uiso   1.00
C5     C     0.31947   0.13728   0.22546   0.00000  Uiso   1.00
C6     C     0.01386   0.19605   0.27455   0.00000  Uiso   1.00
C7     C     0.03407   0.13727   0.22550   0.00000  Uiso   1.00
C8     C     0.29926   0.19606   0.27450   0.00000  Uiso   1.00
C9     C     0.13584   0.16547   0.33787   0.00000  Uiso   1.00
C10    C     0.19750   0.16786   0.16212   0.00000  Uiso   1.00
C11    C     0.11620   0.16775   0.38844   0.00000  Uiso   1.00
C12    C     0.16665   0.08664   0.24991   0.00000  Uiso   1.00
C13    C     0.21714   0.16559   0.11156   0.00000  Uiso   1.00
C14    C     0.07501   0.21497   0.45155   0.00000  Uiso   1.00
C15    C     0.25847   0.11843   0.04841   0.00000  Uiso   1.00
C16    C     0.07878   0.19661   0.41018   0.00000  Uiso   1.00
C17    C     0.25463   0.13677   0.08981   0.00000  Uiso   1.00
C18    C     0.14322   0.15001   0.41250   0.00000  Uiso   1.00
C19    C     0.19013   0.18330   0.08748   0.00000  Uiso   1.00
C20    C     0.13727   0.16705   0.45652   0.00000  Uiso   1.00
C21    C     0.19619   0.16630   0.04341   0.00000  Uiso   1.00
C22    C     0.10724   0.20313   0.47213   0.00000  Uiso   1.00
C23    C     0.14873   0.22042   0.02220   0.00000  Uiso   1.00
C24    C     0.22626   0.13025   0.02779   0.00000  Uiso   1.00
C25    C     0.16398   0.15310   0.48310   0.00000  Uiso   1.00
C26    C     0.16952   0.18026   0.01680   0.00000  Uiso   1.00
C27    C     0.14995   0.21331   0.11328   0.00000  Uiso   1.00
C28    C     0.16138   0.25200   0.12791   0.00000  Uiso   1.00
C29    C     0.12375   0.27934   0.15397   0.00000  Uiso   1.00
C30    C     0.07452   0.26807   0.16619   0.00000  Uiso   1.00
C31    C     0.06279   0.22950   0.15220   0.00000  Uiso   1.00
C32    C     0.10026   0.20208   0.12602   0.00000  Uiso   1.00
C33    C     0.18324   0.11988   0.38671   0.00000  Uiso   1.00
C34    C     0.18481   0.11294   0.47769   0.00000  Uiso   1.00
C35    C     0.23299   0.13098   0.37381   0.00000  Uiso   1.00
C36    C     0.27031   0.10344   0.34763   0.00000  Uiso   1.00
C37    C     0.25837   0.06488   0.33380   0.00000  Uiso   1.00
C38    C     0.20908   0.05374   0.34618   0.00000  Uiso   1.00
C39    C     0.17160   0.08120   0.37223   0.00000  Uiso   1.00
C40    C     0.11396   0.22981   0.00432   0.00000  Uiso   1.00
C41    C     0.21960   0.10358   0.49557   0.00000  Uiso   1.00
C42    C     0.21149   0.31200   0.23625   0.00000  Uiso   1.00
C43    C     0.12184   0.02133   0.26376   0.00000  Uiso   1.00
C44    C     0.21148   0.02137   0.23601   0.00000  Uiso   1.00
H45    H     0.09528   0.25966   0.01272   0.00000  Uiso   1.00
H46    H     0.08699   0.03767   0.27482   0.00000  Uiso   1.00
H47    H     0.24632   0.03774   0.22490   0.00000  Uiso   1.00
H48    H     0.08701   0.29560   0.27510   0.00000  Uiso   1.00
H49    H     0.30942   0.11381   0.20580   0.00000  Uiso   1.00
H50    H     0.02391   0.21952   0.29420   0.00000  Uiso   1.00
H51    H     0.06034   0.11382   0.20582   0.00000  Uiso   1.00
H52    H     0.27299   0.21952   0.29419   0.00000  Uiso   1.00
H53    H     0.19937   0.26087   0.11914   0.00000  Uiso   1.00
H54    H     0.13277   0.30919   0.16490   0.00000  Uiso   1.00
H55    H     0.04546   0.28917   0.18664   0.00000  Uiso   1.00
H56    H     0.23830   0.07375   0.48716   0.00000  Uiso   1.00
H57    H     0.02464   0.22070   0.16195   0.00000  Uiso   1.00
H58    H     0.09072   0.17201   0.11599   0.00000  Uiso   1.00
H59    H     0.24270   0.16104   0.38372   0.00000  Uiso   1.00
H60    H     0.30851   0.11213   0.33775   0.00000  Uiso   1.00
H61    H     0.28732   0.04368   0.31335   0.00000  Uiso   1.00
H62    H     0.19990   0.02390   0.33537   0.00000  Uiso   1.00
H63    H     0.13356   0.07244   0.38112   0.00000  Uiso   1.00
H64    H     0.27594   0.12389   0.10798   0.00000  Uiso   1.00
H65    H     0.05746   0.20952   0.39202   0.00000  Uiso   1.00
H66    H     0.05029   0.24120   0.46493   0.00000  Uiso   1.00
H67    H     0.28323   0.09222   0.03503   0.00000  Uiso   1.00
H68    H     0.15856   0.24507   0.04049   0.00000  Uiso   1.00
H69    H     0.17499   0.08828   0.45943   0.00000  Uiso   1.00
H70    H     0.24634   0.29566   0.22518   0.00000  Uiso   1.00
N71    N     0.04759   0.16668   0.25001   0.00000  Uiso   1.00
N72    N     0.28574   0.16666   0.24999   0.00000  Uiso   1.00
O73    O     0.12846   0.22775   0.25000   0.00000  Uiso   1.00
O74    O     0.20488   0.10558   0.25000   0.00000  Uiso   1.00
O75    O     0.20490   0.22774   0.25000   0.00000  Uiso   1.00
O76    O     0.12843   0.10559   0.25000   0.00000  Uiso   1.00
O77    O     0.10661   0.16667   0.31612   0.00000  Uiso   1.00
O78    O     0.22672   0.16666   0.18388   0.00000  Uiso   1.00
O79    O     0.18305   0.16666   0.31612   0.00000  Uiso   1.00
O80    O     0.15028   0.16667   0.18388   0.00000  Uiso   1.00
Zn81   Zn    0.11562   0.16667   0.25000   0.00000  Uiso   1.00
Zn82   Zn    0.21771   0.16666   0.25000   0.00000  Uiso   1.00
C83    C     0.50001   0.24670   0.25009   0.00000  Uiso   1.00
C84    C     0.45519   0.31197   0.26400   0.00000  Uiso   1.00
C85    C     0.49999   0.04250   0.24982   0.00000  Uiso   1.00
C86    C     0.50001   0.29083   0.25018   0.00000  Uiso   1.00
C87    C     0.65280   0.13728   0.22546   0.00000  Uiso   1.00
C88    C     0.34719   0.19605   0.27455   0.00000  Uiso   1.00
C89    C     0.36740   0.13727   0.22550   0.00000  Uiso   1.00
C90    C     0.63259   0.19606   0.27450   0.00000  Uiso   1.00
C91    C     0.46917   0.16547   0.33787   0.00000  Uiso   1.00
C92    C     0.53083   0.16786   0.16212   0.00000  Uiso   1.00
C93    C     0.44954   0.16775   0.38844   0.00000  Uiso   1.00
C94    C     0.49999   0.08664   0.24991   0.00000  Uiso   1.00
C95    C     0.55047   0.16559   0.11156   0.00000  Uiso   1.00
C96    C     0.40834   0.21497   0.45155   0.00000  Uiso   1.00
C97    C     0.59181   0.11843   0.04841   0.00000  Uiso   1.00
C98    C     0.41211   0.19661   0.41018   0.00000  Uiso   1.00
C99    C     0.58796   0.13677   0.08981   0.00000  Uiso   1.00
C100   C     0.47655   0.15001   0.41250   0.00000  Uiso   1.00
C101   C     0.52346   0.18330   0.08748   0.00000  Uiso   1.00
C102   C     0.47060   0.16705   0.45652   0.00000  Uiso   1.00
C103   C     0.52953   0.16630   0.04341   0.00000  Uiso   1.00
C104   C     0.44058   0.20313   0.47213   0.00000  Uiso   1.00
C105   C     0.48206   0.22042   0.02220   0.00000  Uiso   1.00
C106   C     0.55959   0.13025   0.02779   0.00000  Uiso   1.00
C107   C     0.49732   0.15310   0.48310   0.00000  Uiso   1.00
C108   C     0.50285   0.18026   0.01680   0.00000  Uiso   1.00
C109   C     0.48328   0.21331   0.11328   0.00000  Uiso   1.00
C110   C     0.49471   0.25200   0.12791   0.00000  Uiso   1.00
C111   C     0.45708   0.27934   0.15397   0.00000  Uiso   1.00
C112   C     0.40786   0.26807   0.16619   0.00000  Uiso   1.00
C113   C     0.39612   0.22950   0.15220   0.00000  Uiso   1.00
C114   C     0.43359   0.20208   0.12602   0.00000  Uiso   1.00
C115   C     0.51658   0.11988   0.38671   0.00000  Uiso   1.00
C116   C     0.51814   0.11294   0.47769   0.00000  Uiso   1.00
C117   C     0.56633   0.13098   0.37381   0.00000  Uiso   1.00
C118   C     0.60365   0.10344   0.34763   0.00000  Uiso   1.00
C119   C     0.59171   0.06488   0.33380   0.00000  Uiso   1.00
C120   C     0.54242   0.05374   0.34618   0.00000  Uiso   1.00
C121   C     0.50494   0.08120   0.37223   0.00000  Uiso   1.00
C122   C     0.44729   0.22981   0.00432   0.00000  Uiso   1.00
C123   C     0.55293   0.10358   0.49557   0.00000  Uiso   1.00
C124   C     0.54482   0.31200   0.23625   0.00000  Uiso   1.00
C125   C     0.45518   0.02133   0.26376   0.00000  Uiso   1.00
C126   C     0.54481   0.02137   0.23601   0.00000  Uiso   1.00
H127   H     0.42861   0.25966   0.01272   0.00000  Uiso   1.00
H128   H     0.42033   0.03767   0.27482   0.00000  Uiso   1.00
H129   H     0.57966   0.03774   0.22490   0.00000  Uiso   1.00
H130   H     0.42034   0.29560   0.27510   0.00000  Uiso   1.00
H131   H     0.64275   0.11381   0.20580   0.00000  Uiso   1.00
H132   H     0.35725   0.21952   0.29420   0.00000  Uiso   1.00
H133   H     0.39367   0.11382   0.20582   0.00000  Uiso   1.00
H134   H     0.60633   0.21952   0.29419   0.00000  Uiso   1.00
H135   H     0.53271   0.26087   0.11914   0.00000  Uiso   1.00
H136   H     0.46610   0.30919   0.16490   0.00000  Uiso   1.00
H137   H     0.37879   0.28917   0.18664   0.00000  Uiso   1.00
H138   H     0.57164   0.07375   0.48716   0.00000  Uiso   1.00
H139   H     0.35798   0.22070   0.16195   0.00000  Uiso   1.00
H140   H     0.42405   0.17201   0.11599   0.00000  Uiso   1.00
H141   H     0.57603   0.16104   0.38372   0.00000  Uiso   1.00
H142   H     0.64184   0.11213   0.33775   0.00000  Uiso   1.00
H143   H     0.62065   0.04368   0.31335   0.00000  Uiso   1.00
H144   H     0.53323   0.02390   0.33537   0.00000  Uiso   1.00
H145   H     0.46689   0.07244   0.38112   0.00000  Uiso   1.00
H146   H     0.60927   0.12389   0.10798   0.00000  Uiso   1.00
H147   H     0.39080   0.20952   0.39202   0.00000  Uiso   1.00
H148   H     0.38362   0.24120   0.46493   0.00000  Uiso   1.00
H149   H     0.61656   0.09222   0.03503   0.00000  Uiso   1.00
H150   H     0.49189   0.24507   0.04049   0.00000  Uiso   1.00
H151   H     0.50833   0.08828   0.45943   0.00000  Uiso   1.00
H152   H     0.57967   0.29566   0.22518   0.00000  Uiso   1.00
N153   N     0.38093   0.16668   0.25001   0.00000  Uiso   1.00
N154   N     0.61907   0.16666   0.24999   0.00000  Uiso   1.00
O155   O     0.46179   0.22775   0.25000   0.00000  Uiso   1.00
O156   O     0.53821   0.10558   0.25000   0.00000  Uiso   1.00
O157   O     0.53823   0.22774   0.25000   0.00000  Uiso   1.00
O158   O     0.46177   0.10559   0.25000   0.00000  Uiso   1.00
O159   O     0.43994   0.16667   0.31612   0.00000  Uiso   1.00
O160   O     0.56006   0.16666   0.18388   0.00000  Uiso   1.00
O161   O     0.51639   0.16666   0.31612   0.00000  Uiso   1.00
O162   O     0.48361   0.16667   0.18388   0.00000  Uiso   1.00
Zn163  Zn    0.44896   0.16667   0.25000   0.00000  Uiso   1.00
Zn164  Zn    0.55104   0.16666   0.25000   0.00000  Uiso   1.00
C165   C     0.83334   0.24670   0.25009   0.00000  Uiso   1.00
C166   C     0.78852   0.31197   0.26400   0.00000  Uiso   1.00
C167   C     0.83332   0.04250   0.24982   0.00000  Uiso   1.00
C168   C     0.83335   0.29083   0.25018   0.00000  Uiso   1.00
C169   C     0.98614   0.13728   0.22546   0.00000  Uiso   1.00
C170   C     0.68053   0.19605   0.27455   0.00000  Uiso   1.00
C171   C     0.70074   0.13727   0.22550   0.00000  Uiso   1.00
C172   C     0.96593   0.19606   0.27450   0.00000  Uiso   1.00
C173   C     0.80250   0.16547   0.33787   0.00000  Uiso   1.00
C174   C     0.86416   0.16786   0.16212   0.00000  Uiso   1.00
C175   C     0.78287   0.16775   0.38844   0.00000  Uiso   1.00
C176   C     0.83332   0.08664   0.24991   0.00000  Uiso   1.00
C177   C     0.88381   0.16559   0.11156   0.00000  Uiso   1.00
C178   C     0.74167   0.21497   0.45155   0.00000  Uiso   1.00
C179   C     0.92514   0.11843   0.04841   0.00000  Uiso   1.00
C180   C     0.74544   0.19661   0.41018   0.00000  Uiso   1.00
C181   C     0.92130   0.13677   0.08981   0.00000  Uiso   1.00
C182   C     0.80988   0.15001   0.41250   0.00000  Uiso   1.00
C183   C     0.85679   0.18330   0.08748   0.00000  Uiso   1.00
C184   C     0.80393   0.16705   0.45652   0.00000  Uiso   1.00
C185   C     0.86286   0.16630   0.04341   0.00000  Uiso   1.00
C186   C     0.77391   0.20313   0.47213   0.00000  Uiso   1.00
C187   C     0.81540   0.22042   0.02220   0.00000  Uiso   1.00
C188   C     0.89293   0.13025   0.02779   0.00000  Uiso   1.00
C189   C     0.83065   0.15310   0.48310   0.00000  Uiso   1.00
C190   C     0.83618   0.18026   0.01680   0.00000  Uiso   1.00
C191   C     0.81662   0.21331   0.11328   0.00000  Uiso   1.00
C192   C     0.82805   0.25200   0.12791   0.00000  Uiso   1.00
C193   C     0.79042   0.27934   0.15397   0.00000  Uiso   1.00
C194   C     0.74119   0.26807   0.16619   0.00000  Uiso   1.00
C195   C     0.72946   0.22950   0.15220   0.00000  Uiso   1.00
C196   C     0.76693   0.20208   0.12602   0.00000  Uiso   1.00
C197   C     0.84991   0.11988   0.38671   0.00000  Uiso   1.00
C198   C     0.85148   0.11294   0.47769   0.00000  Uiso   1.00
C199   C     0.89966   0.13098   0.37381   0.00000  Uiso   1.00
C200   C     0.93698   0.10344   0.34763   0.00000  Uiso   1.00
C201   C     0.92504   0.06488   0.33380   0.00000  Uiso   1.00
C202   C     0.87575   0.05374   0.34618   0.00000  Uiso   1.00
C203   C     0.83827   0.08120   0.37223   0.00000  Uiso   1.00
C204   C     0.78062   0.22981   0.00432   0.00000  Uiso   1.00
C205   C     0.88626   0.10358   0.49557   0.00000  Uiso   1.00
C206   C     0.87816   0.31200   0.23625   0.00000  Uiso   1.00
C207   C     0.78851   0.02133   0.26376   0.00000  Uiso   1.00
C208   C     0.87815   0.02137   0.23601   0.00000  Uiso   1.00
H209   H     0.76195   0.25966   0.01272   0.00000  Uiso   1.00
H210   H     0.75366   0.03767   0.27482   0.00000  Uiso   1.00
H211   H     0.91299   0.03774   0.22490   0.00000  Uiso   1.00
H212   H     0.75368   0.29560   0.27510   0.00000  Uiso   1.00
H213   H     0.97609   0.11381   0.20580   0.00000  Uiso   1.00
H214   H     0.69058   0.21952   0.29420   0.00000  Uiso   1.00
H215   H     0.72700   0.11382   0.20582   0.00000  Uiso   1.00
H216   H     0.93966   0.21952   0.29419   0.00000  Uiso   1.00
H217   H     0.86604   0.26087   0.11914   0.00000  Uiso   1.00
H218   H     0.79944   0.30919   0.16490   0.00000  Uiso   1.00
H219   H     0.71212   0.28917   0.18664   0.00000  Uiso   1.00
H220   H     0.90497   0.07375   0.48716   0.00000  Uiso   1.00
H221   H     0.69131   0.22070   0.16195   0.00000  Uiso   1.00
H222   H     0.75738   0.17201   0.11599   0.00000  Uiso   1.00
H223   H     0.90937   0.16104   0.38372   0.00000  Uiso   1.00
H224   H     0.97517   0.11213   0.33775   0.00000  Uiso   1.00
H225   H     0.95399   0.04368   0.31335   0.00000  Uiso   1.00
H226   H     0.86656   0.02390   0.33537   0.00000  Uiso   1.00
H227   H     0.80023   0.07244   0.38112   0.00000  Uiso   1.00
H228   H     0.94261   0.12389   0.10798   0.00000  Uiso   1.00
H229   H     0.72413   0.20952   0.39202   0.00000  Uiso   1.00
H230   H     0.71695   0.24120   0.46493   0.00000  Uiso   1.00
H231   H     0.94990   0.09222   0.03503   0.00000  Uiso   1.00
H232   H     0.82522   0.24507   0.04049   0.00000  Uiso   1.00
H233   H     0.84166   0.08828   0.45943   0.00000  Uiso   1.00
H234   H     0.91301   0.29566   0.22518   0.00000  Uiso   1.00
N235   N     0.71426   0.16668   0.25001   0.00000  Uiso   1.00
N236   N     0.95241   0.16666   0.24999   0.00000  Uiso   1.00
O237   O     0.79512   0.22775   0.25000   0.00000  Uiso   1.00
O238   O     0.87154   0.10558   0.25000   0.00000  Uiso   1.00
O239   O     0.87157   0.22774   0.25000   0.00000  Uiso   1.00
O240   O     0.79510   0.10559   0.25000   0.00000  Uiso   1.00
O241   O     0.77328   0.16667   0.31612   0.00000  Uiso   1.00
O242   O     0.89339   0.16666   0.18388   0.00000  Uiso   1.00
O243   O     0.84972   0.16666   0.31612   0.00000  Uiso   1.00
O244   O     0.81695   0.16667   0.18388   0.00000  Uiso   1.00
Zn245  Zn    0.78229   0.16667   0.25000   0.00000  Uiso   1.00
Zn246  Zn    0.88438   0.16666   0.25000   0.00000  Uiso   1.00
C247   C     0.16668   0.58003   0.25009   0.00000  Uiso   1.00
C248   C     0.12185   0.64530   0.26400   0.00000  Uiso   1.00
C249   C     0.16665   0.37583   0.24982   0.00000  Uiso   1.00
C250   C     0.16668   0.62417   0.25018   0.00000  Uiso   1.00
C251   C     0.31947   0.47062   0.22546   0.00000  Uiso   1.00
C252   C     0.01386   0.52938   0.27455   0.00000  Uiso   1.00
C253   C     0.03407   0.47060   0.22550   0.00000  Uiso   1.00
C254   C     0.29926   0.52939   0.27450   0.00000  Uiso   1.00
C255   C     0.13584   0.49881   0.33787   0.00000  Uiso   1.00
C256   C     0.19750   0.50119   0.16212   0.00000  Uiso   1.00
C257   C     0.11620   0.50108   0.38844   0.00000  Uiso   1.00
C258   C     0.16665   0.41997   0.24991   0.00000  Uiso   1.00
C259   C     0.21714   0.49892   0.11156   0.00000  Uiso   1.00
C260   C     0.07501   0.54830   0.45155   0.00000  Uiso   1.00
C261   C     0.25847   0.45176   0.04841   0.00000  Uiso   1.00
C262   C     0.07878   0.52995   0.41018   0.00000  Uiso   1.00
C263   C     0.25463   0.47010   0.08981   0.00000  Uiso   1.00
C264   C     0.14322   0.48334   0.41250   0.00000  Uiso   1.00
C265   C     0.19013   0.51663   0.08748   0.00000  Uiso   1.00
C266   C     0.13727   0.50038   0.45652   0.00000  Uiso   1.00
C267   C     0.19619   0.49963   0.04341   0.00000  Uiso   1.00
C268   C     0.10724   0.53646   0.47213   0.00000  Uiso   1.00
C269   C     0.14873   0.55376   0.02220   0.00000  Uiso   1.00
C270   C     0.22626   0.46358   0.02779   0.00000  Uiso   1.00
C271   C     0.16398   0.48643   0.48310   0.00000  Uiso   1.00
C272   C     0.16952   0.51359   0.01680   0.00000  Uiso   1.00
C273   C     0.14995   0.54664   0.11328   0.00000  Uiso   1.00
C274   C     0.16138   0.58534   0.12791   0.00000  Uiso   1.00
C275   C     0.12375   0.61268   0.15397   0.00000  Uiso   1.00
C276   C     0.07452   0.60140   0.16619   0.00000  Uiso   1.00
C277   C     0.06279   0.56283   0.15220   0.00000  Uiso   1.00
C278   C     0.10026   0.53541   0.12602   0.00000  Uiso   1.00
C279   C     0.18324   0.45321   0.38671   0.00000  Uiso   1.00
C280   C     0.18481   0.44627   0.47769   0.00000  Uiso   1.00
C281   C     0.23299   0.46431   0.37381   0.00000  Uiso   1.00
C282   C     0.27031   0.43677   0.34763   0.00000  Uiso   1.00
C283   C     0.25837   0.39821   0.33380   0.00000  Uiso   1.00
C284   C     0.20908   0.38707   0.34618   0.00000  Uiso   1.00
C285   C     0.17160   0.41453   0.37223   0.00000  Uiso   1.00
C286   C     0.11396   0.56314   0.00432   0.00000  Uiso   1.00
C287   C     0.21960   0.43691   0.49557   0.00000  Uiso   1.00
C288   C     0.21149   0.64533   0.23625   0.00000  Uiso   1.00
C289   C     0.12184   0.35467   0.26376   0.00000  Uiso   1.00
C290   C     0.21148   0.35470   0.23601   0.00000  Uiso   1.00
H291   H     0.09528   0.59299   0.01272   0.00000  Uiso   1.00
H292   H     0.08699   0.37100   0.27482   0.00000  Uiso   1.00
H293   H     0.24632   0.37107   0.22490   0.00000  Uiso   1.00
H294   H     0.08701   0.62893   0.27510   0.00000  Uiso   1.00
H295   H     0.30942   0.44715   0.20580   0.00000  Uiso   1.00
H296   H     0.02391   0.55285   0.29420   0.00000  Uiso   1.00
H297   H     0.06034   0.44715   0.20582   0.00000  Uiso   1.00
H298   H     0.27299   0.55285   0.29419   0.00000  Uiso   1.00
H299   H     0.19937   0.59420   0.11914   0.00000  Uiso   1.00
H300   H     0.13277   0.64253   0.16490   0.00000  Uiso   1.00
H301   H     0.04546   0.62250   0.18664   0.00000  Uiso   1.00
H302   H     0.23830   0.40708   0.48716   0.00000  Uiso   1.00
H303   H     0.02464   0.55404   0.16195   0.00000  Uiso   1.00
H304   H     0.09072   0.50534   0.11599   0.00000  Uiso   1.00
H305   H     0.24270   0.49437   0.38372   0.00000  Uiso   1.00
H306   H     0.30851   0.44547   0.33775   0.00000  Uiso   1.00
H307   H     0.28732   0.37702   0.31335   0.00000  Uiso   1.00
H308   H     0.19990   0.35723   0.33537   0.00000  Uiso   1.00
H309   H     0.13356   0.40577   0.38112   0.00000  Uiso   1.00
H310   H     0.27594   0.45722   0.10798   0.00000  Uiso   1.00
H311   H     0.05746   0.54285   0.39202   0.00000  Uiso   1.00
H312   H     0.05029   0.57453   0.46493   0.00000  Uiso   1.00
H313   H     0.28323   0.42555   0.03503   0.00000  Uiso   1.00
H314   H     0.15856   0.57840   0.04049   0.00000  Uiso   1.00
H315   H     0.17499   0.42161   0.45943   0.00000  Uiso   1.00
H316   H     0.24634   0.62900   0.22518   0.00000  Uiso   1.00
N317   N     0.04759   0.50001   0.25001   0.00000  Uiso   1.00
N318   N     0.28574   0.49999   0.24999   0.00000  Uiso   1.00
O319   O     0.12846   0.56108   0.25000   0.00000  Uiso   1.00
O320   O     0.20488   0.43892   0.25000   0.00000  Uiso   1.00
O321   O     0.20490   0.56107   0.25000   0.00000  Uiso   1.00
O322   O     0.12843   0.43893   0.25000   0.00000  Uiso   1.00
O323   O     0.10661   0.50001   0.31612   0.00000  Uiso   1.00
O324   O     0.22672   0.49999   0.18388   0.00000  Uiso   1.00
O325   O     0.18305   0.50000   0.31612   0.00000  Uiso   1.00
O326   O     0.15028   0.50000   0.18388   0.00000  Uiso   1.00
Zn327  Zn    0.11562   0.50001   0.25000   0.00000  Uiso   1.00
Zn328  Zn    0.21771   0.49999   0.25000   0.00000  Uiso   1.00
C329   C     0.50001   0.58003   0.25009   0.00000  Uiso   1.00
C330   C     0.45519   0.64530   0.26400   0.00000  Uiso   1.00
C331   C     0.49999   0.37583   0.24982   0.00000  Uiso   1.00
C332   C     0.50001   0.62417   0.25018   0.00000  Uiso   1.00
C333   C     0.65280   0.47062   0.22546   0.00000  Uiso   1.00
C334   C     0.34719   0.52938   0.27455   0.00000  Uiso   1.00
C335   C     0.36740   0.47060   0.22550   0.00000  Uiso   1.00
C336   C     0.63259   0.52939   0.27450   0.00000  Uiso   1.00
C337   C     0.46917   0.49881   0.33787   0.00000  Uiso   1.00
C338   C     0.53083   0.50119   0.16212   0.00000  Uiso   1.00
C339   C     0.44954   0.50108   0.38844   0.00000  Uiso   1.00
C340   C     0.49999   0.41997   0.24991   0.00000  Uiso   1.00
C341   C     0.55047   0.49892   0.11156   0.00000  Uiso   1.00
C342   C     0.40834   0.54830   0.45155   0.00000  Uiso   1.00
C343   C     0.59181   0.45176   0.04841   0.00000  Uiso   1.00
C344   C     0.41211   0.52995   0.41018   0.00000  Uiso   1.00
C345   C     0.58796   0.47010   0.08981   0.00000  Uiso   1.00
C346   C     0.47655   0.48334   0.41250   0.00000  Uiso   1.00
C347   C     0.52346   0.51663   0.08748   0.00000  Uiso   1.00
C348   C     0.47060   0.50038   0.45652   0.00000  Uiso   1.00
C349   C     0.52953   0.49963   0.04341   0.00000  Uiso   1.00
C350   C     0.44058   0.53646   0.47213   0.00000  Uiso   1.00
C351   C     0.48206   0.55376   0.02220   0.00000  Uiso   1.00
C352   C     0.55959   0.46358   0.02779   0.00000  Uiso   1.00
C353   C     0.49732   0.48643   0.48310   0.00000  Uiso   1.00
C354   C     0.50285   0.51359   0.01680   0.00000  Uiso   1.00
C355   C     0.48328   0.54664   0.11328   0.00000  Uiso   1.00
C356   C     0.49471   0.58534   0.12791   0.00000  Uiso   1.00
C357   C     0.45708   0.61268   0.15397   0.00000  Uiso   1.00
C358   C     0.40786   0.60140   0.16619   0.00000  Uiso   1.00
C359   C     0.39612   0.56283   0.15220   0.00000  Uiso   1.00
C360   C     0.43359   0.53541   0.12602   0.00000  Uiso   1.00
C361   C     0.51658   0.45321   0.38671   0.00000  Uiso   1.00
C362   C     0.51814   0.44627   0.47769   0.00000  Uiso   1.00
C363   C     0.56633   0.46431   0.37381   0.00000  Uiso   1.00
C364   C     0.60365   0.43677   0.34763   0.00000  Uiso   1.00
C365   C     0.59171   0.39821   0.33380   0.00000  Uiso   1.00
C366   C     0.54242   0.38707   0.34618   0.00000  Uiso   1.00
C367   C     0.50494   0.41453   0.37223   0.00000  Uiso   1.00
C368   C     0.44729   0.56314   0.00432   0.00000  Uiso   1.00
C369   C     0.55293   0.43691   0.49557   0.00000  Uiso   1.00
C370   C     0.54482   0.64533   0.23625   0.00000  Uiso   1.00
C371   C     0.45518   0.35467   0.26376   0.00000  Uiso   1.00
C372   C     0.54481   0.35470   0.23601   0.00000  Uiso   1.00
H373   H     0.42861   0.59299   0.01272   0.00000  Uiso   1.00
H374   H     0.42033   0.37100   0.27482   0.00000  Uiso   1.00
H375   H     0.57966   0.37107   0.22490   0.00000  Uiso   1.00
H376   H     0.42034   0.62893   0.27510   0.00000  Uiso   1.00
H377   H     0.64275   0.44715   0.20580   0.00000  Uiso   1.00
H378   H     0.35725   0.55285   0.29420   0.00000  Uiso   1.00
H379   H     0.39367   0.44715   0.20582   0.00000  Uiso   1.00
H380   H     0.60633   0.55285   0.29419   0.00000  Uiso   1.00
H381   H     0.53271   0.59420   0.11914   0.00000  Uiso   1.00
H382   H     0.46610   0.64253   0.16490   0.00000  Uiso   1.00
H383   H     0.37879   0.62250   0.18664   0.00000  Uiso   1.00
H384   H     0.57164   0.40708   0.48716   0.00000  Uiso   1.00
H385   H     0.35798   0.55404   0.16195   0.00000  Uiso   1.00
H386   H     0.42405   0.50534   0.11599   0.00000  Uiso   1.00
H387   H     0.57603   0.49437   0.38372   0.00000  Uiso   1.00
H388   H     0.64184   0.44547   0.33775   0.00000  Uiso   1.00
H389   H     0.62065   0.37702   0.31335   0.00000  Uiso   1.00
H390   H     0.53323   0.35723   0.33537   0.00000  Uiso   1.00
H391   H     0.46689   0.40577   0.38112   0.00000  Uiso   1.00
H392   H     0.60927   0.45722   0.10798   0.00000  Uiso   1.00
H393   H     0.39080   0.54285   0.39202   0.00000  Uiso   1.00
H394   H     0.38362   0.57453   0.46493   0.00000  Uiso   1.00
H395   H     0.61656   0.42555   0.03503   0.00000  Uiso   1.00
H396   H     0.49189   0.57840   0.04049   0.00000  Uiso   1.00
H397   H     0.50833   0.42161   0.45943   0.00000  Uiso   1.00
H398   H     0.57967   0.62900   0.22518   0.00000  Uiso   1.00
N399   N     0.38093   0.50001   0.25001   0.00000  Uiso   1.00
N400   N     0.61907   0.49999   0.24999   0.00000  Uiso   1.00
O401   O     0.46179   0.56108   0.25000   0.00000  Uiso   1.00
O402   O     0.53821   0.43892   0.25000   0.00000  Uiso   1.00
O403   O     0.53823   0.56107   0.25000   0.00000  Uiso   1.00
O404   O     0.46177   0.43893   0.25000   0.00000  Uiso   1.00
O405   O     0.43994   0.50001   0.31612   0.00000  Uiso   1.00
O406   O     0.56006   0.49999   0.18388   0.00000  Uiso   1.00
O407   O     0.51639   0.50000   0.31612   0.00000  Uiso   1.00
O408   O     0.48361   0.50000   0.18388   0.00000  Uiso   1.00
Zn409  Zn    0.44896   0.50001   0.25000   0.00000  Uiso   1.00
Zn410  Zn    0.55104   0.49999   0.25000   0.00000  Uiso   1.00
C411   C     0.83334   0.58003   0.25009   0.00000  Uiso   1.00
C412   C     0.78852   0.64530   0.26400   0.00000  Uiso   1.00
C413   C     0.83332   0.37583   0.24982   0.00000  Uiso   1.00
C414   C     0.83335   0.62417   0.25018   0.00000  Uiso   1.00
C415   C     0.98614   0.47062   0.22546   0.00000  Uiso   1.00
C416   C     0.68053   0.52938   0.27455   0.00000  Uiso   1.00
C417   C     0.70074   0.47060   0.22550   0.00000  Uiso   1.00
C418   C     0.96593   0.52939   0.27450   0.00000  Uiso   1.00
C419   C     0.80250   0.49881   0.33787   0.00000  Uiso   1.00
C420   C     0.86416   0.50119   0.16212   0.00000  Uiso   1.00
C421   C     0.78287   0.50108   0.38844   0.00000  Uiso   1.00
C422   C     0.83332   0.41997   0.24991   0.00000  Uiso   1.00
C423   C     0.88381   0.49892   0.11156   0.00000  Uiso   1.00
C424   C     0.74167   0.54830   0.45155   0.00000  Uiso   1.00
C425   C     0.92514   0.45176   0.04841   0.00000  Uiso   1.00
C426   C     0.74544   0.52995   0.41018   0.00000  Uiso   1.00
C427   C     0.92130   0.47010   0.08981   0.00000  Uiso   1.00
C428   C     0.80988   0.48334   0.41250   0.00000  Uiso   1.00
C429   C     0.85679   0.51663   0.08748   0.00000  Uiso   1.00
C430   C     0.80393   0.50038   0.45652   0.00000  Uiso   1.00
C431   C     0.86286   0.49963   0.04341   0.00000  Uiso   1.00
C432   C     0.77391   0.53646   0.47213   0.00000  Uiso   1.00
C433   C     0.81540   0.55376   0.02220   0.00000  Uiso   1.00
C434   C     0.89293   0.46358   0.02779   0.00000  Uiso   1.00
C435   C     0.83065   0.48643   0.48310   0.00000  Uiso   1.00
C436   C     0.83618   0.51359   0.01680   0.00000  Uiso   1.00
C437   C     0.81662   0.54664   0.11328   0.00000  Uiso   1.00
C438   C     0.82805   0.58534   0.12791   0.00000  Uiso   1.00
C439   C     0.79042   0.61268   0.15397   0.00000  Uiso   1.00
C440   C     0.74119   0.60140   0.16619   0.00000  Uiso   1.00
C441   C     0.72946   0.56283   0.15220   0.00000  Uiso   1.00
C442   C     0.76693   0.53541   0.12602   0.00000  Uiso   1.00
C443   C     0.84991   0.45321   0.38671   0.00000  Uiso   1.00
C444   C     0.85148   0.44627   0.47769   0.00000  Uiso   1.00
C445   C     0.89966   0.46431   0.37381   0.00000  Uiso   1.00
C446   C     0.93698   0.43677   0.34763   0.00000  Uiso   1.00
C447   C     0.92504   0.39821   0.33380   0.00000  Uiso   1.00
C448   C     0.87575   0.38707   0.34618   0.00000  Uiso   1.00
C449   C     0.83827   0.41453   0.37223   0.00000  Uiso   1.00
C450   C     0.78062   0.56314   0.00432   0.00000  Uiso   1.00
C451   C     0.88626   0.43691   0.49557   0.00000  Uiso   1.00
C452   C     0.87816   0.64533   0.23625   0.00000  Uiso   1.00
C453   C     0.78851   0.35467   0.26376   0.00000  Uiso   1.00
C454   C     0.87815   0.35470   0.23601   0.00000  Uiso   1.00
H455   H     0.76195   0.59299   0.01272   0.00000  Uiso   1.00
H456   H     0.75366   0.37100   0.27482   0.00000  Uiso   1.00
H457   H     0.91299   0.37107   0.22490   0.00000  Uiso   1.00
H458   H     0.75368   0.62893   0.27510   0.00000  Uiso   1.00
H459   H     0.97609   0.44715   0.20580   0.00000  Uiso   1.00
H460   H     0.69058   0.55285   0.29420   0.00000  Uiso   1.00
H461   H     0.72700   0.44715   0.20582   0.00000  Uiso   1.00
H462   H     0.93966   0.55285   0.29419   0.00000  Uiso   1.00
H463   H     0.86604   0.59420   0.11914   0.00000  Uiso   1.00
H464   H     0.79944   0.64253   0.16490   0.00000  Uiso   1.00
H465   H     0.71212   0.62250   0.18664   0.00000  Uiso   1.00
H466   H     0.90497   0.40708   0.48716   0.00000  Uiso   1.00
H467   H     0.69131   0.55404   0.16195   0.00000  Uiso   1.00
H468   H     0.75738   0.50534   0.11599   0.00000  Uiso   1.00
H469   H     0.90937   0.49437   0.38372   0.00000  Uiso   1.00
H470   H     0.97517   0.44547   0.33775   0.00000  Uiso   1.00
H471   H     0.95399   0.37702   0.31335   0.00000  Uiso   1.00
H472   H     0.86656   0.35723   0.33537   0.00000  Uiso   1.00
H473   H     0.80023   0.40577   0.38112   0.00000  Uiso   1.00
H474   H     0.94261   0.45722   0.10798   0.00000  Uiso   1.00
H475   H     0.72413   0.54285   0.39202   0.00000  Uiso   1.00
H476   H     0.71695   0.57453   0.46493   0.00000  Uiso   1.00
H477   H     0.94990   0.42555   0.03503   0.00000  Uiso   1.00
H478   H     0.82522   0.57840   0.04049   0.00000  Uiso   1.00
H479   H     0.84166   0.42161   0.45943   0.00000  Uiso   1.00
H480   H     0.91301   0.62900   0.22518   0.00000  Uiso   1.00
N481   N     0.71426   0.50001   0.25001   0.00000  Uiso   1.00
N482   N     0.95241   0.49999   0.24999   0.00000  Uiso   1.00
O483   O     0.79512   0.56108   0.25000   0.00000  Uiso   1.00
O484   O     0.87154   0.43892   0.25000   0.00000  Uiso   1.00
O485   O     0.87157   0.56107   0.25000   0.00000  Uiso   1.00
O486   O     0.79510   0.43893   0.25000   0.00000  Uiso   1.00
O487   O     0.77328   0.50001   0.31612   0.00000  Uiso   1.00
O488   O     0.89339   0.49999   0.18388   0.00000  Uiso   1.00
O489   O     0.84972   0.50000   0.31612   0.00000  Uiso   1.00
O490   O     0.81695   0.50000   0.18388   0.00000  Uiso   1.00
Zn491  Zn    0.78229   0.50001   0.25000   0.00000  Uiso   1.00
Zn492  Zn    0.88438   0.49999   0.25000   0.00000  Uiso   1.00
C493   C     0.16668   0.91336   0.25009   0.00000  Uiso   1.00
C494   C     0.12185   0.97863   0.26400   0.00000  Uiso   1.00
C495   C     0.16665   0.70917   0.24982   0.00000  Uiso   1.00
C496   C     0.16668   0.95750   0.25018   0.00000  Uiso   1.00
C497   C     0.31947   0.80395   0.22546   0.00000  Uiso   1.00
C498   C     0.01386   0.86271   0.27455   0.00000  Uiso   1.00
C499   C     0.03407   0.80394   0.22550   0.00000  Uiso   1.00
C500   C     0.29926   0.86273   0.27450   0.00000  Uiso   1.00
C501   C     0.13584   0.83214   0.33787   0.00000  Uiso   1.00
C502   C     0.19750   0.83453   0.16212   0.00000  Uiso   1.00
C503   C     0.11620   0.83442   0.38844   0.00000  Uiso   1.00
C504   C     0.16665   0.75330   0.24991   0.00000  Uiso   1.00
C505   C     0.21714   0.83225   0.11156   0.00000  Uiso   1.00
C506   C     0.07501   0.88164   0.45155   0.00000  Uiso   1.00
C507   C     0.25847   0.78509   0.04841   0.00000  Uiso   1.00
C508   C     0.07878   0.86328   0.41018   0.00000  Uiso   1.00
C509   C     0.25463   0.80343   0.08981   0.00000  Uiso   1.00
C510   C     0.14322   0.81667   0.41250   0.00000  Uiso   1.00
C511   C     0.19013   0.84997   0.08748   0.00000  Uiso   1.00
C512   C     0.13727   0.83372   0.45652   0.00000  Uiso   1.00
C513   C     0.19619   0.83297   0.04341   0.00000  Uiso   1.00
C514   C     0.10724   0.86980   0.47213   0.00000  Uiso   1.00
C515   C     0.14873   0.88709   0.02220   0.00000  Uiso   1.00
C516   C     0.22626   0.79692   0.02779   0.00000  Uiso   1.00
C517   C     0.16398   0.81976   0.48310   0.00000  Uiso   1.00
C518   C     0.16952   0.84693   0.01680   0.00000  Uiso   1.00
C519   C     0.14995   0.87998   0.11328   0.00000  Uiso   1.00
C520   C     0.16138   0.91867   0.12791   0.00000  Uiso   1.00
C521   C     0.12375   0.94601   0.15397   0.00000  Uiso   1.00
C522   C     0.07452   0.93474   0.16619   0.00000  Uiso   1.00
C523   C     0.06279   0.89616   0.15220   0.00000  Uiso   1.00
C524   C     0.10026   0.86875   0.12602   0.00000  Uiso   1.00
C525   C     0.18324   0.78655   0.38671   0.00000  Uiso   1.00
C526   C     0.18481   0.77961   0.47769   0.00000  Uiso   1.00
C527   C     0.23299   0.79764   0.37381   0.00000  Uiso   1.00
C528   C     0.27031   0.77011   0.34763   0.00000  Uiso   1.00
C529   C     0.25837   0.73155   0.33380   0.00000  Uiso   1.00
C530   C     0.20908   0.72041   0.34618   0.00000  Uiso   1.00
C531   C     0.17160   0.74787   0.37223   0.00000  Uiso   1.00
C532   C     0.11396   0.89647   0.00432   0.00000  Uiso   1.00
C533   C     0.21960   0.77025   0.49557   0.00000  Uiso   1.00
C534   C     0.21149   0.97867   0.23625   0.00000  Uiso   1.00
C535   C     0.12184   0.68800   0.26376   0.00000  Uiso   1.00
C536   C     0.21148   0.68803   0.23601   0.00000  Uiso   1.00
H537   H     0.09528   0.92632   0.01272   0.00000  Uiso   1.00
H538   H     0.08699   0.70434   0.27482   0.00000  Uiso   1.00
H539   H     0.24632   0.70440   0.22490   0.00000  Uiso   1.00
H540   H     0.08701   0.96226   0.27510   0.00000  Uiso   1.00
H541   H     0.30942   0.78048   0.20580   0.00000  Uiso   1.00
H542   H     0.02391   0.88619   0.29420   0.00000  Uiso   1.00
H543   H     0.06034   0.78048   0.20582   0.00000  Uiso   1.00
H544   H     0.27299   0.88618   0.29419   0.00000  Uiso   1.00
H545   H     0.19937   0.92754   0.11914   0.00000  Uiso   1.00
H546   H     0.13277   0.97586   0.16490   0.00000  Uiso   1.00
H547   H     0.04546   0.95584   0.18664   0.00000  Uiso   1.00
H548   H     0.23830   0.74041   0.48716   0.00000  Uiso   1.00
H549   H     0.02464   0.88737   0.16195   0.00000  Uiso   1.00
H550   H     0.09072   0.83867   0.11599   0.00000  Uiso   1.00
H551   H     0.24270   0.82771   0.38372   0.00000  Uiso   1.00
H552   H     0.30851   0.77880   0.33775   0.00000  Uiso   1.00
H553   H     0.28732   0.71035   0.31335   0.00000  Uiso   1.00
H554   H     0.19990   0.69057   0.33537   0.00000  Uiso   1.00
H555   H     0.13356   0.73910   0.38112   0.00000  Uiso   1.00
H556   H     0.27594   0.79055   0.10798   0.00000  Uiso   1.00
H557   H     0.05746   0.87618   0.39202   0.00000  Uiso   1.00
H558   H     0.05029   0.90787   0.46493   0.00000  Uiso   1.00
H559   H     0.28323   0.75888   0.03503   0.00000  Uiso   1.00
H560   H     0.15856   0.91173   0.04049   0.00000  Uiso   1.00
H561   H     0.17499   0.75494   0.45943   0.00000  Uiso   1.00
H562   H     0.24634   0.96233   0.22518   0.00000  Uiso   1.00
N563   N     0.04759   0.83334   0.25001   0.00000  Uiso   1.00
N564   N     0.28574   0.83332   0.24999   0.00000  Uiso   1.00
O565   O     0.12846   0.89442   0.25000   0.00000  Uiso   1.00
O566   O     0.20488   0.77225   0.25000   0.00000  Uiso   1.00
O567   O     0.20490   0.89441   0.25000   0.00000  Uiso   1.00
O568   O     0.12843   0.77226   0.25000   0.00000  Uiso   1.00
O569   O     0.10661   0.83334   0.31612   0.00000  Uiso   1.00
O570   O     0.22672   0.83333   0.18388   0.00000  Uiso   1.00
O571   O     0.18305   0.83333   0.31612   0.00000  Uiso   1.00
O572   O     0.15028   0.83334   0.18388   0.00000  Uiso   1.00
Zn573  Zn    0.11562   0.83334   0.25000   0.00000  Uiso   1.00
Zn574  Zn    0.21771   0.83333   0.25000   0.00000  Uiso   1.00
C575   C     0.50001   0.91336   0.25009   0.00000  Uiso   1.00
C576   C     0.45519   0.97863   0.26400   0.00000  Uiso   1.00
C577   C     0.49999   0.70917   0.24982   0.00000  Uiso   1.00
C578   C     0.50001   0.95750   0.25018   0.00000  Uiso   1.00
C579   C     0.65280   0.80395   0.22546   0.00000  Uiso   1.00
C580   C     0.34719   0.86271   0.27455   0.00000  Uiso   1.00
C581   C     0.36740   0.80394   0.22550   0.00000  Uiso   1.00
C582   C     0.63259   0.86273   0.27450   0.00000  Uiso   1.00
C583   C     0.46917   0.83214   0.33787   0.00000  Uiso   1.00
C584   C     0.53083   0.83453   0.16212   0.00000  Uiso   1.00
C585   C     0.44954   0.83442   0.38844   0.00000  Uiso   1.00
C586   C     0.49999   0.75330   0.24991   0.00000  Uiso   1.00
C587   C     0.55047   0.83225   0.11156   0.00000  Uiso   1.00
C588   C     0.40834   0.88164   0.45155   0.00000  Uiso   1.00
C589   C     0.59181   0.78509   0.04841   0.00000  Uiso   1.00
C590   C     0.41211   0.86328   0.41018   0.00000  Uiso   1.00
C591   C     0.58796   0.80343   0.08981   0.00000  Uiso   1.00
C592   C     0.47655   0.81667   0.41250   0.00000  Uiso   1.00
C593   C     0.52346   0.84997   0.08748   0.00000  Uiso   1.00
C594   C     0.47060   0.83372   0.45652   0.00000  Uiso   1.00
C595   C     0.52953   0.83297   0.04341   0.00000  Uiso   1.00
C596   C     0.44058   0.86980   0.47213   0.00000  Uiso   1.00
C597   C     0.48206   0.88709   0.02220   0.00000  Uiso   1.00
C598   C     0.55959   0.79692   0.02779   0.00000  Uiso   1.00
C599   C     0.49732   0.81976   0.48310   0.00000  Uiso   1.00
C600   C     0.50285   0.84693   0.01680   0.00000  Uiso   1.00
C601   C     0.48328   0.87998   0.11328   0.00000  Uiso   1.00
C602   C     0.49471   0.91867   0.12791   0.00000  Uiso   1.00
C603   C     0.45708   0.94601   0.15397   0.00000  Uiso   1.00
C604   C     0.40786   0.93474   0.16619   0.00000  Uiso   1.00
C605   C     0.39612   0.89616   0.15220   0.00000  Uiso   1.00
C606   C     0.43359   0.86875   0.12602   0.00000  Uiso   1.00
C607   C     0.51658   0.78655   0.38671   0.00000  Uiso   1.00
C608   C     0.51814   0.77961   0.47769   0.00000  Uiso   1.00
C609   C     0.56633   0.79764   0.37381   0.00000  Uiso   1.00
C610   C     0.60365   0.77011   0.34763   0.00000  Uiso   1.00
C611   C     0.59171   0.73155   0.33380   0.00000  Uiso   1.00
C612   C     0.54242   0.72041   0.34618   0.00000  Uiso   1.00
C613   C     0.50494   0.74787   0.37223   0.00000  Uiso   1.00
C614   C     0.44729   0.89647   0.00432   0.00000  Uiso   1.00
C615   C     0.55293   0.77025   0.49557   0.00000  Uiso   1.00
C616   C     0.54482   0.97867   0.23625   0.00000  Uiso   1.00
C617   C     0.45518   0.68800   0.26376   0.00000  Uiso   1.00
C618   C     0.54481   0.68803   0.23601   0.00000  Uiso   1.00
H619   H     0.42861   0.92632   0.01272   0.00000  Uiso   1.00
H620   H     0.42033   0.70434   0.27482   0.00000  Uiso   1.00
H621   H     0.57966   0.70440   0.22490   0.00000  Uiso   1.00
H622   H     0.42034   0.96226   0.27510   0.00000  Uiso   1.00
H623   H     0.64275   0.78048   0.20580   0.00000  Uiso   1.00
H624   H     0.35725   0.88619   0.29420   0.00000  Uiso   1.00
H625   H     0.39367   0.78048   0.20582   0.00000  Uiso   1.00
H626   H     0.60633   0.88618   0.29419   0.00000  Uiso   1.00
H627   H     0.53271   0.92754   0.11914   0.00000  Uiso   1.00
H628   H     0.46610   0.97586   0.16490   0.00000  Uiso   1.00
H629   H     0.37879   0.95584   0.18664   0.00000  Uiso   1.00
H630   H     0.57164   0.74041   0.48716   0.00000  Uiso   1.00
H631   H     0.35798   0.88737   0.16195   0.00000  Uiso   1.00
H632   H     0.42405   0.83867   0.11599   0.00000  Uiso   1.00
H633   H     0.57603   0.82771   0.38372   0.00000  Uiso   1.00
H634   H     0.64184   0.77880   0.33775   0.00000  Uiso   1.00
H635   H     0.62065   0.71035   0.31335   0.00000  Uiso   1.00
H636   H     0.53323   0.69057   0.33537   0.00000  Uiso   1.00
H637   H     0.46689   0.73910   0.38112   0.00000  Uiso   1.00
H638   H     0.60927   0.79055   0.10798   0.00000  Uiso   1.00
H639   H     0.39080   0.87618   0.39202   0.00000  Uiso   1.00
H640   H     0.38362   0.90787   0.46493   0.00000  Uiso   1.00
H641   H     0.61656   0.75888   0.03503   0.00000  Uiso   1.00
H642   H     0.49189   0.91173   0.04049   0.00000  Uiso   1.00
H643   H     0.50833   0.75494   0.45943   0.00000  Uiso   1.00
H644   H     0.57967   0.96233   0.22518   0.00000  Uiso   1.00
N645   N     0.38093   0.83334   0.25001   0.00000  Uiso   1.00
N646   N     0.61907   0.83332   0.24999   0.00000  Uiso   1.00
O647   O     0.46179   0.89442   0.25000   0.00000  Uiso   1.00
O648   O     0.53821   0.77225   0.25000   0.00000  Uiso   1.00
O649   O     0.53823   0.89441   0.25000   0.00000  Uiso   1.00
O650   O     0.46177   0.77226   0.25000   0.00000  Uiso   1.00
O651   O     0.43994   0.83334   0.31612   0.00000  Uiso   1.00
O652   O     0.56006   0.83333   0.18388   0.00000  Uiso   1.00
O653   O     0.51639   0.83333   0.31612   0.00000  Uiso   1.00
O654   O     0.48361   0.83334   0.18388   0.00000  Uiso   1.00
Zn655  Zn    0.44896   0.83334   0.25000   0.00000  Uiso   1.00
Zn656  Zn    0.55104   0.83333   0.25000   0.00000  Uiso   1.00
C657   C     0.83334   0.91336   0.25009   0.00000  Uiso   1.00
C658   C     0.78852   0.97863   0.26400   0.00000  Uiso   1.00
C659   C     0.83332   0.70917   0.24982   0.00000  Uiso   1.00
C660   C     0.83335   0.95750   0.25018   0.00000  Uiso   1.00
C661   C     0.98614   0.80395   0.22546   0.00000  Uiso   1.00
C662   C     0.68053   0.86271   0.27455   0.00000  Uiso   1.00
C663   C     0.70074   0.80394   0.22550   0.00000  Uiso   1.00
C664   C     0.96593   0.86273   0.27450   0.00000  Uiso   1.00
C665   C     0.80250   0.83214   0.33787   0.00000  Uiso   1.00
C666   C     0.86416   0.83453   0.16212   0.00000  Uiso   1.00
C667   C     0.78287   0.83442   0.38844   0.00000  Uiso   1.00
C668   C     0.83332   0.75330   0.24991   0.00000  Uiso   1.00
C669   C     0.88381   0.83225   0.11156   0.00000  Uiso   1.00
C670   C     0.74167   0.88164   0.45155   0.00000  Uiso   1.00
C671   C     0.92514   0.78509   0.04841   0.00000  Uiso   1.00
C672   C     0.74544   0.86328   0.41018   0.00000  Uiso   1.00
C673   C     0.92130   0.80343   0.08981   0.00000  Uiso   1.00
C674   C     0.80988   0.81667   0.41250   0.00000  Uiso   1.00
C675   C     0.85679   0.84997   0.08748   0.00000  Uiso   1.00
C676   C     0.80393   0.83372   0.45652   0.00000  Uiso   1.00
C677   C     0.86286   0.83297   0.04341   0.00000  Uiso   1.00
C678   C     0.77391   0.86980   0.47213   0.00000  Uiso   1.00
C679   C     0.81540   0.88709   0.02220   0.00000  Uiso   1.00
C680   C     0.89293   0.79692   0.02779   0.00000  Uiso   1.00
C681   C     0.83065   0.81976   0.48310   0.00000  Uiso   1.00
C682   C     0.83618   0.84693   0.01680   0.00000  Uiso   1.00
C683   C     0.81662   0.87998   0.11328   0.00000  Uiso   1.00
C684   C     0.82805   0.91867   0.12791   0.00000  Uiso   1.00
C685   C     0.79042   0.94601   0.15397   0.00000  Uiso   1.00
C686   C     0.74119   0.93474   0.16619   0.00000  Uiso   1.00
C687   C     0.72946   0.89616   0.15220   0.00000  Uiso   1.00
C688   C     0.76693   0.86875   0.12602   0.00000  Uiso   1.00
C689   C     0.84991   0.78655   0.38671   0.00000  Uiso   1.00
C690   C     0.85148   0.77961   0.47769   0.00000  Uiso   1.00
C691   C     0.89966   0.79764   0.37381   0.00000  Uiso   1.00
C692   C     0.93698   0.77011   0.34763   0.00000  Uiso   1.00
C693   C     0.92504   0.73155   0.33380   0.00000  Uiso   1.00
C694   C     0.87575   0.72041   0.34618   0.00000  Uiso   1.00
C695   C     0.83827   0.74787   0.37223   0.00000  Uiso   1.00
C696   C     0.78062   0.89647   0.00432   0.00000  Uiso   1.00
C697   C     0.88626   0.77025   0.49557   0.00000  Uiso   1.00
C698   C     0.87816   0.97867   0.23625   0.00000  Uiso   1.00
C699   C     0.78851   0.68800   0.26376   0.00000  Uiso   1.00
C700   C     0.87815   0.68803   0.23601   0.00000  Uiso   1.00
H701   H     0.76195   0.92632   0.01272   0.00000  Uiso   1.00
H702   H     0.75366   0.70434   0.27482   0.00000  Uiso   1.00
H703   H     0.91299   0.70440   0.22490   0.00000  Uiso   1.00
H704   H     0.75368   0.96226   0.27510   0.00000  Uiso   1.00
H705   H     0.97609   0.78048   0.20580   0.00000  Uiso   1.00
H706   H     0.69058   0.88619   0.29420   0.00000  Uiso   1.00
H707   H     0.72700   0.78048   0.20582   0.00000  Uiso   1.00
H708   H     0.93966   0.88618   0.29419   0.00000  Uiso   1.00
H709   H     0.86604   0.92754   0.11914   0.00000  Uiso   1.00
H710   H     0.79944   0.97586   0.16490   0.00000  Uiso   1.00
H711   H     0.71212   0.95584   0.18664   0.00000  Uiso   1.00
H712   H     0.90497   0.74041   0.48716   0.00000  Uiso   1.00
H713   H     0.69131   0.88737   0.16195   0.00000  Uiso   1.00
H714   H     0.75738   0.83867   0.11599   0.00000  Uiso   1.00
H715   H     0.90937   0.82771   0.38372   0.00000  Uiso   1.00
H716   H     0.97517   0.77880   0.33775   0.00000  Uiso   1.00
H717   H     0.95399   0.71035   0.31335   0.00000  Uiso   1.00
H718   H     0.86656   0.69057   0.33537   0.00000  Uiso   1.00
H719   H     0.80023   0.73910   0.38112   0.00000  Uiso   1.00
H720   H     0.94261   0.79055   0.10798   0.00000  Uiso   1.00
H721   H     0.72413   0.87618   0.39202   0.00000  Uiso   1.00
H722   H     0.71695   0.90787   0.46493   0.00000  Uiso   1.00
H723   H     0.94990   0.75888   0.03503   0.00000  Uiso   1.00
H724   H     0.82522   0.91173   0.04049   0.00000  Uiso   1.00
H725   H     0.84166   0.75494   0.45943   0.00000  Uiso   1.00
H726   H     0.91301   0.96233   0.22518   0.00000  Uiso   1.00
N727   N     0.71426   0.83334   0.25001   0.00000  Uiso   1.00
N728   N     0.95241   0.83332   0.24999   0.00000  Uiso   1.00
O729   O     0.79512   0.89442   0.25000   0.00000  Uiso   1.00
O730   O     0.87154   0.77225   0.25000   0.00000  Uiso   1.00
O731   O     0.87157   0.89441   0.25000   0.00000  Uiso   1.00
O732   O     0.79510   0.77226   0.25000   0.00000  Uiso   1.00
O733   O     0.77328   0.83334   0.31612   0.00000  Uiso   1.00
O734   O     0.89339   0.83333   0.18388   0.00000  Uiso   1.00
O735   O     0.84972   0.83333   0.31612   0.00000  Uiso   1.00
O736   O     0.81695   0.83334   0.18388   0.00000  Uiso   1.00
Zn737  Zn    0.78229   0.83334   0.25000   0.00000  Uiso   1.00
Zn738  Zn    0.88438   0.83333   0.25000   0.00000  Uiso   1.00
C739   C     0.16668   0.24670   0.75009   0.00000  Uiso   1.00
C740   C     0.12185   0.31197   0.76400   0.00000  Uiso   1.00
C741   C     0.16665   0.04250   0.74982   0.00000  Uiso   1.00
C742   C     0.16668   0.29083   0.75018   0.00000  Uiso   1.00
C743   C     0.31947   0.13728   0.72546   0.00000  Uiso   1.00
C744   C     0.01386   0.19605   0.77455   0.00000  Uiso   1.00
C745   C     0.03407   0.13727   0.72550   0.00000  Uiso   1.00
C746   C     0.29926   0.19606   0.77450   0.00000  Uiso   1.00
C747   C     0.13584   0.16547   0.83787   0.00000  Uiso   1.00
C748   C     0.19750   0.16786   0.66212   0.00000  Uiso   1.00
C749   C     0.11620   0.16775   0.88844   0.00000  Uiso   1.00
C750   C     0.16665   0.08664   0.74991   0.00000  Uiso   1.00
C751   C     0.21714   0.16559   0.61156   0.00000  Uiso   1.00
C752   C     0.07501   0.21497   0.95155   0.00000  Uiso   1.00
C753   C     0.25847   0.11843   0.54841   0.00000  Uiso   1.00
C754   C     0.07878   0.19661   0.91018   0.00000  Uiso   1.00
C755   C     0.25463   0.13677   0.58981   0.00000  Uiso   1.00
C756   C     0.14322   0.15001   0.91250   0.00000  Uiso   1.00
C757   C     0.19013   0.18330   0.58748   0.00000  Uiso   1.00
C758   C     0.13727   0.16705   0.95652   0.00000  Uiso   1.00
C759   C     0.19619   0.16630   0.54341   0.00000  Uiso   1.00
C760   C     0.10724   0.20313   0.97213   0.00000  Uiso   1.00
C761   C     0.14873   0.22042   0.52220   0.00000  Uiso   1.00
C762   C     0.22626   0.13025   0.52779   0.00000  Uiso   1.00
C763   C     0.16398   0.15310   0.98310   0.00000  Uiso   1.00
C764   C     0.16952   0.18026   0.51680   0.00000  Uiso   1.00
C765   C     0.14995   0.21331   0.61328   0.00000  Uiso   1.00
C766   C     0.16138   0.25200   0.62791   0.00000  Uiso   1.00
C767   C     0.12375   0.27934   0.65397   0.00000  Uiso   1.00
C768   C     0.07452   0.26807   0.66619   0.00000  Uiso   1.00
C769   C     0.06279   0.22950   0.65220   0.00000  Uiso   1.00
C770   C     0.10026   0.20208   0.62602   0.00000  Uiso   1.00
C771   C     0.18324   0.11988   0.88671   0.00000  Uiso   1.00
C772   C     0.18481   0.11294   0.97769   0.00000  Uiso   1.00
C773   C     0.23299   0.13098   0.87381   0.00000  Uiso   1.00
C774   C     0.27031   0.10344   0.84763   0.00000  Uiso   1.00
C775   C     0.25837   0.06488   0.83380   0.00000  Uiso   1.00
C776   C     0.20908   0.05374   0.84618   0.00000  Uiso   1.00
C777   C     0.17160   0.08120   0.87223   0.00000  Uiso   1.00
C778   C     0.11396   0.22981   0.50432   0.00000  Uiso   1.00
C779   C     0.21960   0.10358   0.99557   0.00000  Uiso   1.00
C780   C     0.21149   0.31200   0.73625   0.00000  Uiso   1.00
C781   C     0.12184   0.02133   0.76376   0.00000  Uiso   1.00
C782   C     0.21148   0.02137   0.73601   0.00000  Uiso   1.00
H783   H     0.09528   0.25966   0.51272   0.00000  Uiso   1.00
H784   H     0.08699   0.03767   0.77482   0.00000  Uiso   1.00
H785   H     0.24632   0.03774   0.72490   0.00000  Uiso   1.00
H786   H     0.08701   0.29560   0.77510   0.00000  Uiso   1.00
H787   H     0.30942   0.11381   0.70580   0.00000  Uiso   1.00
H788   H     0.02391   0.21952   0.79420   0.00000  Uiso   1.00
H789   H     0.06034   0.11382   0.70582   0.00000  Uiso   1.00
H790   H     0.27299   0.21952   0.79419   0.00000  Uiso   1.00
H791   H     0.19937   0.26087   0.61914   0.00000  Uiso   1.00
H792   H     0.13277   0.30919   0.66490   0.00000  Uiso   1.00
H793   H     0.04546   0.28917   0.68664   0.00000  Uiso   1.00
H794   H     0.23830   0.07375   0.98716   0.00000  Uiso   1.00
H795   H     0.02464   0.22070   0.66195   0.00000  Uiso   1.00
H796   H     0.09072   0.17201   0.61599   0.00000  Uiso   1.00
H797   H     0.24270   0.16104   0.88372   0.00000  Uiso   1.00
H798   H     0.30851   0.11213   0.83775   0.00000  Uiso   1.00
H799   H     0.28732   0.04368   0.81335   0.00000  Uiso   1.00
H800   H     0.19990   0.02390   0.83537   0.00000  Uiso   1.00
H801   H     0.13356   0.07244   0.88112   0.00000  Uiso   1.00
H802   H     0.27594   0.12389   0.60798   0.00000  Uiso   1.00
H803   H     0.05746   0.20952   0.89202   0.00000  Uiso   1.00
H804   H     0.05029   0.24120   0.96493   0.00000  Uiso   1.00
H805   H     0.28323   0.09222   0.53503   0.00000  Uiso   1.00
H806   H     0.15856   0.24507   0.54049   0.00000  Uiso   1.00
H807   H     0.17499   0.08828   0.95943   0.00000  Uiso   1.00
H808   H     0.24634   0.29566   0.72518   0.00000  Uiso   1.00
N809   N     0.04759   0.16668   0.75001   0.00000  Uiso   1.00
N810   N     0.28574   0.16666   0.74999   0.00000  Uiso   1.00
O811   O     0.12846   0.22775   0.75000   0.00000  Uiso   1.00
O812   O     0.20488   0.10558   0.75000   0.00000  Uiso   1.00
O813   O     0.20490   0.22774   0.75000   0.00000  Uiso   1.00
O814   O     0.12843   0.10559   0.75000   0.00000  Uiso   1.00
O815   O     0.10661   0.16667   0.81612   0.00000  Uiso   1.00
O816   O     0.22672   0.16666   0.68388   0.00000  Uiso   1.00
O817   O     0.18305   0.16666   0.81612   0.00000  Uiso   1.00
O818   O     0.15028   0.16667   0.68388   0.00000  Uiso   1.00
Zn819  Zn    0.11562   0.16667   0.75000   0.00000  Uiso   1.00
Zn820  Zn    0.21771   0.16666   0.75000   0.00000  Uiso   1.00
C821   C     0.50001   0.24670   0.75009   0.00000  Uiso   1.00
C822   C     0.45519   0.31197   0.76400   0.00000  Uiso   1.00
C823   C     0.49999   0.04250   0.74982   0.00000  Uiso   1.00
C824   C     0.50001   0.29083   0.75018   0.00000  Uiso   1.00
C825   C     0.65280   0.13728   0.72546   0.00000  Uiso   1.00
C826   C     0.34719   0.19605   0.77455   0.00000  Uiso   1.00
C827   C     0.36740   0.13727   0.72550   0.00000  Uiso   1.00
C828   C     0.63259   0.19606   0.77450   0.00000  Uiso   1.00
C829   C     0.46917   0.16547   0.83787   0.00000  Uiso   1.00
C830   C     0.53083   0.16786   0.66212   0.00000  Uiso   1.00
C831   C     0.44954   0.16775   0.88844   0.00000  Uiso   1.00
C832   C     0.49999   0.08664   0.74991   0.00000  Uiso   1.00
C833   C     0.55047   0.16559   0.61156   0.00000  Uiso   1.00
C834   C     0.40834   0.21497   0.95155   0.00000  Uiso   1.00
C835   C     0.59181   0.11843   0.54841   0.00000  Uiso   1.00
C836   C     0.41211   0.19661   0.91018   0.00000  Uiso   1.00
C837   C     0.58796   0.13677   0.58981   0.00000  Uiso   1.00
C838   C     0.47655   0.15001   0.91250   0.00000  Uiso   1.00
C839   C     0.52346   0.18330   0.58748   0.00000  Uiso   1.00
C840   C     0.47060   0.16705   0.95652   0.00000  Uiso   1.00
C841   C     0.52953   0.16630   0.54341   0.00000  Uiso   1.00
C842   C     0.44058   0.20313   0.97213   0.00000  Uiso   1.00
C843   C     0.48206   0.22042   0.52220   0.00000  Uiso   1.00
C844   C     0.55959   0.13025   0.52779   0.00000  Uiso   1.00
C845   C     0.49732   0.15310   0.98310   0.00000  Uiso   1.00
C846   C     0.50285   0.18026   0.51680   0.00000  Uiso   1.00
C847   C     0.48328   0.21331   0.61328   0.00000  Uiso   1.00
C848   C     0.49471   0.25200   0.62791   0.00000  Uiso   1.00
C849   C     0.45708   0.27934   0.65397   0.00000  Uiso   1.00
C850   C     0.40786   0.26807   0.66619   0.00000  Uiso   1.00
C851   C     0.39612   0.22950   0.65220   0.00000  Uiso   1.00
C852   C     0.43359   0.20208   0.62602   0.00000  Uiso   1.00
C853   C     0.51658   0.11988   0.88671   0.00000  Uiso   1.00
C854   C     0.51814   0.11294   0.97769   0.00000  Uiso   1.00
C855   C     0.56633   0.13098   0.87381   0.00000  Uiso   1.00
C856   C     0.60365   0.10344   0.84763   0.00000  Uiso   1.00
C857   C     0.59171   0.06488   0.83380   0.00000  Uiso   1.00
C858   C     0.54242   0.05374   0.84618   0.00000  Uiso   1.00
C859   C     0.50494   0.08120   0.87223   0.00000  Uiso   1.00
C860   C     0.44729   0.22981   0.50432   0.00000  Uiso   1.00
C861   C     0.55293   0.10358   0.99557   0.00000  Uiso   1.00
C862   C     0.54482   0.31200   0.73625   0.00000  Uiso   1.00
C863   C     0.45518   0.02133   0.76376   0.00000  Uiso   1.00
C864   C     0.54481   0.02137   0.73601   0.00000  Uiso   1.00
H865   H     0.42861   0.25966   0.51272   0.00000  Uiso   1.00
H866   H     0.42033   0.03767   0.77482   0.00000  Uiso   1.00
H867   H     0.57966   0.03774   0.72490   0.00000  Uiso   1.00
H868   H     0.42034   0.29560   0.77510   0.00000  Uiso   1.00
H869   H     0.64275   0.11381   0.70580   0.00000  Uiso   1.00
H870   H     0.35725   0.21952   0.79420   0.00000  Uiso   1.00
H871   H     0.39367   0.11382   0.70582   0.00000  Uiso   1.00
H872   H     0.60633   0.21952   0.79419   0.00000  Uiso   1.00
H873   H     0.53271   0.26087   0.61914   0.00000  Uiso   1.00
H874   H     0.46610   0.30919   0.66490   0.00000  Uiso   1.00
H875   H     0.37879   0.28917   0.68664   0.00000  Uiso   1.00
H876   H     0.57164   0.07375   0.98716   0.00000  Uiso   1.00
H877   H     0.35798   0.22070   0.66195   0.00000  Uiso   1.00
H878   H     0.42405   0.17201   0.61599   0.00000  Uiso   1.00
H879   H     0.57603   0.16104   0.88372   0.00000  Uiso   1.00
H880   H     0.64184   0.11213   0.83775   0.00000  Uiso   1.00
H881   H     0.62065   0.04368   0.81335   0.00000  Uiso   1.00
H882   H     0.53323   0.02390   0.83537   0.00000  Uiso   1.00
H883   H     0.46689   0.07244   0.88112   0.00000  Uiso   1.00
H884   H     0.60927   0.12389   0.60798   0.00000  Uiso   1.00
H885   H     0.39080   0.20952   0.89202   0.00000  Uiso   1.00
H886   H     0.38362   0.24120   0.96493   0.00000  Uiso   1.00
H887   H     0.61656   0.09222   0.53503   0.00000  Uiso   1.00
H888   H     0.49189   0.24507   0.54049   0.00000  Uiso   1.00
H889   H     0.50833   0.08828   0.95943   0.00000  Uiso   1.00
H890   H     0.57967   0.29566   0.72518   0.00000  Uiso   1.00
N891   N     0.38093   0.16668   0.75001   0.00000  Uiso   1.00
N892   N     0.61907   0.16666   0.74999   0.00000  Uiso   1.00
O893   O     0.46179   0.22775   0.75000   0.00000  Uiso   1.00
O894   O     0.53821   0.10558   0.75000   0.00000  Uiso   1.00
O895   O     0.53823   0.22774   0.75000   0.00000  Uiso   1.00
O896   O     0.46177   0.10559   0.75000   0.00000  Uiso   1.00
O897   O     0.43994   0.16667   0.81612   0.00000  Uiso   1.00
O898   O     0.56006   0.16666   0.68388   0.00000  Uiso   1.00
O899   O     0.51639   0.16666   0.81612   0.00000  Uiso   1.00
O900   O     0.48361   0.16667   0.68388   0.00000  Uiso   1.00
Zn901  Zn    0.44896   0.16667   0.75000   0.00000  Uiso   1.00
Zn902  Zn    0.55104   0.16666   0.75000   0.00000  Uiso   1.00
C903   C     0.83334   0.24670   0.75009   0.00000  Uiso   1.00
C904   C     0.78852   0.31197   0.76400   0.00000  Uiso   1.00
C905   C     0.83332   0.04250   0.74982   0.00000  Uiso   1.00
C906   C     0.83335   0.29083   0.75018   0.00000  Uiso   1.00
C907   C     0.98614   0.13728   0.72546   0.00000  Uiso   1.00
C908   C     0.68053   0.19605   0.77455   0.00000  Uiso   1.00
C909   C     0.70074   0.13727   0.72550   0.00000  Uiso   1.00
C910   C     0.96593   0.19606   0.77450   0.00000  Uiso   1.00
C911   C     0.80250   0.16547   0.83787   0.00000  Uiso   1.00
C912   C     0.86416   0.16786   0.66212   0.00000  Uiso   1.00
C913   C     0.78287   0.16775   0.88844   0.00000  Uiso   1.00
C914   C     0.83332   0.08664   0.74991   0.00000  Uiso   1.00
C915   C     0.88381   0.16559   0.61156   0.00000  Uiso   1.00
C916   C     0.74167   0.21497   0.95155   0.00000  Uiso   1.00
C917   C     0.92514   0.11843   0.54841   0.00000  Uiso   1.00
C918   C     0.74544   0.19661   0.91018   0.00000  Uiso   1.00
C919   C     0.92130   0.13677   0.58981   0.00000  Uiso   1.00
C920   C     0.80988   0.15001   0.91250   0.00000  Uiso   1.00
C921   C     0.85679   0.18330   0.58748   0.00000  Uiso   1.00
C922   C     0.80393   0.16705   0.95652   0.00000  Uiso   1.00
C923   C     0.86286   0.16630   0.54341   0.00000  Uiso   1.00
C924   C     0.77391   0.20313   0.97213   0.00000  Uiso   1.00
C925   C     0.81540   0.22042   0.52220   0.00000  Uiso   1.00
C926   C     0.89293   0.13025   0.52779   0.00000  Uiso   1.00
C927   C     0.83065   0.15310   0.98310   0.00000  Uiso   1.00
C928   C     0.83618   0.18026   0.51680   0.00000  Uiso   1.00
C929   C     0.81662   0.21331   0.61328   0.00000  Uiso   1.00
C930   C     0.82805   0.25200   0.62791   0.00000  Uiso   1.00
C931   C     0.79042   0.27934   0.65397   0.00000  Uiso   1.00
C932   C     0.74119   0.26807   0.66619   0.00000  Uiso   1.00
C933   C     0.72946   0.22950   0.65220   0.00000  Uiso   1.00
C934   C     0.76693   0.20208   0.62602   0.00000  Uiso   1.00
C935   C     0.84991   0.11988   0.88671   0.00000  Uiso   1.00
C936   C     0.85148   0.11294   0.97769   0.00000  Uiso   1.00
C937   C     0.89966   0.13098   0.87381   0.00000  Uiso   1.00
C938   C     0.93698   0.10344   0.84763   0.00000  Uiso   1.00
C939   C     0.92504   0.06488   0.83380   0.00000  Uiso   1.00
C940   C     0.87575   0.05374   0.84618   0.00000  Uiso   1.00
C941   C     0.83827   0.08120   0.87223   0.00000  Uiso   1.00
C942   C     0.78062   0.22981   0.50432   0.00000  Uiso   1.00
C943   C     0.88626   0.10358   0.99557   0.00000  Uiso   1.00
C944   C     0.87816   0.31200   0.73625   0.00000  Uiso   1.00
C945   C     0.78851   0.02133   0.76376   0.00000  Uiso   1.00
C946   C     0.87815   0.02137   0.73601   0.00000  Uiso   1.00
H947   H     0.76195   0.25966   0.51272   0.00000  Uiso   1.00
H948   H     0.75366   0.03767   0.77482   0.00000  Uiso   1.00
H949   H     0.91299   0.03774   0.72490   0.00000  Uiso   1.00
H950   H     0.75368   0.29560   0.77510   0.00000  Uiso   1.00
H951   H     0.97609   0.11381   0.70580   0.00000  Uiso   1.00
H952   H     0.69058   0.21952   0.79420   0.00000  Uiso   1.00
H953   H     0.72700   0.11382   0.70582   0.00000  Uiso   1.00
H954   H     0.93966   0.21952   0.79419   0.00000  Uiso   1.00
H955   H     0.86604   0.26087   0.61914   0.00000  Uiso   1.00
H956   H     0.79944   0.30919   0.66490   0.00000  Uiso   1.00
H957   H     0.71212   0.28917   0.68664   0.00000  Uiso   1.00
H958   H     0.90497   0.07375   0.98716   0.00000  Uiso   1.00
H959   H     0.69131   0.22070   0.66195   0.00000  Uiso   1.00
H960   H     0.75738   0.17201   0.61599   0.00000  Uiso   1.00
H961   H     0.90937   0.16104   0.88372   0.00000  Uiso   1.00
H962   H     0.97517   0.11213   0.83775   0.00000  Uiso   1.00
H963   H     0.95399   0.04368   0.81335   0.00000  Uiso   1.00
H964   H     0.86656   0.02390   0.83537   0.00000  Uiso   1.00
H965   H     0.80023   0.07244   0.88112   0.00000  Uiso   1.00
H966   H     0.94261   0.12389   0.60798   0.00000  Uiso   1.00
H967   H     0.72413   0.20952   0.89202   0.00000  Uiso   1.00
H968   H     0.71695   0.24120   0.96493   0.00000  Uiso   1.00
H969   H     0.94990   0.09222   0.53503   0.00000  Uiso   1.00
H970   H     0.82522   0.24507   0.54049   0.00000  Uiso   1.00
H971   H     0.84166   0.08828   0.95943   0.00000  Uiso   1.00
H972   H     0.91301   0.29566   0.72518   0.00000  Uiso   1.00
N973   N     0.71426   0.16668   0.75001   0.00000  Uiso   1.00
N974   N     0.95241   0.16666   0.74999   0.00000  Uiso   1.00
O975   O     0.79512   0.22775   0.75000   0.00000  Uiso   1.00
O976   O     0.87154   0.10558   0.75000   0.00000  Uiso   1.00
O977   O     0.87157   0.22774   0.75000   0.00000  Uiso   1.00
O978   O     0.79510   0.10559   0.75000   0.00000  Uiso   1.00
O979   O     0.77328   0.16667   0.81612   0.00000  Uiso   1.00
O980   O     0.89339   0.16666   0.68388   0.00000  Uiso   1.00
O981   O     0.84972   0.16666   0.81612   0.00000  Uiso   1.00
O982   O     0.81695   0.16667   0.68388   0.00000  Uiso   1.00
Zn983  Zn    0.78229   0.16667   0.75000   0.00000  Uiso   1.00
Zn984  Zn    0.88438   0.16666   0.75000   0.00000  Uiso   1.00
C985   C     0.16668   0.58003   0.75009   0.00000  Uiso   1.00
C986   C     0.12185   0.64530   0.76400   0.00000  Uiso   1.00
C987   C     0.16665   0.37583   0.74982   0.00000  Uiso   1.00
C988   C     0.16668   0.62417   0.75018   0.00000  Uiso   1.00
C989   C     0.31947   0.47062   0.72546   0.00000  Uiso   1.00
C990   C     0.01386   0.52938   0.77455   0.00000  Uiso   1.00
C991   C     0.03407   0.47060   0.72550   0.00000  Uiso   1.00
C992   C     0.29926   0.52939   0.77450   0.00000  Uiso   1.00
C993   C     0.13584   0.49881   0.83787   0.00000  Uiso   1.00
C994   C     0.19750   0.50119   0.66212   0.00000  Uiso   1.00
C995   C     0.11620   0.50108   0.88844   0.00000  Uiso   1.00
C996   C     0.16665   0.41997   0.74991   0.00000  Uiso   1.00
C997   C     0.21714   0.49892   0.61156   0.00000  Uiso   1.00
C998   C     0.07501   0.54830   0.95155   0.00000  Uiso   1.00
C999   C     0.25847   0.45176   0.54841   0.00000  Uiso   1.00
C1000  C     0.07878   0.52995   0.91018   0.00000  Uiso   1.00
C1001  C     0.25463   0.47010   0.58981   0.00000  Uiso   1.00
C1002  C     0.14322   0.48334   0.91250   0.00000  Uiso   1.00
C1003  C     0.19013   0.51663   0.58748   0.00000  Uiso   1.00
C1004  C     0.13727   0.50038   0.95652   0.00000  Uiso   1.00
C1005  C     0.19619   0.49963   0.54341   0.00000  Uiso   1.00
C1006  C     0.10724   0.53646   0.97213   0.00000  Uiso   1.00
C1007  C     0.14873   0.55376   0.52220   0.00000  Uiso   1.00
C1008  C     0.22626   0.46358   0.52779   0.00000  Uiso   1.00
C1009  C     0.16398   0.48643   0.98310   0.00000  Uiso   1.00
C1010  C     0.16952   0.51359   0.51680   0.00000  Uiso   1.00
C1011  C     0.14995   0.54664   0.61328   0.00000  Uiso   1.00
C1012  C     0.16138   0.58534   0.62791   0.00000  Uiso   1.00
C1013  C     0.12375   0.61268   0.65397   0.00000  Uiso   1.00
C1014  C     0.07452   0.60140   0.66619   0.00000  Uiso   1.00
C1015  C     0.06279   0.56283   0.65220   0.00000  Uiso   1.00
C1016  C     0.10026   0.53541   0.62602   0.00000  Uiso   1.00
C1017  C     0.18324   0.45321   0.88671   0.00000  Uiso   1.00
C1018  C     0.18481   0.44627   0.97769   0.00000  Uiso   1.00
C1019  C     0.23299   0.46431   0.87381   0.00000  Uiso   1.00
C1020  C     0.27031   0.43677   0.84763   0.00000  Uiso   1.00
C1021  C     0.25837   0.39821   0.83380   0.00000  Uiso   1.00
C1022  C     0.20908   0.38707   0.84618   0.00000  Uiso   1.00
C1023  C     0.17160   0.41453   0.87223   0.00000  Uiso   1.00
C1024  C     0.11396   0.56314   0.50432   0.00000  Uiso   1.00
C1025  C     0.21960   0.43691   0.99557   0.00000  Uiso   1.00
C1026  C     0.21149   0.64533   0.73625   0.00000  Uiso   1.00
C1027  C     0.12184   0.35467   0.76376   0.00000  Uiso   1.00
C1028  C     0.21148   0.35470   0.73601   0.00000  Uiso   1.00
H1029  H     0.09528   0.59299   0.51272   0.00000  Uiso   1.00
H1030  H     0.08699   0.37100   0.77482   0.00000  Uiso   1.00
H1031  H     0.24632   0.37107   0.72490   0.00000  Uiso   1.00
H1032  H     0.08701   0.62893   0.77510   0.00000  Uiso   1.00
H1033  H     0.30942   0.44715   0.70580   0.00000  Uiso   1.00
H1034  H     0.02391   0.55285   0.79420   0.00000  Uiso   1.00
H1035  H     0.06034   0.44715   0.70582   0.00000  Uiso   1.00
H1036  H     0.27299   0.55285   0.79419   0.00000  Uiso   1.00
H1037  H     0.19937   0.59420   0.61914   0.00000  Uiso   1.00
H1038  H     0.13277   0.64253   0.66490   0.00000  Uiso   1.00
H1039  H     0.04546   0.62250   0.68664   0.00000  Uiso   1.00
H1040  H     0.23830   0.40708   0.98716   0.00000  Uiso   1.00
H1041  H     0.02464   0.55404   0.66195   0.00000  Uiso   1.00
H1042  H     0.09072   0.50534   0.61599   0.00000  Uiso   1.00
H1043  H     0.24270   0.49437   0.88372   0.00000  Uiso   1.00
H1044  H     0.30851   0.44547   0.83775   0.00000  Uiso   1.00
H1045  H     0.28732   0.37702   0.81335   0.00000  Uiso   1.00
H1046  H     0.19990   0.35723   0.83537   0.00000  Uiso   1.00
H1047  H     0.13356   0.40577   0.88112   0.00000  Uiso   1.00
H1048  H     0.27594   0.45722   0.60798   0.00000  Uiso   1.00
H1049  H     0.05746   0.54285   0.89202   0.00000  Uiso   1.00
H1050  H     0.05029   0.57453   0.96493   0.00000  Uiso   1.00
H1051  H     0.28323   0.42555   0.53503   0.00000  Uiso   1.00
H1052  H     0.15856   0.57840   0.54049   0.00000  Uiso   1.00
H1053  H     0.17499   0.42161   0.95943   0.00000  Uiso   1.00
H1054  H     0.24634   0.62900   0.72518   0.00000  Uiso   1.00
N1055  N     0.04759   0.50001   0.75001   0.00000  Uiso   1.00
N1056  N     0.28574   0.49999   0.74999   0.00000  Uiso   1.00
O1057  O     0.12846   0.56108   0.75000   0.00000  Uiso   1.00
O1058  O     0.20488   0.43892   0.75000   0.00000  Uiso   1.00
O1059  O     0.20490   0.56107   0.75000   0.00000  Uiso   1.00
O1060  O     0.12843   0.43893   0.75000   0.00000  Uiso   1.00
O1061  O     0.10661   0.50001   0.81612   0.00000  Uiso   1.00
O1062  O     0.22672   0.49999   0.68388   0.00000  Uiso   1.00
O1063  O     0.18305   0.50000   0.81612   0.00000  Uiso   1.00
O1064  O     0.15028   0.50000   0.68388   0.00000  Uiso   1.00
Zn1065 Zn    0.11562   0.50001   0.75000   0.00000  Uiso   1.00
Zn1066 Zn    0.21771   0.49999   0.75000   0.00000  Uiso   1.00
C1067  C     0.50001   0.58003   0.75009   0.00000  Uiso   1.00
C1068  C     0.45519   0.64530   0.76400   0.00000  Uiso   1.00
C1069  C     0.49999   0.37583   0.74982   0.00000  Uiso   1.00
C1070  C     0.50001   0.62417   0.75018   0.00000  Uiso   1.00
C1071  C     0.65280   0.47062   0.72546   0.00000  Uiso   1.00
C1072  C     0.34719   0.52938   0.77455   0.00000  Uiso   1.00
C1073  C     0.36740   0.47060   0.72550   0.00000  Uiso   1.00
C1074  C     0.63259   0.52939   0.77450   0.00000  Uiso   1.00
C1075  C     0.46917   0.49881   0.83787   0.00000  Uiso   1.00
C1076  C     0.53083   0.50119   0.66212   0.00000  Uiso   1.00
C1077  C     0.44954   0.50108   0.88844   0.00000  Uiso   1.00
C1078  C     0.49999   0.41997   0.74991   0.00000  Uiso   1.00
C1079  C     0.55047   0.49892   0.61156   0.00000  Uiso   1.00
C1080  C     0.40834   0.54830   0.95155   0.00000  Uiso   1.00
C1081  C     0.59181   0.45176   0.54841   0.00000  Uiso   1.00
C1082  C     0.41211   0.52995   0.91018   0.00000  Uiso   1.00
C1083  C     0.58796   0.47010   0.58981   0.00000  Uiso   1.00
C1084  C     0.47655   0.48334   0.91250   0.00000  Uiso   1.00
C1085  C     0.52346   0.51663   0.58748   0.00000  Uiso   1.00
C1086  C     0.47060   0.50038   0.95652   0.00000  Uiso   1.00
C1087  C     0.52953   0.49963   0.54341   0.00000  Uiso   1.00
C1088  C     0.44058   0.53646   0.97213   0.00000  Uiso   1.00
C1089  C     0.48206   0.55376   0.52220   0.00000  Uiso   1.00
C1090  C     0.55959   0.46358   0.52779   0.00000  Uiso   1.00
C1091  C     0.49732   0.48643   0.98310   0.00000  Uiso   1.00
C1092  C     0.50285   0.51359   0.51680   0.00000  Uiso   1.00
C1093  C     0.48328   0.54664   0.61328   0.00000  Uiso   1.00
C1094  C     0.49471   0.58534   0.62791   0.00000  Uiso   1.00
C1095  C     0.45708   0.61268   0.65397   0.00000  Uiso   1.00
C1096  C     0.40786   0.60140   0.66619   0.00000  Uiso   1.00
C1097  C     0.39612   0.56283   0.65220   0.00000  Uiso   1.00
C1098  C     0.43359   0.53541   0.62602   0.00000  Uiso   1.00
C1099  C     0.51658   0.45321   0.88671   0.00000  Uiso   1.00
C1100  C     0.51814   0.44627   0.97769   0.00000  Uiso   1.00
C1101  C     0.56633   0.46431   0.87381   0.00000  Uiso   1.00
C1102  C     0.60365   0.43677   0.84763   0.00000  Uiso   1.00
C1103  C     0.59171   0.39821   0.83380   0.00000  Uiso   1.00
C1104  C     0.54242   0.38707   0.84618   0.00000  Uiso   1.00
C1105  C     0.50494   0.41453   0.87223   0.00000  Uiso   1.00
C1106  C     0.44729   0.56314   0.50432   0.00000  Uiso   1.00
C1107  C     0.55293   0.43691   0.99557   0.00000  Uiso   1.00
C1108  C     0.54482   0.64533   0.73625   0.00000  Uiso   1.00
C1109  C     0.45518   0.35467   0.76376   0.00000  Uiso   1.00
C1110  C     0.54481   0.35470   0.73601   0.00000  Uiso   1.00
H1111  H     0.42861   0.59299   0.51272   0.00000  Uiso   1.00
H1112  H     0.42033   0.37100   0.77482   0.00000  Uiso   1.00
H1113  H     0.57966   0.37107   0.72490   0.00000  Uiso   1.00
H1114  H     0.42034   0.62893   0.77510   0.00000  Uiso   1.00
H1115  H     0.64275   0.44715   0.70580   0.00000  Uiso   1.00
H1116  H     0.35725   0.55285   0.79420   0.00000  Uiso   1.00
H1117  H     0.39367   0.44715   0.70582   0.00000  Uiso   1.00
H1118  H     0.60633   0.55285   0.79419   0.00000  Uiso   1.00
H1119  H     0.53271   0.59420   0.61914   0.00000  Uiso   1.00
H1120  H     0.46610   0.64253   0.66490   0.00000  Uiso   1.00
H1121  H     0.37879   0.62250   0.68664   0.00000  Uiso   1.00
H1122  H     0.57164   0.40708   0.98716   0.00000  Uiso   1.00
H1123  H     0.35798   0.55404   0.66195   0.00000  Uiso   1.00
H1124  H     0.42405   0.50534   0.61599   0.00000  Uiso   1.00
H1125  H     0.57603   0.49437   0.88372   0.00000  Uiso   1.00
H1126  H     0.64184   0.44547   0.83775   0.00000  Uiso   1.00
H1127  H     0.62065   0.37702   0.81335   0.00000  Uiso   1.00
H1128  H     0.53323   0.35723   0.83537   0.00000  Uiso   1.00
H1129  H     0.46689   0.40577   0.88112   0.00000  Uiso   1.00
H1130  H     0.60927   0.45722   0.60798   0.00000  Uiso   1.00
H1131  H     0.39080   0.54285   0.89202   0.00000  Uiso   1.00
H1132  H     0.38362   0.57453   0.96493   0.00000  Uiso   1.00
H1133  H     0.61656   0.42555   0.53503   0.00000  Uiso   1.00
H1134  H     0.49189   0.57840   0.54049   0.00000  Uiso   1.00
H1135  H     0.50833   0.42161   0.95943   0.00000  Uiso   1.00
H1136  H     0.57967   0.62900   0.72518   0.00000  Uiso   1.00
N1137  N     0.38093   0.50001   0.75001   0.00000  Uiso   1.00
N1138  N     0.61907   0.49999   0.74999   0.00000  Uiso   1.00
O1139  O     0.46179   0.56108   0.75000   0.00000  Uiso   1.00
O1140  O     0.53821   0.43892   0.75000   0.00000  Uiso   1.00
O1141  O     0.53823   0.56107   0.75000   0.00000  Uiso   1.00
O1142  O     0.46177   0.43893   0.75000   0.00000  Uiso   1.00
O1143  O     0.43994   0.50001   0.81612   0.00000  Uiso   1.00
O1144  O     0.56006   0.49999   0.68388   0.00000  Uiso   1.00
O1145  O     0.51639   0.50000   0.81612   0.00000  Uiso   1.00
O1146  O     0.48361   0.50000   0.68388   0.00000  Uiso   1.00
Zn1147 Zn    0.44896   0.50001   0.75000   0.00000  Uiso   1.00
Zn1148 Zn    0.55104   0.49999   0.75000   0.00000  Uiso   1.00
C1149  C     0.83334   0.58003   0.75009   0.00000  Uiso   1.00
C1150  C     0.78852   0.64530   0.76400   0.00000  Uiso   1.00
C1151  C     0.83332   0.37583   0.74982   0.00000  Uiso   1.00
C1152  C     0.83335   0.62417   0.75018   0.00000  Uiso   1.00
C1153  C     0.98614   0.47062   0.72546   0.00000  Uiso   1.00
C1154  C     0.68053   0.52938   0.77455   0.00000  Uiso   1.00
C1155  C     0.70074   0.47060   0.72550   0.00000  Uiso   1.00
C1156  C     0.96593   0.52939   0.77450   0.00000  Uiso   1.00
C1157  C     0.80250   0.49881   0.83787   0.00000  Uiso   1.00
C1158  C     0.86416   0.50119   0.66212   0.00000  Uiso   1.00
C1159  C     0.78287   0.50108   0.88844   0.00000  Uiso   1.00
C1160  C     0.83332   0.41997   0.74991   0.00000  Uiso   1.00
C1161  C     0.88381   0.49892   0.61156   0.00000  Uiso   1.00
C1162  C     0.74167   0.54830   0.95155   0.00000  Uiso   1.00
C1163  C     0.92514   0.45176   0.54841   0.00000  Uiso   1.00
C1164  C     0.74544   0.52995   0.91018   0.00000  Uiso   1.00
C1165  C     0.92130   0.47010   0.58981   0.00000  Uiso   1.00
C1166  C     0.80988   0.48334   0.91250   0.00000  Uiso   1.00
C1167  C     0.85679   0.51663   0.58748   0.00000  Uiso   1.00
C1168  C     0.80393   0.50038   0.95652   0.00000  Uiso   1.00
C1169  C     0.86286   0.49963   0.54341   0.00000  Uiso   1.00
C1170  C     0.77391   0.53646   0.97213   0.00000  Uiso   1.00
C1171  C     0.81540   0.55376   0.52220   0.00000  Uiso   1.00
C1172  C     0.89293   0.46358   0.52779   0.00000  Uiso   1.00
C1173  C     0.83065   0.48643   0.98310   0.00000  Uiso   1.00
C1174  C     0.83618   0.51359   0.51680   0.00000  Uiso   1.00
C1175  C     0.81662   0.54664   0.61328   0.00000  Uiso   1.00
C1176  C     0.82805   0.58534   0.62791   0.00000  Uiso   1.00
C1177  C     0.79042   0.61268   0.65397   0.00000  Uiso   1.00
C1178  C     0.74119   0.60140   0.66619   0.00000  Uiso   1.00
C1179  C     0.72946   0.56283   0.65220   0.00000  Uiso   1.00
C1180  C     0.76693   0.53541   0.62602   0.00000  Uiso   1.00
C1181  C     0.84991   0.45321   0.88671   0.00000  Uiso   1.00
C1182  C     0.85148   0.44627   0.97769   0.00000  Uiso   1.00
C1183  C     0.89966   0.46431   0.87381   0.00000  Uiso   1.00
C1184  C     0.93698   0.43677   0.84763   0.00000  Uiso   1.00
C1185  C     0.92504   0.39821   0.83380   0.00000  Uiso   1.00
C1186  C     0.87575   0.38707   0.84618   0.00000  Uiso   1.00
C1187  C     0.83827   0.41453   0.87223   0.00000  Uiso   1.00
C1188  C     0.78062   0.56314   0.50432   0.00000  Uiso   1.00
C1189  C     0.88626   0.43691   0.99557   0.00000  Uiso   1.00
C1190  C     0.87816   0.64533   0.73625   0.00000  Uiso   1.00
C1191  C     0.78851   0.35467   0.76376   0.00000  Uiso   1.00
C1192  C     0.87815   0.35470   0.73601   0.00000  Uiso   1.00
H1193  H     0.76195   0.59299   0.51272   0.00000  Uiso   1.00
H1194  H     0.75366   0.37100   0.77482   0.00000  Uiso   1.00
H1195  H     0.91299   0.37107   0.72490   0.00000  Uiso   1.00
H1196  H     0.75368   0.62893   0.77510   0.00000  Uiso   1.00
H1197  H     0.97609   0.44715   0.70580   0.00000  Uiso   1.00
H1198  H     0.69058   0.55285   0.79420   0.00000  Uiso   1.00
H1199  H     0.72700   0.44715   0.70582   0.00000  Uiso   1.00
H1200  H     0.93966   0.55285   0.79419   0.00000  Uiso   1.00
H1201  H     0.86604   0.59420   0.61914   0.00000  Uiso   1.00
H1202  H     0.79944   0.64253   0.66490   0.00000  Uiso   1.00
H1203  H     0.71212   0.62250   0.68664   0.00000  Uiso   1.00
H1204  H     0.90497   0.40708   0.98716   0.00000  Uiso   1.00
H1205  H     0.69131   0.55404   0.66195   0.00000  Uiso   1.00
H1206  H     0.75738   0.50534   0.61599   0.00000  Uiso   1.00
H1207  H     0.90937   0.49437   0.88372   0.00000  Uiso   1.00
H1208  H     0.97517   0.44547   0.83775   0.00000  Uiso   1.00
H1209  H     0.95399   0.37702   0.81335   0.00000  Uiso   1.00
H1210  H     0.86656   0.35723   0.83537   0.00000  Uiso   1.00
H1211  H     0.80023   0.40577   0.88112   0.00000  Uiso   1.00
H1212  H     0.94261   0.45722   0.60798   0.00000  Uiso   1.00
H1213  H     0.72413   0.54285   0.89202   0.00000  Uiso   1.00
H1214  H     0.71695   0.57453   0.96493   0.00000  Uiso   1.00
H1215  H     0.94990   0.42555   0.53503   0.00000  Uiso   1.00
H1216  H     0.82522   0.57840   0.54049   0.00000  Uiso   1.00
H1217  H     0.84166   0.42161   0.95943   0.00000  Uiso   1.00
H1218  H     0.91301   0.62900   0.72518   0.00000  Uiso   1.00
N1219  N     0.71426   0.50001   0.75001   0.00000  Uiso   1.00
N1220  N     0.95241   0.49999   0.74999   0.00000  Uiso   1.00
O1221  O     0.79512   0.56108   0.75000   0.00000  Uiso   1.00
O1222  O     0.87154   0.43892   0.75000   0.00000  Uiso   1.00
O1223  O     0.87157   0.56107   0.75000   0.00000  Uiso   1.00
O1224  O     0.79510   0.43893   0.75000   0.00000  Uiso   1.00
O1225  O     0.77328   0.50001   0.81612   0.00000  Uiso   1.00
O1226  O     0.89339   0.49999   0.68388   0.00000  Uiso   1.00
O1227  O     0.84972   0.50000   0.81612   0.00000  Uiso   1.00
O1228  O     0.81695   0.50000   0.68388   0.00000  Uiso   1.00
Zn1229 Zn    0.78229   0.50001   0.75000   0.00000  Uiso   1.00
Zn1230 Zn    0.88438   0.49999   0.75000   0.00000  Uiso   1.00
C1231  C     0.16668   0.91336   0.75009   0.00000  Uiso   1.00
C1232  C     0.12185   0.97863   0.76400   0.00000  Uiso   1.00
C1233  C     0.16665   0.70917   0.74982   0.00000  Uiso   1.00
C1234  C     0.16668   0.95750   0.75018   0.00000  Uiso   1.00
C1235  C     0.31947   0.80395   0.72546   0.00000  Uiso   1.00
C1236  C     0.01386   0.86271   0.77455   0.00000  Uiso   1.00
C1237  C     0.03407   0.80394   0.72550   0.00000  Uiso   1.00
C1238  C     0.29926   0.86273   0.77450   0.00000  Uiso   1.00
C1239  C     0.13584   0.83214   0.83787   0.00000  Uiso   1.00
C1240  C     0.19750   0.83453   0.66212   0.00000  Uiso   1.00
C1241  C     0.11620   0.83442   0.88844   0.00000  Uiso   1.00
C1242  C     0.16665   0.75330   0.74991   0.00000  Uiso   1.00
C1243  C     0.21714   0.83225   0.61156   0.00000  Uiso   1.00
C1244  C     0.07501   0.88164   0.95155   0.00000  Uiso   1.00
C1245  C     0.25847   0.78509   0.54841   0.00000  Uiso   1.00
C1246  C     0.07878   0.86328   0.91018   0.00000  Uiso   1.00
C1247  C     0.25463   0.80343   0.58981   0.00000  Uiso   1.00
C1248  C     0.14322   0.81667   0.91250   0.00000  Uiso   1.00
C1249  C     0.19013   0.84997   0.58748   0.00000  Uiso   1.00
C1250  C     0.13727   0.83372   0.95652   0.00000  Uiso   1.00
C1251  C     0.19619   0.83297   0.54341   0.00000  Uiso   1.00
C1252  C     0.10724   0.86980   0.97213   0.00000  Uiso   1.00
C1253  C     0.14873   0.88709   0.52220   0.00000  Uiso   1.00
C1254  C     0.22626   0.79692   0.52779   0.00000  Uiso   1.00
C1255  C     0.16398   0.81976   0.98310   0.00000  Uiso   1.00
C1256  C     0.16952   0.84693   0.51680   0.00000  Uiso   1.00
C1257  C     0.14995   0.87998   0.61328   0.00000  Uiso   1.00
C1258  C     0.16138   0.91867   0.62791   0.00000  Uiso   1.00
C1259  C     0.12375   0.94601   0.65397   0.00000  Uiso   1.00
C1260  C     0.07452   0.93474   0.66619   0.00000  Uiso   1.00
C1261  C     0.06279   0.89616   0.65220   0.00000  Uiso   1.00
C1262  C     0.10026   0.86875   0.62602   0.00000  Uiso   1.00
C1263  C     0.18324   0.78655   0.88671   0.00000  Uiso   1.00
C1264  C     0.18481   0.77961   0.97769   0.00000  Uiso   1.00
C1265  C     0.23299   0.79764   0.87381   0.00000  Uiso   1.00
C1266  C     0.27031   0.77011   0.84763   0.00000  Uiso   1.00
C1267  C     0.25837   0.73155   0.83380   0.00000  Uiso   1.00
C1268  C     0.20908   0.72041   0.84618   0.00000  Uiso   1.00
C1269  C     0.17160   0.74787   0.87223   0.00000  Uiso   1.00
C1270  C     0.11396   0.89647   0.50432   0.00000  Uiso   1.00
C1271  C     0.21960   0.77025   0.99557   0.00000  Uiso   1.00
C1272  C     0.21149   0.97867   0.73625   0.00000  Uiso   1.00
C1273  C     0.12184   0.68800   0.76376   0.00000  Uiso   1.00
C1274  C     0.21148   0.68803   0.73601   0.00000  Uiso   1.00
H1275  H     0.09528   0.92632   0.51272   0.00000  Uiso   1.00
H1276  H     0.08699   0.70434   0.77482   0.00000  Uiso   1.00
H1277  H     0.24632   0.70440   0.72490   0.00000  Uiso   1.00
H1278  H     0.08701   0.96226   0.77510   0.00000  Uiso   1.00
H1279  H     0.30942   0.78048   0.70580   0.00000  Uiso   1.00
H1280  H     0.02391   0.88619   0.79420   0.00000  Uiso   1.00
H1281  H     0.06034   0.78048   0.70582   0.00000  Uiso   1.00
H1282  H     0.27299   0.88618   0.79419   0.00000  Uiso   1.00
H1283  H     0.19937   0.92754   0.61914   0.00000  Uiso   1.00
H1284  H     0.13277   0.97586   0.66490   0.00000  Uiso   1.00
H1285  H     0.04546   0.95584   0.68664   0.00000  Uiso   1.00
H1286  H     0.23830   0.74041   0.98716   0.00000  Uiso   1.00
H1287  H     0.02464   0.88737   0.66195   0.00000  Uiso   1.00
H1288  H     0.09072   0.83867   0.61599   0.00000  Uiso   1.00
H1289  H     0.24270   0.82771   0.88372   0.00000  Uiso   1.00
H1290  H     0.30851   0.77880   0.83775   0.00000  Uiso   1.00
H1291  H     0.28732   0.71035   0.81335   0.00000  Uiso   1.00
H1292  H     0.19990   0.69057   0.83537   0.00000  Uiso   1.00
H1293  H     0.13356   0.73910   0.88112   0.00000  Uiso   1.00
H1294  H     0.27594   0.79055   0.60798   0.00000  Uiso   1.00
H1295  H     0.05746   0.87618   0.89202   0.00000  Uiso   1.00
H1296  H     0.05029   0.90787   0.96493   0.00000  Uiso   1.00
H1297  H     0.28323   0.75888   0.53503   0.00000  Uiso   1.00
H1298  H     0.15856   0.91173   0.54049   0.00000  Uiso   1.00
H1299  H     0.17499   0.75494   0.95943   0.00000  Uiso   1.00
H1300  H     0.24634   0.96233   0.72518   0.00000  Uiso   1.00
N1301  N     0.04759   0.83334   0.75001   0.00000  Uiso   1.00
N1302  N     0.28574   0.83332   0.74999   0.00000  Uiso   1.00
O1303  O     0.12846   0.89442   0.75000   0.00000  Uiso   1.00
O1304  O     0.20488   0.77225   0.75000   0.00000  Uiso   1.00
O1305  O     0.20490   0.89441   0.75000   0.00000  Uiso   1.00
O1306  O     0.12843   0.77226   0.75000   0.00000  Uiso   1.00
O1307  O     0.10661   0.83334   0.81612   0.00000  Uiso   1.00
O1308  O     0.22672   0.83333   0.68388   0.00000  Uiso   1.00
O1309  O     0.18305   0.83333   0.81612   0.00000  Uiso   1.00
O1310  O     0.15028   0.83334   0.68388   0.00000  Uiso   1.00
Zn1311 Zn    0.11562   0.83334   0.75000   0.00000  Uiso   1.00
Zn1312 Zn    0.21771   0.83333   0.75000   0.00000  Uiso   1.00
C1313  C     0.50001   0.91336   0.75009   0.00000  Uiso   1.00
C1314  C     0.45519   0.97863   0.76400   0.00000  Uiso   1.00
C1315  C     0.49999   0.70917   0.74982   0.00000  Uiso   1.00
C1316  C     0.50001   0.95750   0.75018   0.00000  Uiso   1.00
C1317  C     0.65280   0.80395   0.72546   0.00000  Uiso   1.00
C1318  C     0.34719   0.86271   0.77455   0.00000  Uiso   1.00
C1319  C     0.36740   0.80394   0.72550   0.00000  Uiso   1.00
C1320  C     0.63259   0.86273   0.77450   0.00000  Uiso   1.00
C1321  C     0.46917   0.83214   0.83787   0.00000  Uiso   1.00
C1322  C     0.53083   0.83453   0.66212   0.00000  Uiso   1.00
C1323  C     0.44954   0.83442   0.88844   0.00000  Uiso   1.00
C1324  C     0.49999   0.75330   0.74991   0.00000  Uiso   1.00
C1325  C     0.55047   0.83225   0.61156   0.00000  Uiso   1.00
C1326  C     0.40834   0.88164   0.95155   0.00000  Uiso   1.00
C1327  C     0.59181   0.78509   0.54841   0.00000  Uiso   1.00
C1328  C     0.41211   0.86328   0.91018   0.00000  Uiso   1.00
C1329  C     0.58796   0.80343   0.58981   0.00000  Uiso   1.00
C1330  C     0.47655   0.81667   0.91250   0.00000  Uiso   1.00
C1331  C     0.52346   0.84997   0.58748   0.00000  Uiso   1.00
C1332  C     0.47060   0.83372   0.95652   0.00000  Uiso   1.00
C1333  C     0.52953   0.83297   0.54341   0.00000  Uiso   1.00
C1334  C     0.44058   0.86980   0.97213   0.00000  Uiso   1.00
C1335  C     0.48206   0.88709   0.52220   0.00000  Uiso   1.00
C1336  C     0.55959   0.79692   0.52779   0.00000  Uiso   1.00
C1337  C     0.49732   0.81976   0.98310   0.00000  Uiso   1.00
C1338  C     0.50285   0.84693   0.51680   0.00000  Uiso   1.00
C1339  C     0.48328   0.87998   0.61328   0.00000  Uiso   1.00
C1340  C     0.49471   0.91867   0.62791   0.00000  Uiso   1.00
C1341  C     0.45708   0.94601   0.65397   0.00000  Uiso   1.00
C1342  C     0.40786   0.93474   0.66619   0.00000  Uiso   1.00
C1343  C     0.39612   0.89616   0.65220   0.00000  Uiso   1.00
C1344  C     0.43359   0.86875   0.62602   0.00000  Uiso   1.00
C1345  C     0.51658   0.78655   0.88671   0.00000  Uiso   1.00
C1346  C     0.51814   0.77961   0.97769   0.00000  Uiso   1.00
C1347  C     0.56633   0.79764   0.87381   0.00000  Uiso   1.00
C1348  C     0.60365   0.77011   0.84763   0.00000  Uiso   1.00
C1349  C     0.59171   0.73155   0.83380   0.00000  Uiso   1.00
C1350  C     0.54242   0.72041   0.84618   0.00000  Uiso   1.00
C1351  C     0.50494   0.74787   0.87223   0.00000  Uiso   1.00
C1352  C     0.44729   0.89647   0.50432   0.00000  Uiso   1.00
C1353  C     0.55293   0.77025   0.99557   0.00000  Uiso   1.00
C1354  C     0.54482   0.97867   0.73625   0.00000  Uiso   1.00
C1355  C     0.45518   0.68800   0.76376   0.00000  Uiso   1.00
C1356  C     0.54481   0.68803   0.73601   0.00000  Uiso   1.00
H1357  H     0.42861   0.92632   0.51272   0.00000  Uiso   1.00
H1358  H     0.42033   0.70434   0.77482   0.00000  Uiso   1.00
H1359  H     0.57966   0.70440   0.72490   0.00000  Uiso   1.00
H1360  H     0.42034   0.96226   0.77510   0.00000  Uiso   1.00
H1361  H     0.64275   0.78048   0.70580   0.00000  Uiso   1.00
H1362  H     0.35725   0.88619   0.79420   0.00000  Uiso   1.00
H1363  H     0.39367   0.78048   0.70582   0.00000  Uiso   1.00
H1364  H     0.60633   0.88618   0.79419   0.00000  Uiso   1.00
H1365  H     0.53271   0.92754   0.61914   0.00000  Uiso   1.00
H1366  H     0.46610   0.97586   0.66490   0.00000  Uiso   1.00
H1367  H     0.37879   0.95584   0.68664   0.00000  Uiso   1.00
H1368  H     0.57164   0.74041   0.98716   0.00000  Uiso   1.00
H1369  H     0.35798   0.88737   0.66195   0.00000  Uiso   1.00
H1370  H     0.42405   0.83867   0.61599   0.00000  Uiso   1.00
H1371  H     0.57603   0.82771   0.88372   0.00000  Uiso   1.00
H1372  H     0.64184   0.77880   0.83775   0.00000  Uiso   1.00
H1373  H     0.62065   0.71035   0.81335   0.00000  Uiso   1.00
H1374  H     0.53323   0.69057   0.83537   0.00000  Uiso   1.00
H1375  H     0.46689   0.73910   0.88112   0.00000  Uiso   1.00
H1376  H     0.60927   0.79055   0.60798   0.00000  Uiso   1.00
H1377  H     0.39080   0.87618   0.89202   0.00000  Uiso   1.00
H1378  H     0.38362   0.90787   0.96493   0.00000  Uiso   1.00
H1379  H     0.61656   0.75888   0.53503   0.00000  Uiso   1.00
H1380  H     0.49189   0.91173   0.54049   0.00000  Uiso   1.00
H1381  H     0.50833   0.75494   0.95943   0.00000  Uiso   1.00
H1382  H     0.57967   0.96233   0.72518   0.00000  Uiso   1.00
N1383  N     0.38093   0.83334   0.75001   0.00000  Uiso   1.00
N1384  N     0.61907   0.83332   0.74999   0.00000  Uiso   1.00
O1385  O     0.46179   0.89442   0.75000   0.00000  Uiso   1.00
O1386  O     0.53821   0.77225   0.75000   0.00000  Uiso   1.00
O1387  O     0.53823   0.89441   0.75000   0.00000  Uiso   1.00
O1388  O     0.46177   0.77226   0.75000   0.00000  Uiso   1.00
O1389  O     0.43994   0.83334   0.81612   0.00000  Uiso   1.00
O1390  O     0.56006   0.83333   0.68388   0.00000  Uiso   1.00
O1391  O     0.51639   0.83333   0.81612   0.00000  Uiso   1.00
O1392  O     0.48361   0.83334   0.68388   0.00000  Uiso   1.00
Zn1393 Zn    0.44896   0.83334   0.75000   0.00000  Uiso   1.00
Zn1394 Zn    0.55104   0.83333   0.75000   0.00000  Uiso   1.00
C1395  C     0.83334   0.91336   0.75009   0.00000  Uiso   1.00
C1396  C     0.78852   0.97863   0.76400   0.00000  Uiso   1.00
C1397  C     0.83332   0.70917   0.74982   0.00000  Uiso   1.00
C1398  C     0.83335   0.95750   0.75018   0.00000  Uiso   1.00
C1399  C     0.98614   0.80395   0.72546   0.00000  Uiso   1.00
C1400  C     0.68053   0.86271   0.77455   0.00000  Uiso   1.00
C1401  C     0.70074   0.80394   0.72550   0.00000  Uiso   1.00
C1402  C     0.96593   0.86273   0.77450   0.00000  Uiso   1.00
C1403  C     0.80250   0.83214   0.83787   0.00000  Uiso   1.00
C1404  C     0.86416   0.83453   0.66212   0.00000  Uiso   1.00
C1405  C     0.78287   0.83442   0.88844   0.00000  Uiso   1.00
C1406  C     0.83332   0.75330   0.74991   0.00000  Uiso   1.00
C1407  C     0.88381   0.83225   0.61156   0.00000  Uiso   1.00
C1408  C     0.74167   0.88164   0.95155   0.00000  Uiso   1.00
C1409  C     0.92514   0.78509   0.54841   0.00000  Uiso   1.00
C1410  C     0.74544   0.86328   0.91018   0.00000  Uiso   1.00
C1411  C     0.92130   0.80343   0.58981   0.00000  Uiso   1.00
C1412  C     0.80988   0.81667   0.91250   0.00000  Uiso   1.00
C1413  C     0.85679   0.84997   0.58748   0.00000  Uiso   1.00
C1414  C     0.80393   0.83372   0.95652   0.00000  Uiso   1.00
C1415  C     0.86286   0.83297   0.54341   0.00000  Uiso   1.00
C1416  C     0.77391   0.86980   0.97213   0.00000  Uiso   1.00
C1417  C     0.81540   0.88709   0.52220   0.00000  Uiso   1.00
C1418  C     0.89293   0.79692   0.52779   0.00000  Uiso   1.00
C1419  C     0.83065   0.81976   0.98310   0.00000  Uiso   1.00
C1420  C     0.83618   0.84693   0.51680   0.00000  Uiso   1.00
C1421  C     0.81662   0.87998   0.61328   0.00000  Uiso   1.00
C1422  C     0.82805   0.91867   0.62791   0.00000  Uiso   1.00
C1423  C     0.79042   0.94601   0.65397   0.00000  Uiso   1.00
C1424  C     0.74119   0.93474   0.66619   0.00000  Uiso   1.00
C1425  C     0.72946   0.89616   0.65220   0.00000  Uiso   1.00
C1426  C     0.76693   0.86875   0.62602   0.00000  Uiso   1.00
C1427  C     0.84991   0.78655   0.88671   0.00000  Uiso   1.00
C1428  C     0.85148   0.77961   0.97769   0.00000  Uiso   1.00
C1429  C     0.89966   0.79764   0.87381   0.00000  Uiso   1.00
C1430  C     0.93698   0.77011   0.84763   0.00000  Uiso   1.00
C1431  C     0.92504   0.73155   0.83380   0.00000  Uiso   1.00
C1432  C     0.87575   0.72041   0.84618   0.00000  Uiso   1.00
C1433  C     0.83827   0.74787   0.87223   0.00000  Uiso   1.00
C1434  C     0.78062   0.89647   0.50432   0.00000  Uiso   1.00
C1435  C     0.88626   0.77025   0.99557   0.00000  Uiso   1.00
C1436  C     0.87816   0.97867   0.73625   0.00000  Uiso   1.00
C1437  C     0.78851   0.68800   0.76376   0.00000  Uiso   1.00
C1438  C     0.87815   0.68803   0.73601   0.00000  Uiso   1.00
H1439  H     0.76195   0.92632   0.51272   0.00000  Uiso   1.00
H1440  H     0.75366   0.70434   0.77482   0.00000  Uiso   1.00
H1441  H     0.91299   0.70440   0.72490   0.00000  Uiso   1.00
H1442  H     0.75368   0.96226   0.77510   0.00000  Uiso   1.00
H1443  H     0.97609   0.78048   0.70580   0.00000  Uiso   1.00
H1444  H     0.69058   0.88619   0.79420   0.00000  Uiso   1.00
H1445  H     0.72700   0.78048   0.70582   0.00000  Uiso   1.00
H1446  H     0.93966   0.88618   0.79419   0.00000  Uiso   1.00
H1447  H     0.86604   0.92754   0.61914   0.00000  Uiso   1.00
H1448  H     0.79944   0.97586   0.66490   0.00000  Uiso   1.00
H1449  H     0.71212   0.95584   0.68664   0.00000  Uiso   1.00
H1450  H     0.90497   0.74041   0.98716   0.00000  Uiso   1.00
H1451  H     0.69131   0.88737   0.66195   0.00000  Uiso   1.00
H1452  H     0.75738   0.83867   0.61599   0.00000  Uiso   1.00
H1453  H     0.90937   0.82771   0.88372   0.00000  Uiso   1.00
H1454  H     0.97517   0.77880   0.83775   0.00000  Uiso   1.00
H1455  H     0.95399   0.71035   0.81335   0.00000  Uiso   1.00
H1456  H     0.86656   0.69057   0.83537   0.00000  Uiso   1.00
H1457  H     0.80023   0.73910   0.88112   0.00000  Uiso   1.00
H1458  H     0.94261   0.79055   0.60798   0.00000  Uiso   1.00
H1459  H     0.72413   0.87618   0.89202   0.00000  Uiso   1.00
H1460  H     0.71695   0.90787   0.96493   0.00000  Uiso   1.00
H1461  H     0.94990   0.75888   0.53503   0.00000  Uiso   1.00
H1462  H     0.82522   0.91173   0.54049   0.00000  Uiso   1.00
H1463  H     0.84166   0.75494   0.95943   0.00000  Uiso   1.00
H1464  H     0.91301   0.96233   0.72518   0.00000  Uiso   1.00
N1465  N     0.71426   0.83334   0.75001   0.00000  Uiso   1.00
N1466  N     0.95241   0.83332   0.74999   0.00000  Uiso   1.00
O1467  O     0.79512   0.89442   0.75000   0.00000  Uiso   1.00
O1468  O     0.87154   0.77225   0.75000   0.00000  Uiso   1.00
O1469  O     0.87157   0.89441   0.75000   0.00000  Uiso   1.00
O1470  O     0.79510   0.77226   0.75000   0.00000  Uiso   1.00
O1471  O     0.77328   0.83334   0.81612   0.00000  Uiso   1.00
O1472  O     0.89339   0.83333   0.68388   0.00000  Uiso   1.00
O1473  O     0.84972   0.83333   0.81612   0.00000  Uiso   1.00
O1474  O     0.81695   0.83334   0.68388   0.00000  Uiso   1.00
Zn1475 Zn    0.78229   0.83334   0.75000   0.00000  Uiso   1.00
Zn1476 Zn    0.88438   0.83333   0.75000   0.00000  Uiso   1.00
loop_
_geom_bond_atom_site_label_1
_geom_bond_atom_site_label_2
_geom_bond_distance
_geom_bond_site_symmetry_2
_ccdc_geom_bond_type
C1     O75     1.282   .     A
C1     C4      1.416   .     S
C1     O73     1.282   .     A
C2     H48     1.084   .     S
C2     C4      1.397   .     A
C2     C289    1.370   .     S
C3     C43     1.396   .     A
C3     C12     1.416   .     S
C3     C44     1.397   .     A
C4     C42     1.396   .     A
C5     N72     1.366   .     A
C5     H49     1.082   .     S
C5     C89     1.416   .     S
C6     N71     1.366   .     A
C6     H50     1.082   .     S
C6     C172    1.416   1_455 S
C7     N71     1.367   .     A
C7     H51     1.082   .     S
C7     C169    1.416   1_455 S
C8     H52     1.082   .     S
C8     N72     1.367   .     A
C8     C88     1.416   .     S
C9     O79     1.290   .     A
C9     O77     1.292   .     A
C9     C11     1.458   .     S
C10    O78     1.292   .     A
C10    O80     1.291   .     A
C10    C13     1.459   .     S
C11    C18     1.416   .     A
C11    C16     1.396   .     A
C12    O74     1.282   .     A
C12    O76     1.282   .     A
C13    C19     1.416   .     A
C13    C17     1.397   .     A
C14    H66     1.084   .     S
C14    C16     1.384   .     A
C14    C22     1.397   .     A
C15    H67     1.084   .     S
C15    C24     1.397   .     A
C15    C17     1.384   .     A
C16    H65     1.084   .     S
C17    H64     1.084   .     S
C18    C20     1.425   .     A
C18    C33     1.494   .     S
C19    C21     1.425   .     A
C19    C27     1.494   .     S
C20    C22     1.422   .     A
C20    C25     1.427   .     A
C21    C26     1.426   .     A
C21    C24     1.422   .     A
C22    C778    1.390   .     S
C23    C40     1.383   .     A
C23    C26     1.409   .     A
C23    H68     1.077   .     S
C24    C779    1.390   1_554 S
C25    C34     1.409   .     A
C25    C764    1.422   .     S
C26    C763    1.422   1_554 S
C27    C32     1.408   .     A
C27    C28     1.406   .     A
C28    C29     1.398   .     A
C28    H53     1.083   .     S
C29    C30     1.398   .     A
C29    H54     1.082   .     S
C30    C31     1.398   .     A
C30    H55     1.082   .     S
C31    C32     1.398   .     A
C31    H57     1.082   .     S
C32    H58     1.083   .     S
C33    C39     1.406   .     A
C33    C35     1.408   .     A
C34    C41     1.383   .     A
C34    H69     1.077   .     S
C35    C36     1.398   .     A
C35    H59     1.083   .     S
C36    C37     1.398   .     A
C36    H60     1.082   .     S
C37    C38     1.398   .     A
C37    H61     1.082   .     S
C38    C39     1.398   .     A
C38    H62     1.082   .     S
C39    H63     1.083   .     S
C40    H45     1.084   .     S
C40    C760    1.390   1_554 S
C41    H56     1.084   .     S
C41    C762    1.390   .     S
C42    H70     1.084   .     S
C42    C290    1.370   .     S
C43    H46     1.084   .     S
C43    C494    1.370   1_545 S
C44    H47     1.084   .     S
C44    C534    1.370   1_545 S
N71    Zn81    2.009   .     S
N72    Zn82    2.009   .     S
O73    Zn81    1.995   .     S
O74    Zn82    1.995   .     S
O75    Zn82    1.996   .     S
O76    Zn81    1.996   .     S
O77    Zn81    1.981   .     S
O78    Zn82    1.981   .     S
O79    Zn82    1.916   .     S
O80    Zn81    1.916   .     S
C83    O157    1.282   .     A
C83    C86     1.416   .     S
C83    O155    1.282   .     A
C84    H130    1.084   .     S
C84    C86     1.397   .     A
C84    C371    1.370   .     S
C85    C125    1.396   .     A
C85    C94     1.416   .     S
C85    C126    1.397   .     A
C86    C124    1.396   .     A
C87    N154    1.366   .     A
C87    H131    1.082   .     S
C87    C171    1.416   .     S
C88    N153    1.366   .     A
C88    H132    1.082   .     S
C89    N153    1.367   .     A
C89    H133    1.082   .     S
C90    H134    1.082   .     S
C90    N154    1.367   .     A
C90    C170    1.416   .     S
C91    O161    1.290   .     A
C91    O159    1.292   .     A
C91    C93     1.458   .     S
C92    O160    1.292   .     A
C92    O162    1.291   .     A
C92    C95     1.459   .     S
C93    C100    1.416   .     A
C93    C98     1.396   .     A
C94    O156    1.282   .     A
C94    O158    1.282   .     A
C95    C101    1.416   .     A
C95    C99     1.397   .     A
C96    H148    1.084   .     S
C96    C98     1.384   .     A
C96    C104    1.397   .     A
C97    H149    1.084   .     S
C97    C106    1.397   .     A
C97    C99     1.384   .     A
C98    H147    1.084   .     S
C99    H146    1.084   .     S
C100   C102    1.425   .     A
C100   C115    1.494   .     S
C101   C103    1.425   .     A
C101   C109    1.494   .     S
C102   C104    1.422   .     A
C102   C107    1.427   .     A
C103   C108    1.426   .     A
C103   C106    1.422   .     A
C104   C860    1.390   .     S
C105   C122    1.383   .     A
C105   C108    1.409   .     A
C105   H150    1.077   .     S
C106   C861    1.390   1_554 S
C107   C116    1.409   .     A
C107   C846    1.422   .     S
C108   C845    1.422   1_554 S
C109   C114    1.408   .     A
C109   C110    1.406   .     A
C110   C111    1.398   .     A
C110   H135    1.083   .     S
C111   C112    1.398   .     A
C111   H136    1.082   .     S
C112   C113    1.398   .     A
C112   H137    1.082   .     S
C113   C114    1.398   .     A
C113   H139    1.082   .     S
C114   H140    1.083   .     S
C115   C121    1.406   .     A
C115   C117    1.408   .     A
C116   C123    1.383   .     A
C116   H151    1.077   .     S
C117   C118    1.398   .     A
C117   H141    1.083   .     S
C118   C119    1.398   .     A
C118   H142    1.082   .     S
C119   C120    1.398   .     A
C119   H143    1.082   .     S
C120   C121    1.398   .     A
C120   H144    1.082   .     S
C121   H145    1.083   .     S
C122   H127    1.084   .     S
C122   C842    1.390   1_554 S
C123   H138    1.084   .     S
C123   C844    1.390   .     S
C124   H152    1.084   .     S
C124   C372    1.370   .     S
C125   H128    1.084   .     S
C125   C576    1.370   1_545 S
C126   H129    1.084   .     S
C126   C616    1.370   1_545 S
N153   Zn163   2.009   .     S
N154   Zn164   2.009   .     S
O155   Zn163   1.995   .     S
O156   Zn164   1.995   .     S
O157   Zn164   1.996   .     S
O158   Zn163   1.996   .     S
O159   Zn163   1.981   .     S
O160   Zn164   1.981   .     S
O161   Zn164   1.916   .     S
O162   Zn163   1.916   .     S
C165   O239    1.282   .     A
C165   C168    1.416   .     S
C165   O237    1.282   .     A
C166   H212    1.084   .     S
C166   C168    1.397   .     A
C166   C453    1.370   .     S
C167   C207    1.396   .     A
C167   C176    1.416   .     S
C167   C208    1.397   .     A
C168   C206    1.396   .     A
C169   N236    1.366   .     A
C169   H213    1.082   .     S
C169   C7      1.416   1_655 S
C170   N235    1.366   .     A
C170   H214    1.082   .     S
C171   N235    1.367   .     A
C171   H215    1.082   .     S
C172   H216    1.082   .     S
C172   N236    1.367   .     A
C172   C6      1.416   1_655 S
C173   O243    1.290   .     A
C173   O241    1.292   .     A
C173   C175    1.458   .     S
C174   O242    1.292   .     A
C174   O244    1.291   .     A
C174   C177    1.459   .     S
C175   C182    1.416   .     A
C175   C180    1.396   .     A
C176   O238    1.282   .     A
C176   O240    1.282   .     A
C177   C183    1.416   .     A
C177   C181    1.397   .     A
C178   H230    1.084   .     S
C178   C180    1.384   .     A
C178   C186    1.397   .     A
C179   H231    1.084   .     S
C179   C188    1.397   .     A
C179   C181    1.384   .     A
C180   H229    1.084   .     S
C181   H228    1.084   .     S
C182   C184    1.425   .     A
C182   C197    1.494   .     S
C183   C185    1.425   .     A
C183   C191    1.494   .     S
C184   C186    1.422   .     A
C184   C189    1.427   .     A
C185   C190    1.426   .     A
C185   C188    1.422   .     A
C186   C942    1.390   .     S
C187   C204    1.383   .     A
C187   C190    1.409   .     A
C187   H232    1.077   .     S
C188   C943    1.390   1_554 S
C189   C198    1.409   .     A
C189   C928    1.422   .     S
C190   C927    1.422   1_554 S
C191   C196    1.408   .     A
C191   C192    1.406   .     A
C192   C193    1.398   .     A
C192   H217    1.083   .     S
C193   C194    1.398   .     A
C193   H218    1.082   .     S
C194   C195    1.398   .     A
C194   H219    1.082   .     S
C195   C196    1.398   .     A
C195   H221    1.082   .     S
C196   H222    1.083   .     S
C197   C203    1.406   .     A
C197   C199    1.408   .     A
C198   C205    1.383   .     A
C198   H233    1.077   .     S
C199   C200    1.398   .     A
C199   H223    1.083   .     S
C200   C201    1.398   .     A
C200   H224    1.082   .     S
C201   C202    1.398   .     A
C201   H225    1.082   .     S
C202   C203    1.398   .     A
C202   H226    1.082   .     S
C203   H227    1.083   .     S
C204   H209    1.084   .     S
C204   C924    1.390   1_554 S
C205   H220    1.084   .     S
C205   C926    1.390   .     S
C206   H234    1.084   .     S
C206   C454    1.370   .     S
C207   H210    1.084   .     S
C207   C658    1.370   1_545 S
C208   H211    1.084   .     S
C208   C698    1.370   1_545 S
N235   Zn245   2.009   .     S
N236   Zn246   2.009   .     S
O237   Zn245   1.995   .     S
O238   Zn246   1.995   .     S
O239   Zn246   1.996   .     S
O240   Zn245   1.996   .     S
O241   Zn245   1.981   .     S
O242   Zn246   1.981   .     S
O243   Zn246   1.916   .     S
O244   Zn245   1.916   .     S
C247   O321    1.282   .     A
C247   C250    1.416   .     S
C247   O319    1.282   .     A
C248   H294    1.084   .     S
C248   C250    1.397   .     A
C248   C535    1.370   .     S
C249   C289    1.396   .     A
C249   C258    1.416   .     S
C249   C290    1.397   .     A
C250   C288    1.396   .     A
C251   N318    1.366   .     A
C251   H295    1.082   .     S
C251   C335    1.416   .     S
C252   N317    1.366   .     A
C252   H296    1.082   .     S
C252   C418    1.416   1_455 S
C253   N317    1.367   .     A
C253   H297    1.082   .     S
C253   C415    1.416   1_455 S
C254   H298    1.082   .     S
C254   N318    1.367   .     A
C254   C334    1.416   .     S
C255   O325    1.290   .     A
C255   O323    1.292   .     A
C255   C257    1.458   .     S
C256   O324    1.292   .     A
C256   O326    1.291   .     A
C256   C259    1.459   .     S
C257   C264    1.416   .     A
C257   C262    1.396   .     A
C258   O320    1.282   .     A
C258   O322    1.282   .     A
C259   C265    1.416   .     A
C259   C263    1.397   .     A
C260   H312    1.084   .     S
C260   C262    1.384   .     A
C260   C268    1.397   .     A
C261   H313    1.084   .     S
C261   C270    1.397   .     A
C261   C263    1.384   .     A
C262   H311    1.084   .     S
C263   H310    1.084   .     S
C264   C266    1.425   .     A
C264   C279    1.494   .     S
C265   C267    1.425   .     A
C265   C273    1.494   .     S
C266   C268    1.422   .     A
C266   C271    1.427   .     A
C267   C272    1.426   .     A
C267   C270    1.422   .     A
C268   C1024   1.390   .     S
C269   C286    1.383   .     A
C269   C272    1.409   .     A
C269   H314    1.077   .     S
C270   C1025   1.390   1_554 S
C271   C280    1.409   .     A
C271   C1010   1.422   .     S
C272   C1009   1.422   1_554 S
C273   C278    1.408   .     A
C273   C274    1.406   .     A
C274   C275    1.398   .     A
C274   H299    1.083   .     S
C275   C276    1.398   .     A
C275   H300    1.082   .     S
C276   C277    1.398   .     A
C276   H301    1.082   .     S
C277   C278    1.398   .     A
C277   H303    1.082   .     S
C278   H304    1.083   .     S
C279   C285    1.406   .     A
C279   C281    1.408   .     A
C280   C287    1.383   .     A
C280   H315    1.077   .     S
C281   C282    1.398   .     A
C281   H305    1.083   .     S
C282   C283    1.398   .     A
C282   H306    1.082   .     S
C283   C284    1.398   .     A
C283   H307    1.082   .     S
C284   C285    1.398   .     A
C284   H308    1.082   .     S
C285   H309    1.083   .     S
C286   H291    1.084   .     S
C286   C1006   1.390   1_554 S
C287   H302    1.084   .     S
C287   C1008   1.390   .     S
C288   H316    1.084   .     S
C288   C536    1.370   .     S
C289   H292    1.084   .     S
C290   H293    1.084   .     S
N317   Zn327   2.009   .     S
N318   Zn328   2.009   .     S
O319   Zn327   1.995   .     S
O320   Zn328   1.995   .     S
O321   Zn328   1.996   .     S
O322   Zn327   1.996   .     S
O323   Zn327   1.981   .     S
O324   Zn328   1.981   .     S
O325   Zn328   1.916   .     S
O326   Zn327   1.916   .     S
C329   O403    1.282   .     A
C329   C332    1.416   .     S
C329   O401    1.282   .     A
C330   H376    1.084   .     S
C330   C332    1.397   .     A
C330   C617    1.370   .     S
C331   C371    1.396   .     A
C331   C340    1.416   .     S
C331   C372    1.397   .     A
C332   C370    1.396   .     A
C333   N400    1.366   .     A
C333   H377    1.082   .     S
C333   C417    1.416   .     S
C334   N399    1.366   .     A
C334   H378    1.082   .     S
C335   N399    1.367   .     A
C335   H379    1.082   .     S
C336   H380    1.082   .     S
C336   N400    1.367   .     A
C336   C416    1.416   .     S
C337   O407    1.290   .     A
C337   O405    1.292   .     A
C337   C339    1.458   .     S
C338   O406    1.292   .     A
C338   O408    1.291   .     A
C338   C341    1.459   .     S
C339   C346    1.416   .     A
C339   C344    1.396   .     A
C340   O402    1.282   .     A
C340   O404    1.282   .     A
C341   C347    1.416   .     A
C341   C345    1.397   .     A
C342   H394    1.084   .     S
C342   C344    1.384   .     A
C342   C350    1.397   .     A
C343   H395    1.084   .     S
C343   C352    1.397   .     A
C343   C345    1.384   .     A
C344   H393    1.084   .     S
C345   H392    1.084   .     S
C346   C348    1.425   .     A
C346   C361    1.494   .     S
C347   C349    1.425   .     A
C347   C355    1.494   .     S
C348   C350    1.422   .     A
C348   C353    1.427   .     A
C349   C354    1.426   .     A
C349   C352    1.422   .     A
C350   C1106   1.390   .     S
C351   C368    1.383   .     A
C351   C354    1.409   .     A
C351   H396    1.077   .     S
C352   C1107   1.390   1_554 S
C353   C362    1.409   .     A
C353   C1092   1.422   .     S
C354   C1091   1.422   1_554 S
C355   C360    1.408   .     A
C355   C356    1.406   .     A
C356   C357    1.398   .     A
C356   H381    1.083   .     S
C357   C358    1.398   .     A
C357   H382    1.082   .     S
C358   C359    1.398   .     A
C358   H383    1.082   .     S
C359   C360    1.398   .     A
C359   H385    1.082   .     S
C360   H386    1.083   .     S
C361   C367    1.406   .     A
C361   C363    1.408   .     A
C362   C369    1.383   .     A
C362   H397    1.077   .     S
C363   C364    1.398   .     A
C363   H387    1.083   .     S
C364   C365    1.398   .     A
C364   H388    1.082   .     S
C365   C366    1.398   .     A
C365   H389    1.082   .     S
C366   C367    1.398   .     A
C366   H390    1.082   .     S
C367   H391    1.083   .     S
C368   H373    1.084   .     S
C368   C1088   1.390   1_554 S
C369   H384    1.084   .     S
C369   C1090   1.390   .     S
C370   H398    1.084   .     S
C370   C618    1.370   .     S
C371   H374    1.084   .     S
C372   H375    1.084   .     S
N399   Zn409   2.009   .     S
N400   Zn410   2.009   .     S
O401   Zn409   1.995   .     S
O402   Zn410   1.995   .     S
O403   Zn410   1.996   .     S
O404   Zn409   1.996   .     S
O405   Zn409   1.981   .     S
O406   Zn410   1.981   .     S
O407   Zn410   1.916   .     S
O408   Zn409   1.916   .     S
C411   O485    1.282   .     A
C411   C414    1.416   .     S
C411   O483    1.282   .     A
C412   H458    1.084   .     S
C412   C414    1.397   .     A
C412   C699    1.370   .     S
C413   C453    1.396   .     A
C413   C422    1.416   .     S
C413   C454    1.397   .     A
C414   C452    1.396   .     A
C415   N482    1.366   .     A
C415   H459    1.082   .     S
C415   C253    1.416   1_655 S
C416   N481    1.366   .     A
C416   H460    1.082   .     S
C417   N481    1.367   .     A
C417   H461    1.082   .     S
C418   H462    1.082   .     S
C418   N482    1.367   .     A
C418   C252    1.416   1_655 S
C419   O489    1.290   .     A
C419   O487    1.292   .     A
C419   C421    1.458   .     S
C420   O488    1.292   .     A
C420   O490    1.291   .     A
C420   C423    1.459   .     S
C421   C428    1.416   .     A
C421   C426    1.396   .     A
C422   O484    1.282   .     A
C422   O486    1.282   .     A
C423   C429    1.416   .     A
C423   C427    1.397   .     A
C424   H476    1.084   .     S
C424   C426    1.384   .     A
C424   C432    1.397   .     A
C425   H477    1.084   .     S
C425   C434    1.397   .     A
C425   C427    1.384   .     A
C426   H475    1.084   .     S
C427   H474    1.084   .     S
C428   C430    1.425   .     A
C428   C443    1.494   .     S
C429   C431    1.425   .     A
C429   C437    1.494   .     S
C430   C432    1.422   .     A
C430   C435    1.427   .     A
C431   C436    1.426   .     A
C431   C434    1.422   .     A
C432   C1188   1.390   .     S
C433   C450    1.383   .     A
C433   C436    1.409   .     A
C433   H478    1.077   .     S
C434   C1189   1.390   1_554 S
C435   C444    1.409   .     A
C435   C1174   1.422   .     S
C436   C1173   1.422   1_554 S
C437   C442    1.408   .     A
C437   C438    1.406   .     A
C438   C439    1.398   .     A
C438   H463    1.083   .     S
C439   C440    1.398   .     A
C439   H464    1.082   .     S
C440   C441    1.398   .     A
C440   H465    1.082   .     S
C441   C442    1.398   .     A
C441   H467    1.082   .     S
C442   H468    1.083   .     S
C443   C449    1.406   .     A
C443   C445    1.408   .     A
C444   C451    1.383   .     A
C444   H479    1.077   .     S
C445   C446    1.398   .     A
C445   H469    1.083   .     S
C446   C447    1.398   .     A
C446   H470    1.082   .     S
C447   C448    1.398   .     A
C447   H471    1.082   .     S
C448   C449    1.398   .     A
C448   H472    1.082   .     S
C449   H473    1.083   .     S
C450   H455    1.084   .     S
C450   C1170   1.390   1_554 S
C451   H466    1.084   .     S
C451   C1172   1.390   .     S
C452   H480    1.084   .     S
C452   C700    1.370   .     S
C453   H456    1.084   .     S
C454   H457    1.084   .     S
N481   Zn491   2.009   .     S
N482   Zn492   2.009   .     S
O483   Zn491   1.995   .     S
O484   Zn492   1.995   .     S
O485   Zn492   1.996   .     S
O486   Zn491   1.996   .     S
O487   Zn491   1.981   .     S
O488   Zn492   1.981   .     S
O489   Zn492   1.916   .     S
O490   Zn491   1.916   .     S
C493   O567    1.282   .     A
C493   C496    1.416   .     S
C493   O565    1.282   .     A
C494   H540    1.084   .     S
C494   C496    1.397   .     A
C494   C43     1.370   1_565 S
C495   C535    1.396   .     A
C495   C504    1.416   .     S
C495   C536    1.397   .     A
C496   C534    1.396   .     A
C497   N564    1.366   .     A
C497   H541    1.082   .     S
C497   C581    1.416   .     S
C498   N563    1.366   .     A
C498   H542    1.082   .     S
C498   C664    1.416   1_455 S
C499   N563    1.367   .     A
C499   H543    1.082   .     S
C499   C661    1.416   1_455 S
C500   H544    1.082   .     S
C500   N564    1.367   .     A
C500   C580    1.416   .     S
C501   O571    1.290   .     A
C501   O569    1.292   .     A
C501   C503    1.458   .     S
C502   O570    1.292   .     A
C502   O572    1.291   .     A
C502   C505    1.459   .     S
C503   C510    1.416   .     A
C503   C508    1.396   .     A
C504   O566    1.282   .     A
C504   O568    1.282   .     A
C505   C511    1.416   .     A
C505   C509    1.397   .     A
C506   H558    1.084   .     S
C506   C508    1.384   .     A
C506   C514    1.397   .     A
C507   H559    1.084   .     S
C507   C516    1.397   .     A
C507   C509    1.384   .     A
C508   H557    1.084   .     S
C509   H556    1.084   .     S
C510   C512    1.425   .     A
C510   C525    1.494   .     S
C511   C513    1.425   .     A
C511   C519    1.494   .     S
C512   C514    1.422   .     A
C512   C517    1.427   .     A
C513   C518    1.426   .     A
C513   C516    1.422   .     A
C514   C1270   1.390   .     S
C515   C532    1.383   .     A
C515   C518    1.409   .     A
C515   H560    1.077   .     S
C516   C1271   1.390   1_554 S
C517   C526    1.409   .     A
C517   C1256   1.422   .     S
C518   C1255   1.422   1_554 S
C519   C524    1.408   .     A
C519   C520    1.406   .     A
C520   C521    1.398   .     A
C520   H545    1.083   .     S
C521   C522    1.398   .     A
C521   H546    1.082   .     S
C522   C523    1.398   .     A
C522   H547    1.082   .     S
C523   C524    1.398   .     A
C523   H549    1.082   .     S
C524   H550    1.083   .     S
C525   C531    1.406   .     A
C525   C527    1.408   .     A
C526   C533    1.383   .     A
C526   H561    1.077   .     S
C527   C528    1.398   .     A
C527   H551    1.083   .     S
C528   C529    1.398   .     A
C528   H552    1.082   .     S
C529   C530    1.398   .     A
C529   H553    1.082   .     S
C530   C531    1.398   .     A
C530   H554    1.082   .     S
C531   H555    1.083   .     S
C532   H537    1.084   .     S
C532   C1252   1.390   1_554 S
C533   H548    1.084   .     S
C533   C1254   1.390   .     S
C534   H562    1.084   .     S
C534   C44     1.370   1_565 S
C535   H538    1.084   .     S
C536   H539    1.084   .     S
N563   Zn573   2.009   .     S
N564   Zn574   2.009   .     S
O565   Zn573   1.995   .     S
O566   Zn574   1.995   .     S
O567   Zn574   1.996   .     S
O568   Zn573   1.996   .     S
O569   Zn573   1.981   .     S
O570   Zn574   1.981   .     S
O571   Zn574   1.916   .     S
O572   Zn573   1.916   .     S
C575   O649    1.282   .     A
C575   C578    1.416   .     S
C575   O647    1.282   .     A
C576   H622    1.084   .     S
C576   C578    1.397   .     A
C576   C125    1.370   1_565 S
C577   C617    1.396   .     A
C577   C586    1.416   .     S
C577   C618    1.397   .     A
C578   C616    1.396   .     A
C579   N646    1.366   .     A
C579   H623    1.082   .     S
C579   C663    1.416   .     S
C580   N645    1.366   .     A
C580   H624    1.082   .     S
C581   N645    1.367   .     A
C581   H625    1.082   .     S
C582   H626    1.082   .     S
C582   N646    1.367   .     A
C582   C662    1.416   .     S
C583   O653    1.290   .     A
C583   O651    1.292   .     A
C583   C585    1.458   .     S
C584   O652    1.292   .     A
C584   O654    1.291   .     A
C584   C587    1.459   .     S
C585   C592    1.416   .     A
C585   C590    1.396   .     A
C586   O648    1.282   .     A
C586   O650    1.282   .     A
C587   C593    1.416   .     A
C587   C591    1.397   .     A
C588   H640    1.084   .     S
C588   C590    1.384   .     A
C588   C596    1.397   .     A
C589   H641    1.084   .     S
C589   C598    1.397   .     A
C589   C591    1.384   .     A
C590   H639    1.084   .     S
C591   H638    1.084   .     S
C592   C594    1.425   .     A
C592   C607    1.494   .     S
C593   C595    1.425   .     A
C593   C601    1.494   .     S
C594   C596    1.422   .     A
C594   C599    1.427   .     A
C595   C600    1.426   .     A
C595   C598    1.422   .     A
C596   C1352   1.390   .     S
C597   C614    1.383   .     A
C597   C600    1.409   .     A
C597   H642    1.077   .     S
C598   C1353   1.390   1_554 S
C599   C608    1.409   .     A
C599   C1338   1.422   .     S
C600   C1337   1.422   1_554 S
C601   C606    1.408   .     A
C601   C602    1.406   .     A
C602   C603    1.398   .     A
C602   H627    1.083   .     S
C603   C604    1.398   .     A
C603   H628    1.082   .     S
C604   C605    1.398   .     A
C604   H629    1.082   .     S
C605   C606    1.398   .     A
C605   H631    1.082   .     S
C606   H632    1.083   .     S
C607   C613    1.406   .     A
C607   C609    1.408   .     A
C608   C615    1.383   .     A
C608   H643    1.077   .     S
C609   C610    1.398   .     A
C609   H633    1.083   .     S
C610   C611    1.398   .     A
C610   H634    1.082   .     S
C611   C612    1.398   .     A
C611   H635    1.082   .     S
C612   C613    1.398   .     A
C612   H636    1.082   .     S
C613   H637    1.083   .     S
C614   H619    1.084   .     S
C614   C1334   1.390   1_554 S
C615   H630    1.084   .     S
C615   C1336   1.390   .     S
C616   H644    1.084   .     S
C616   C126    1.370   1_565 S
C617   H620    1.084   .     S
C618   H621    1.084   .     S
N645   Zn655   2.009   .     S
N646   Zn656   2.009   .     S
O647   Zn655   1.995   .     S
O648   Zn656   1.995   .     S
O649   Zn656   1.996   .     S
O650   Zn655   1.996   .     S
O651   Zn655   1.981   .     S
O652   Zn656   1.981   .     S
O653   Zn656   1.916   .     S
O654   Zn655   1.916   .     S
C657   O731    1.282   .     A
C657   C660    1.416   .     S
C657   O729    1.282   .     A
C658   H704    1.084   .     S
C658   C660    1.397   .     A
C658   C207    1.370   1_565 S
C659   C699    1.396   .     A
C659   C668    1.416   .     S
C659   C700    1.397   .     A
C660   C698    1.396   .     A
C661   N728    1.366   .     A
C661   H705    1.082   .     S
C661   C499    1.416   1_655 S
C662   N727    1.366   .     A
C662   H706    1.082   .     S
C663   N727    1.367   .     A
C663   H707    1.082   .     S
C664   H708    1.082   .     S
C664   N728    1.367   .     A
C664   C498    1.416   1_655 S
C665   O735    1.290   .     A
C665   O733    1.292   .     A
C665   C667    1.458   .     S
C666   O734    1.292   .     A
C666   O736    1.291   .     A
C666   C669    1.459   .     S
C667   C674    1.416   .     A
C667   C672    1.396   .     A
C668   O730    1.282   .     A
C668   O732    1.282   .     A
C669   C675    1.416   .     A
C669   C673    1.397   .     A
C670   H722    1.084   .     S
C670   C672    1.384   .     A
C670   C678    1.397   .     A
C671   H723    1.084   .     S
C671   C680    1.397   .     A
C671   C673    1.384   .     A
C672   H721    1.084   .     S
C673   H720    1.084   .     S
C674   C676    1.425   .     A
C674   C689    1.494   .     S
C675   C677    1.425   .     A
C675   C683    1.494   .     S
C676   C678    1.422   .     A
C676   C681    1.427   .     A
C677   C682    1.426   .     A
C677   C680    1.422   .     A
C678   C1434   1.390   .     S
C679   C696    1.383   .     A
C679   C682    1.409   .     A
C679   H724    1.077   .     S
C680   C1435   1.390   1_554 S
C681   C690    1.409   .     A
C681   C1420   1.422   .     S
C682   C1419   1.422   1_554 S
C683   C688    1.408   .     A
C683   C684    1.406   .     A
C684   C685    1.398   .     A
C684   H709    1.083   .     S
C685   C686    1.398   .     A
C685   H710    1.082   .     S
C686   C687    1.398   .     A
C686   H711    1.082   .     S
C687   C688    1.398   .     A
C687   H713    1.082   .     S
C688   H714    1.083   .     S
C689   C695    1.406   .     A
C689   C691    1.408   .     A
C690   C697    1.383   .     A
C690   H725    1.077   .     S
C691   C692    1.398   .     A
C691   H715    1.083   .     S
C692   C693    1.398   .     A
C692   H716    1.082   .     S
C693   C694    1.398   .     A
C693   H717    1.082   .     S
C694   C695    1.398   .     A
C694   H718    1.082   .     S
C695   H719    1.083   .     S
C696   H701    1.084   .     S
C696   C1416   1.390   1_554 S
C697   H712    1.084   .     S
C697   C1418   1.390   .     S
C698   H726    1.084   .     S
C698   C208    1.370   1_565 S
C699   H702    1.084   .     S
C700   H703    1.084   .     S
N727   Zn737   2.009   .     S
N728   Zn738   2.009   .     S
O729   Zn737   1.995   .     S
O730   Zn738   1.995   .     S
O731   Zn738   1.996   .     S
O732   Zn737   1.996   .     S
O733   Zn737   1.981   .     S
O734   Zn738   1.981   .     S
O735   Zn738   1.916   .     S
O736   Zn737   1.916   .     S
C739   O813    1.282   .     A
C739   C742    1.416   .     S
C739   O811    1.282   .     A
C740   H786    1.084   .     S
C740   C742    1.397   .     A
C740   C1027   1.370   .     S
C741   C781    1.396   .     A
C741   C750    1.416   .     S
C741   C782    1.397   .     A
C742   C780    1.396   .     A
C743   N810    1.366   .     A
C743   H787    1.082   .     S
C743   C827    1.416   .     S
C744   N809    1.366   .     A
C744   H788    1.082   .     S
C744   C910    1.416   1_455 S
C745   N809    1.367   .     A
C745   H789    1.082   .     S
C745   C907    1.416   1_455 S
C746   H790    1.082   .     S
C746   N810    1.367   .     A
C746   C826    1.416   .     S
C747   O817    1.290   .     A
C747   O815    1.292   .     A
C747   C749    1.458   .     S
C748   O816    1.292   .     A
C748   O818    1.291   .     A
C748   C751    1.459   .     S
C749   C756    1.416   .     A
C749   C754    1.396   .     A
C750   O812    1.282   .     A
C750   O814    1.282   .     A
C751   C757    1.416   .     A
C751   C755    1.397   .     A
C752   H804    1.084   .     S
C752   C754    1.384   .     A
C752   C760    1.397   .     A
C753   H805    1.084   .     S
C753   C762    1.397   .     A
C753   C755    1.384   .     A
C754   H803    1.084   .     S
C755   H802    1.084   .     S
C756   C758    1.425   .     A
C756   C771    1.494   .     S
C757   C759    1.425   .     A
C757   C765    1.494   .     S
C758   C760    1.422   .     A
C758   C763    1.427   .     A
C759   C764    1.426   .     A
C759   C762    1.422   .     A
C760   C40     1.390   1_556 S
C761   C778    1.383   .     A
C761   C764    1.409   .     A
C761   H806    1.077   .     S
C763   C772    1.409   .     A
C763   C26     1.422   1_556 S
C765   C770    1.408   .     A
C765   C766    1.406   .     A
C766   C767    1.398   .     A
C766   H791    1.083   .     S
C767   C768    1.398   .     A
C767   H792    1.082   .     S
C768   C769    1.398   .     A
C768   H793    1.082   .     S
C769   C770    1.398   .     A
C769   H795    1.082   .     S
C770   H796    1.083   .     S
C771   C777    1.406   .     A
C771   C773    1.408   .     A
C772   C779    1.383   .     A
C772   H807    1.077   .     S
C773   C774    1.398   .     A
C773   H797    1.083   .     S
C774   C775    1.398   .     A
C774   H798    1.082   .     S
C775   C776    1.398   .     A
C775   H799    1.082   .     S
C776   C777    1.398   .     A
C776   H800    1.082   .     S
C777   H801    1.083   .     S
C778   H783    1.084   .     S
C779   H794    1.084   .     S
C779   C24     1.390   1_556 S
C780   H808    1.084   .     S
C780   C1028   1.370   .     S
C781   H784    1.084   .     S
C781   C1232   1.370   1_545 S
C782   H785    1.084   .     S
C782   C1272   1.370   1_545 S
N809   Zn819   2.009   .     S
N810   Zn820   2.009   .     S
O811   Zn819   1.995   .     S
O812   Zn820   1.995   .     S
O813   Zn820   1.996   .     S
O814   Zn819   1.996   .     S
O815   Zn819   1.981   .     S
O816   Zn820   1.981   .     S
O817   Zn820   1.916   .     S
O818   Zn819   1.916   .     S
C821   O895    1.282   .     A
C821   C824    1.416   .     S
C821   O893    1.282   .     A
C822   H868    1.084   .     S
C822   C824    1.397   .     A
C822   C1109   1.370   .     S
C823   C863    1.396   .     A
C823   C832    1.416   .     S
C823   C864    1.397   .     A
C824   C862    1.396   .     A
C825   N892    1.366   .     A
C825   H869    1.082   .     S
C825   C909    1.416   .     S
C826   N891    1.366   .     A
C826   H870    1.082   .     S
C827   N891    1.367   .     A
C827   H871    1.082   .     S
C828   H872    1.082   .     S
C828   N892    1.367   .     A
C828   C908    1.416   .     S
C829   O899    1.290   .     A
C829   O897    1.292   .     A
C829   C831    1.458   .     S
C830   O898    1.292   .     A
C830   O900    1.291   .     A
C830   C833    1.459   .     S
C831   C838    1.416   .     A
C831   C836    1.396   .     A
C832   O894    1.282   .     A
C832   O896    1.282   .     A
C833   C839    1.416   .     A
C833   C837    1.397   .     A
C834   H886    1.084   .     S
C834   C836    1.384   .     A
C834   C842    1.397   .     A
C835   H887    1.084   .     S
C835   C844    1.397   .     A
C835   C837    1.384   .     A
C836   H885    1.084   .     S
C837   H884    1.084   .     S
C838   C840    1.425   .     A
C838   C853    1.494   .     S
C839   C841    1.425   .     A
C839   C847    1.494   .     S
C840   C842    1.422   .     A
C840   C845    1.427   .     A
C841   C846    1.426   .     A
C841   C844    1.422   .     A
C842   C122    1.390   1_556 S
C843   C860    1.383   .     A
C843   C846    1.409   .     A
C843   H888    1.077   .     S
C845   C854    1.409   .     A
C845   C108    1.422   1_556 S
C847   C852    1.408   .     A
C847   C848    1.406   .     A
C848   C849    1.398   .     A
C848   H873    1.083   .     S
C849   C850    1.398   .     A
C849   H874    1.082   .     S
C850   C851    1.398   .     A
C850   H875    1.082   .     S
C851   C852    1.398   .     A
C851   H877    1.082   .     S
C852   H878    1.083   .     S
C853   C859    1.406   .     A
C853   C855    1.408   .     A
C854   C861    1.383   .     A
C854   H889    1.077   .     S
C855   C856    1.398   .     A
C855   H879    1.083   .     S
C856   C857    1.398   .     A
C856   H880    1.082   .     S
C857   C858    1.398   .     A
C857   H881    1.082   .     S
C858   C859    1.398   .     A
C858   H882    1.082   .     S
C859   H883    1.083   .     S
C860   H865    1.084   .     S
C861   H876    1.084   .     S
C861   C106    1.390   1_556 S
C862   H890    1.084   .     S
C862   C1110   1.370   .     S
C863   H866    1.084   .     S
C863   C1314   1.370   1_545 S
C864   H867    1.084   .     S
C864   C1354   1.370   1_545 S
N891   Zn901   2.009   .     S
N892   Zn902   2.009   .     S
O893   Zn901   1.995   .     S
O894   Zn902   1.995   .     S
O895   Zn902   1.996   .     S
O896   Zn901   1.996   .     S
O897   Zn901   1.981   .     S
O898   Zn902   1.981   .     S
O899   Zn902   1.916   .     S
O900   Zn901   1.916   .     S
C903   O977    1.282   .     A
C903   C906    1.416   .     S
C903   O975    1.282   .     A
C904   H950    1.084   .     S
C904   C906    1.397   .     A
C904   C1191   1.370   .     S
C905   C945    1.396   .     A
C905   C914    1.416   .     S
C905   C946    1.397   .     A
C906   C944    1.396   .     A
C907   N974    1.366   .     A
C907   H951    1.082   .     S
C907   C745    1.416   1_655 S
C908   N973    1.366   .     A
C908   H952    1.082   .     S
C909   N973    1.367   .     A
C909   H953    1.082   .     S
C910   H954    1.082   .     S
C910   N974    1.367   .     A
C910   C744    1.416   1_655 S
C911   O981    1.290   .     A
C911   O979    1.292   .     A
C911   C913    1.458   .     S
C912   O980    1.292   .     A
C912   O982    1.291   .     A
C912   C915    1.459   .     S
C913   C920    1.416   .     A
C913   C918    1.396   .     A
C914   O976    1.282   .     A
C914   O978    1.282   .     A
C915   C921    1.416   .     A
C915   C919    1.397   .     A
C916   H968    1.084   .     S
C916   C918    1.384   .     A
C916   C924    1.397   .     A
C917   H969    1.084   .     S
C917   C926    1.397   .     A
C917   C919    1.384   .     A
C918   H967    1.084   .     S
C919   H966    1.084   .     S
C920   C922    1.425   .     A
C920   C935    1.494   .     S
C921   C923    1.425   .     A
C921   C929    1.494   .     S
C922   C924    1.422   .     A
C922   C927    1.427   .     A
C923   C928    1.426   .     A
C923   C926    1.422   .     A
C924   C204    1.390   1_556 S
C925   C942    1.383   .     A
C925   C928    1.409   .     A
C925   H970    1.077   .     S
C927   C936    1.409   .     A
C927   C190    1.422   1_556 S
C929   C934    1.408   .     A
C929   C930    1.406   .     A
C930   C931    1.398   .     A
C930   H955    1.083   .     S
C931   C932    1.398   .     A
C931   H956    1.082   .     S
C932   C933    1.398   .     A
C932   H957    1.082   .     S
C933   C934    1.398   .     A
C933   H959    1.082   .     S
C934   H960    1.083   .     S
C935   C941    1.406   .     A
C935   C937    1.408   .     A
C936   C943    1.383   .     A
C936   H971    1.077   .     S
C937   C938    1.398   .     A
C937   H961    1.083   .     S
C938   C939    1.398   .     A
C938   H962    1.082   .     S
C939   C940    1.398   .     A
C939   H963    1.082   .     S
C940   C941    1.398   .     A
C940   H964    1.082   .     S
C941   H965    1.083   .     S
C942   H947    1.084   .     S
C943   H958    1.084   .     S
C943   C188    1.390   1_556 S
C944   H972    1.084   .     S
C944   C1192   1.370   .     S
C945   H948    1.084   .     S
C945   C1396   1.370   1_545 S
C946   H949    1.084   .     S
C946   C1436   1.370   1_545 S
N973   Zn983   2.009   .     S
N974   Zn984   2.009   .     S
O975   Zn983   1.995   .     S
O976   Zn984   1.995   .     S
O977   Zn984   1.996   .     S
O978   Zn983   1.996   .     S
O979   Zn983   1.981   .     S
O980   Zn984   1.981   .     S
O981   Zn984   1.916   .     S
O982   Zn983   1.916   .     S
C985   O1059   1.282   .     A
C985   C988    1.416   .     S
C985   O1057   1.282   .     A
C986   H1032   1.084   .     S
C986   C988    1.397   .     A
C986   C1273   1.370   .     S
C987   C1027   1.396   .     A
C987   C996    1.416   .     S
C987   C1028   1.397   .     A
C988   C1026   1.396   .     A
C989   N1056   1.366   .     A
C989   H1033   1.082   .     S
C989   C1073   1.416   .     S
C990   N1055   1.366   .     A
C990   H1034   1.082   .     S
C990   C1156   1.416   1_455 S
C991   N1055   1.367   .     A
C991   H1035   1.082   .     S
C991   C1153   1.416   1_455 S
C992   H1036   1.082   .     S
C992   N1056   1.367   .     A
C992   C1072   1.416   .     S
C993   O1063   1.290   .     A
C993   O1061   1.292   .     A
C993   C995    1.458   .     S
C994   O1062   1.292   .     A
C994   O1064   1.291   .     A
C994   C997    1.459   .     S
C995   C1002   1.416   .     A
C995   C1000   1.396   .     A
C996   O1058   1.282   .     A
C996   O1060   1.282   .     A
C997   C1003   1.416   .     A
C997   C1001   1.397   .     A
C998   H1050   1.084   .     S
C998   C1000   1.384   .     A
C998   C1006   1.397   .     A
C999   H1051   1.084   .     S
C999   C1008   1.397   .     A
C999   C1001   1.384   .     A
C1000  H1049   1.084   .     S
C1001  H1048   1.084   .     S
C1002  C1004   1.425   .     A
C1002  C1017   1.494   .     S
C1003  C1005   1.425   .     A
C1003  C1011   1.494   .     S
C1004  C1006   1.422   .     A
C1004  C1009   1.427   .     A
C1005  C1010   1.426   .     A
C1005  C1008   1.422   .     A
C1006  C286    1.390   1_556 S
C1007  C1024   1.383   .     A
C1007  C1010   1.409   .     A
C1007  H1052   1.077   .     S
C1009  C1018   1.409   .     A
C1009  C272    1.422   1_556 S
C1011  C1016   1.408   .     A
C1011  C1012   1.406   .     A
C1012  C1013   1.398   .     A
C1012  H1037   1.083   .     S
C1013  C1014   1.398   .     A
C1013  H1038   1.082   .     S
C1014  C1015   1.398   .     A
C1014  H1039   1.082   .     S
C1015  C1016   1.398   .     A
C1015  H1041   1.082   .     S
C1016  H1042   1.083   .     S
C1017  C1023   1.406   .     A
C1017  C1019   1.408   .     A
C1018  C1025   1.383   .     A
C1018  H1053   1.077   .     S
C1019  C1020   1.398   .     A
C1019  H1043   1.083   .     S
C1020  C1021   1.398   .     A
C1020  H1044   1.082   .     S
C1021  C1022   1.398   .     A
C1021  H1045   1.082   .     S
C1022  C1023   1.398   .     A
C1022  H1046   1.082   .     S
C1023  H1047   1.083   .     S
C1024  H1029   1.084   .     S
C1025  H1040   1.084   .     S
C1025  C270    1.390   1_556 S
C1026  H1054   1.084   .     S
C1026  C1274   1.370   .     S
C1027  H1030   1.084   .     S
C1028  H1031   1.084   .     S
N1055  Zn1065  2.009   .     S
N1056  Zn1066  2.009   .     S
O1057  Zn1065  1.995   .     S
O1058  Zn1066  1.995   .     S
O1059  Zn1066  1.996   .     S
O1060  Zn1065  1.996   .     S
O1061  Zn1065  1.981   .     S
O1062  Zn1066  1.981   .     S
O1063  Zn1066  1.916   .     S
O1064  Zn1065  1.916   .     S
C1067  O1141   1.282   .     A
C1067  C1070   1.416   .     S
C1067  O1139   1.282   .     A
C1068  H1114   1.084   .     S
C1068  C1070   1.397   .     A
C1068  C1355   1.370   .     S
C1069  C1109   1.396   .     A
C1069  C1078   1.416   .     S
C1069  C1110   1.397   .     A
C1070  C1108   1.396   .     A
C1071  N1138   1.366   .     A
C1071  H1115   1.082   .     S
C1071  C1155   1.416   .     S
C1072  N1137   1.366   .     A
C1072  H1116   1.082   .     S
C1073  N1137   1.367   .     A
C1073  H1117   1.082   .     S
C1074  H1118   1.082   .     S
C1074  N1138   1.367   .     A
C1074  C1154   1.416   .     S
C1075  O1145   1.290   .     A
C1075  O1143   1.292   .     A
C1075  C1077   1.458   .     S
C1076  O1144   1.292   .     A
C1076  O1146   1.291   .     A
C1076  C1079   1.459   .     S
C1077  C1084   1.416   .     A
C1077  C1082   1.396   .     A
C1078  O1140   1.282   .     A
C1078  O1142   1.282   .     A
C1079  C1085   1.416   .     A
C1079  C1083   1.397   .     A
C1080  H1132   1.084   .     S
C1080  C1082   1.384   .     A
C1080  C1088   1.397   .     A
C1081  H1133   1.084   .     S
C1081  C1090   1.397   .     A
C1081  C1083   1.384   .     A
C1082  H1131   1.084   .     S
C1083  H1130   1.084   .     S
C1084  C1086   1.425   .     A
C1084  C1099   1.494   .     S
C1085  C1087   1.425   .     A
C1085  C1093   1.494   .     S
C1086  C1088   1.422   .     A
C1086  C1091   1.427   .     A
C1087  C1092   1.426   .     A
C1087  C1090   1.422   .     A
C1088  C368    1.390   1_556 S
C1089  C1106   1.383   .     A
C1089  C1092   1.409   .     A
C1089  H1134   1.077   .     S
C1091  C1100   1.409   .     A
C1091  C354    1.422   1_556 S
C1093  C1098   1.408   .     A
C1093  C1094   1.406   .     A
C1094  C1095   1.398   .     A
C1094  H1119   1.083   .     S
C1095  C1096   1.398   .     A
C1095  H1120   1.082   .     S
C1096  C1097   1.398   .     A
C1096  H1121   1.082   .     S
C1097  C1098   1.398   .     A
C1097  H1123   1.082   .     S
C1098  H1124   1.083   .     S
C1099  C1105   1.406   .     A
C1099  C1101   1.408   .     A
C1100  C1107   1.383   .     A
C1100  H1135   1.077   .     S
C1101  C1102   1.398   .     A
C1101  H1125   1.083   .     S
C1102  C1103   1.398   .     A
C1102  H1126   1.082   .     S
C1103  C1104   1.398   .     A
C1103  H1127   1.082   .     S
C1104  C1105   1.398   .     A
C1104  H1128   1.082   .     S
C1105  H1129   1.083   .     S
C1106  H1111   1.084   .     S
C1107  H1122   1.084   .     S
C1107  C352    1.390   1_556 S
C1108  H1136   1.084   .     S
C1108  C1356   1.370   .     S
C1109  H1112   1.084   .     S
C1110  H1113   1.084   .     S
N1137  Zn1147  2.009   .     S
N1138  Zn1148  2.009   .     S
O1139  Zn1147  1.995   .     S
O1140  Zn1148  1.995   .     S
O1141  Zn1148  1.996   .     S
O1142  Zn1147  1.996   .     S
O1143  Zn1147  1.981   .     S
O1144  Zn1148  1.981   .     S
O1145  Zn1148  1.916   .     S
O1146  Zn1147  1.916   .     S
C1149  O1223   1.282   .     A
C1149  C1152   1.416   .     S
C1149  O1221   1.282   .     A
C1150  H1196   1.084   .     S
C1150  C1152   1.397   .     A
C1150  C1437   1.370   .     S
C1151  C1191   1.396   .     A
C1151  C1160   1.416   .     S
C1151  C1192   1.397   .     A
C1152  C1190   1.396   .     A
C1153  N1220   1.366   .     A
C1153  H1197   1.082   .     S
C1153  C991    1.416   1_655 S
C1154  N1219   1.366   .     A
C1154  H1198   1.082   .     S
C1155  N1219   1.367   .     A
C1155  H1199   1.082   .     S
C1156  H1200   1.082   .     S
C1156  N1220   1.367   .     A
C1156  C990    1.416   1_655 S
C1157  O1227   1.290   .     A
C1157  O1225   1.292   .     A
C1157  C1159   1.458   .     S
C1158  O1226   1.292   .     A
C1158  O1228   1.291   .     A
C1158  C1161   1.459   .     S
C1159  C1166   1.416   .     A
C1159  C1164   1.396   .     A
C1160  O1222   1.282   .     A
C1160  O1224   1.282   .     A
C1161  C1167   1.416   .     A
C1161  C1165   1.397   .     A
C1162  H1214   1.084   .     S
C1162  C1164   1.384   .     A
C1162  C1170   1.397   .     A
C1163  H1215   1.084   .     S
C1163  C1172   1.397   .     A
C1163  C1165   1.384   .     A
C1164  H1213   1.084   .     S
C1165  H1212   1.084   .     S
C1166  C1168   1.425   .     A
C1166  C1181   1.494   .     S
C1167  C1169   1.425   .     A
C1167  C1175   1.494   .     S
C1168  C1170   1.422   .     A
C1168  C1173   1.427   .     A
C1169  C1174   1.426   .     A
C1169  C1172   1.422   .     A
C1170  C450    1.390   1_556 S
C1171  C1188   1.383   .     A
C1171  C1174   1.409   .     A
C1171  H1216   1.077   .     S
C1173  C1182   1.409   .     A
C1173  C436    1.422   1_556 S
C1175  C1180   1.408   .     A
C1175  C1176   1.406   .     A
C1176  C1177   1.398   .     A
C1176  H1201   1.083   .     S
C1177  C1178   1.398   .     A
C1177  H1202   1.082   .     S
C1178  C1179   1.398   .     A
C1178  H1203   1.082   .     S
C1179  C1180   1.398   .     A
C1179  H1205   1.082   .     S
C1180  H1206   1.083   .     S
C1181  C1187   1.406   .     A
C1181  C1183   1.408   .     A
C1182  C1189   1.383   .     A
C1182  H1217   1.077   .     S
C1183  C1184   1.398   .     A
C1183  H1207   1.083   .     S
C1184  C1185   1.398   .     A
C1184  H1208   1.082   .     S
C1185  C1186   1.398   .     A
C1185  H1209   1.082   .     S
C1186  C1187   1.398   .     A
C1186  H1210   1.082   .     S
C1187  H1211   1.083   .     S
C1188  H1193   1.084   .     S
C1189  H1204   1.084   .     S
C1189  C434    1.390   1_556 S
C1190  H1218   1.084   .     S
C1190  C1438   1.370   .     S
C1191  H1194   1.084   .     S
C1192  H1195   1.084   .     S
N1219  Zn1229  2.009   .     S
N1220  Zn1230  2.009   .     S
O1221  Zn1229  1.995   .     S
O1222  Zn1230  1.995   .     S
O1223  Zn1230  1.996   .     S
O1224  Zn1229  1.996   .     S
O1225  Zn1229  1.981   .     S
O1226  Zn1230  1.981   .     S
O1227  Zn1230  1.916   .     S
O1228  Zn1229  1.916   .     S
C1231  O1305   1.282   .     A
C1231  C1234   1.416   .     S
C1231  O1303   1.282   .     A
C1232  H1278   1.084   .     S
C1232  C1234   1.397   .     A
C1232  C781    1.370   1_565 S
C1233  C1273   1.396   .     A
C1233  C1242   1.416   .     S
C1233  C1274   1.397   .     A
C1234  C1272   1.396   .     A
C1235  N1302   1.366   .     A
C1235  H1279   1.082   .     S
C1235  C1319   1.416   .     S
C1236  N1301   1.366   .     A
C1236  H1280   1.082   .     S
C1236  C1402   1.416   1_455 S
C1237  N1301   1.367   .     A
C1237  H1281   1.082   .     S
C1237  C1399   1.416   1_455 S
C1238  H1282   1.082   .     S
C1238  N1302   1.367   .     A
C1238  C1318   1.416   .     S
C1239  O1309   1.290   .     A
C1239  O1307   1.292   .     A
C1239  C1241   1.458   .     S
C1240  O1308   1.292   .     A
C1240  O1310   1.291   .     A
C1240  C1243   1.459   .     S
C1241  C1248   1.416   .     A
C1241  C1246   1.396   .     A
C1242  O1304   1.282   .     A
C1242  O1306   1.282   .     A
C1243  C1249   1.416   .     A
C1243  C1247   1.397   .     A
C1244  H1296   1.084   .     S
C1244  C1246   1.384   .     A
C1244  C1252   1.397   .     A
C1245  H1297   1.084   .     S
C1245  C1254   1.397   .     A
C1245  C1247   1.384   .     A
C1246  H1295   1.084   .     S
C1247  H1294   1.084   .     S
C1248  C1250   1.425   .     A
C1248  C1263   1.494   .     S
C1249  C1251   1.425   .     A
C1249  C1257   1.494   .     S
C1250  C1252   1.422   .     A
C1250  C1255   1.427   .     A
C1251  C1256   1.426   .     A
C1251  C1254   1.422   .     A
C1252  C532    1.390   1_556 S
C1253  C1270   1.383   .     A
C1253  C1256   1.409   .     A
C1253  H1298   1.077   .     S
C1255  C1264   1.409   .     A
C1255  C518    1.422   1_556 S
C1257  C1262   1.408   .     A
C1257  C1258   1.406   .     A
C1258  C1259   1.398   .     A
C1258  H1283   1.083   .     S
C1259  C1260   1.398   .     A
C1259  H1284   1.082   .     S
C1260  C1261   1.398   .     A
C1260  H1285   1.082   .     S
C1261  C1262   1.398   .     A
C1261  H1287   1.082   .     S
C1262  H1288   1.083   .     S
C1263  C1269   1.406   .     A
C1263  C1265   1.408   .     A
C1264  C1271   1.383   .     A
C1264  H1299   1.077   .     S
C1265  C1266   1.398   .     A
C1265  H1289   1.083   .     S
C1266  C1267   1.398   .     A
C1266  H1290   1.082   .     S
C1267  C1268   1.398   .     A
C1267  H1291   1.082   .     S
C1268  C1269   1.398   .     A
C1268  H1292   1.082   .     S
C1269  H1293   1.083   .     S
C1270  H1275   1.084   .     S
C1271  H1286   1.084   .     S
C1271  C516    1.390   1_556 S
C1272  H1300   1.084   .     S
C1272  C782    1.370   1_565 S
C1273  H1276   1.084   .     S
C1274  H1277   1.084   .     S
N1301  Zn1311  2.009   .     S
N1302  Zn1312  2.009   .     S
O1303  Zn1311  1.995   .     S
O1304  Zn1312  1.995   .     S
O1305  Zn1312  1.996   .     S
O1306  Zn1311  1.996   .     S
O1307  Zn1311  1.981   .     S
O1308  Zn1312  1.981   .     S
O1309  Zn1312  1.916   .     S
O1310  Zn1311  1.916   .     S
C1313  O1387   1.282   .     A
C1313  C1316   1.416   .     S
C1313  O1385   1.282   .     A
C1314  H1360   1.084   .     S
C1314  C1316   1.397   .     A
C1314  C863    1.370   1_565 S
C1315  C1355   1.396   .     A
C1315  C1324   1.416   .     S
C1315  C1356   1.397   .     A
C1316  C1354   1.396   .     A
C1317  N1384   1.366   .     A
C1317  H1361   1.082   .     S
C1317  C1401   1.416   .     S
C1318  N1383   1.366   .     A
C1318  H1362   1.082   .     S
C1319  N1383   1.367   .     A
C1319  H1363   1.082   .     S
C1320  H1364   1.082   .     S
C1320  N1384   1.367   .     A
C1320  C1400   1.416   .     S
C1321  O1391   1.290   .     A
C1321  O1389   1.292   .     A
C1321  C1323   1.458   .     S
C1322  O1390   1.292   .     A
C1322  O1392   1.291   .     A
C1322  C1325   1.459   .     S
C1323  C1330   1.416   .     A
C1323  C1328   1.396   .     A
C1324  O1386   1.282   .     A
C1324  O1388   1.282   .     A
C1325  C1331   1.416   .     A
C1325  C1329   1.397   .     A
C1326  H1378   1.084   .     S
C1326  C1328   1.384   .     A
C1326  C1334   1.397   .     A
C1327  H1379   1.084   .     S
C1327  C1336   1.397   .     A
C1327  C1329   1.384   .     A
C1328  H1377   1.084   .     S
C1329  H1376   1.084   .     S
C1330  C1332   1.425   .     A
C1330  C1345   1.494   .     S
C1331  C1333   1.425   .     A
C1331  C1339   1.494   .     S
C1332  C1334   1.422   .     A
C1332  C1337   1.427   .     A
C1333  C1338   1.426   .     A
C1333  C1336   1.422   .     A
C1334  C614    1.390   1_556 S
C1335  C1352   1.383   .     A
C1335  C1338   1.409   .     A
C1335  H1380   1.077   .     S
C1337  C1346   1.409   .     A
C1337  C600    1.422   1_556 S
C1339  C1344   1.408   .     A
C1339  C1340   1.406   .     A
C1340  C1341   1.398   .     A
C1340  H1365   1.083   .     S
C1341  C1342   1.398   .     A
C1341  H1366   1.082   .     S
C1342  C1343   1.398   .     A
C1342  H1367   1.082   .     S
C1343  C1344   1.398   .     A
C1343  H1369   1.082   .     S
C1344  H1370   1.083   .     S
C1345  C1351   1.406   .     A
C1345  C1347   1.408   .     A
C1346  C1353   1.383   .     A
C1346  H1381   1.077   .     S
C1347  C1348   1.398   .     A
C1347  H1371   1.083   .     S
C1348  C1349   1.398   .     A
C1348  H1372   1.082   .     S
C1349  C1350   1.398   .     A
C1349  H1373   1.082   .     S
C1350  C1351   1.398   .     A
C1350  H1374   1.082   .     S
C1351  H1375   1.083   .     S
C1352  H1357   1.084   .     S
C1353  H1368   1.084   .     S
C1353  C598    1.390   1_556 S
C1354  H1382   1.084   .     S
C1354  C864    1.370   1_565 S
C1355  H1358   1.084   .     S
C1356  H1359   1.084   .     S
N1383  Zn1393  2.009   .     S
N1384  Zn1394  2.009   .     S
O1385  Zn1393  1.995   .     S
O1386  Zn1394  1.995   .     S
O1387  Zn1394  1.996   .     S
O1388  Zn1393  1.996   .     S
O1389  Zn1393  1.981   .     S
O1390  Zn1394  1.981   .     S
O1391  Zn1394  1.916   .     S
O1392  Zn1393  1.916   .     S
C1395  O1469   1.282   .     A
C1395  C1398   1.416   .     S
C1395  O1467   1.282   .     A
C1396  H1442   1.084   .     S
C1396  C1398   1.397   .     A
C1396  C945    1.370   1_565 S
C1397  C1437   1.396   .     A
C1397  C1406   1.416   .     S
C1397  C1438   1.397   .     A
C1398  C1436   1.396   .     A
C1399  N1466   1.366   .     A
C1399  H1443   1.082   .     S
C1399  C1237   1.416   1_655 S
C1400  N1465   1.366   .     A
C1400  H1444   1.082   .     S
C1401  N1465   1.367   .     A
C1401  H1445   1.082   .     S
C1402  H1446   1.082   .     S
C1402  N1466   1.367   .     A
C1402  C1236   1.416   1_655 S
C1403  O1473   1.290   .     A
C1403  O1471   1.292   .     A
C1403  C1405   1.458   .     S
C1404  O1472   1.292   .     A
C1404  O1474   1.291   .     A
C1404  C1407   1.459   .     S
C1405  C1412   1.416   .     A
C1405  C1410   1.396   .     A
C1406  O1468   1.282   .     A
C1406  O1470   1.282   .     A
C1407  C1413   1.416   .     A
C1407  C1411   1.397   .     A
C1408  H1460   1.084   .     S
C1408  C1410   1.384   .     A
C1408  C1416   1.397   .     A
C1409  H1461   1.084   .     S
C1409  C1418   1.397   .     A
C1409  C1411   1.384   .     A
C1410  H1459   1.084   .     S
C1411  H1458   1.084   .     S
C1412  C1414   1.425   .     A
C1412  C1427   1.494   .     S
C1413  C1415   1.425   .     A
C1413  C1421   1.494   .     S
C1414  C1416   1.422   .     A
C1414  C1419   1.427   .     A
C1415  C1420   1.426   .     A
C1415  C1418   1.422   .     A
C1416  C696    1.390   1_556 S
C1417  C1434   1.383   .     A
C1417  C1420   1.409   .     A
C1417  H1462   1.077   .     S
C1419  C1428   1.409   .     A
C1419  C682    1.422   1_556 S
C1421  C1426   1.408   .     A
C1421  C1422   1.406   .     A
C1422  C1423   1.398   .     A
C1422  H1447   1.083   .     S
C1423  C1424   1.398   .     A
C1423  H1448   1.082   .     S
C1424  C1425   1.398   .     A
C1424  H1449   1.082   .     S
C1425  C1426   1.398   .     A
C1425  H1451   1.082   .     S
C1426  H1452   1.083   .     S
C1427  C1433   1.406   .     A
C1427  C1429   1.408   .     A
C1428  C1435   1.383   .     A
C1428  H1463   1.077   .     S
C1429  C1430   1.398   .     A
C1429  H1453   1.083   .     S
C1430  C1431   1.398   .     A
C1430  H1454   1.082   .     S
C1431  C1432   1.398   .     A
C1431  H1455   1.082   .     S
C1432  C1433   1.398   .     A
C1432  H1456   1.082   .     S
C1433  H1457   1.083   .     S
C1434  H1439   1.084   .     S
C1435  H1450   1.084   .     S
C1435  C680    1.390   1_556 S
C1436  H1464   1.084   .     S
C1436  C946    1.370   1_565 S
C1437  H1440   1.084   .     S
C1438  H1441   1.084   .     S
N1465  Zn1475  2.009   .     S
N1466  Zn1476  2.009   .     S
O1467  Zn1475  1.995   .     S
O1468  Zn1476  1.995   .     S
O1469  Zn1476  1.996   .     S
O1470  Zn1475  1.996   .     S
O1471  Zn1475  1.981   .     S
O1472  Zn1476  1.981   .     S
O1473  Zn1476  1.916   .     S
O1474  Zn1475  1.916   .     S
