data_str_m3_o1_o18_pcu_sym.140
_audit_creation_date              2020-01-03
_audit_creation_method            'Materials Studio'
_symmetry_space_group_name_H-M    'P1'
_symmetry_Int_Tables_number       1
_symmetry_cell_setting            triclinic
loop_
_symmetry_equiv_pos_as_xyz
  x,y,z
_cell_length_a                    29.7834
_cell_length_b                    31.8127
_cell_length_c                    31.0338
_cell_angle_alpha                 91.1264
_cell_angle_beta                  67.3736
_cell_angle_gamma                 88.8637
loop_
_atom_site_label
_atom_site_type_symbol
_atom_site_fract_x
_atom_site_fract_y
_atom_site_fract_z
_atom_site_U_iso_or_equiv
_atom_site_adp_type
_atom_site_occupancy
C1     C     0.16660   0.24649   0.24936   0.00000  Uiso   1.00
C2     C     0.16671   0.08684   0.25064   0.00000  Uiso   1.00
C3     C     0.10447   0.16702   0.05648   0.00000  Uiso   1.00
C4     C     0.20896   0.12546   0.45494   0.00000  Uiso   1.00
C5     C     0.06898   0.17220   0.03718   0.00000  Uiso   1.00
C6     C     0.24241   0.11447   0.47477   0.00000  Uiso   1.00
C7     C     0.19977   0.31090   0.21069   0.00000  Uiso   1.00
C8     C     0.13332   0.02242   0.28919   0.00000  Uiso   1.00
C9     C     0.19972   0.02077   0.21212   0.00000  Uiso   1.00
C10    C     0.13328   0.31254   0.28771   0.00000  Uiso   1.00
C11    C     0.16694   0.04271   0.25119   0.00000  Uiso   1.00
C12    C     0.16627   0.29060   0.24876   0.00000  Uiso   1.00
C13    C     0.32163   0.13823   0.22257   0.00000  Uiso   1.00
C14    C     0.01160   0.19455   0.27815   0.00000  Uiso   1.00
C15    C     0.03641   0.13835   0.22268   0.00000  Uiso   1.00
C16    C     0.29715   0.19520   0.27711   0.00000  Uiso   1.00
C17    C     0.13616   0.16774   0.33823   0.00000  Uiso   1.00
C18    C     0.19712   0.16636   0.16201   0.00000  Uiso   1.00
C19    C     0.11727   0.16914   0.38965   0.00000  Uiso   1.00
C20    C     0.21537   0.16000   0.11139   0.00000  Uiso   1.00
C21    C     0.05021   0.17607   0.46585   0.00000  Uiso   1.00
C22    C     0.26675   0.11931   0.04224   0.00000  Uiso   1.00
C23    C     0.06729   0.17238   0.41674   0.00000  Uiso   1.00
C24    C     0.25604   0.13396   0.08810   0.00000  Uiso   1.00
C25    C     0.15018   0.16865   0.41200   0.00000  Uiso   1.00
C26    C     0.18601   0.17365   0.08840   0.00000  Uiso   1.00
C27    C     0.13319   0.16164   0.46006   0.00000  Uiso   1.00
C28    C     0.19067   0.15355   0.04592   0.00000  Uiso   1.00
C29    C     0.08343   0.16998   0.48810   0.00000  Uiso   1.00
C30    C     0.23377   0.12892   0.02066   0.00000  Uiso   1.00
C31    C     0.16572   0.14862   0.48058   0.00000  Uiso   1.00
C32    C     0.15365   0.15732   0.02804   0.00000  Uiso   1.00
H33    H     0.27902   0.12427   0.10581   0.00000  Uiso   1.00
H34    H     0.04170   0.17418   0.39974   0.00000  Uiso   1.00
H35    H     0.09281   0.16857   0.09408   0.00000  Uiso   1.00
H36    H     0.21598   0.11425   0.41971   0.00000  Uiso   1.00
H37    H     0.22433   0.03724   0.18250   0.00000  Uiso   1.00
H38    H     0.10842   0.29605   0.31718   0.00000  Uiso   1.00
N39    N     0.04759   0.16668   0.25001   0.00000  Uiso   1.00
N40    N     0.28574   0.16666   0.24999   0.00000  Uiso   1.00
O41    O     0.12846   0.22775   0.25000   0.00000  Uiso   1.00
O42    O     0.20488   0.10558   0.25000   0.00000  Uiso   1.00
O43    O     0.20490   0.22774   0.25000   0.00000  Uiso   1.00
O44    O     0.12843   0.10559   0.25000   0.00000  Uiso   1.00
O45    O     0.10661   0.16667   0.31613   0.00000  Uiso   1.00
O46    O     0.22672   0.16666   0.18388   0.00000  Uiso   1.00
O47    O     0.18305   0.16666   0.31612   0.00000  Uiso   1.00
O48    O     0.15028   0.16667   0.18388   0.00000  Uiso   1.00
Zn49   Zn    0.11562   0.16667   0.25000   0.00000  Uiso   1.00
Zn50   Zn    0.21771   0.16666   0.25000   0.00000  Uiso   1.00
O51    O     0.02086   0.18068   0.06566   0.00000  Uiso   1.00
H52    H     0.01723   0.18124   0.09880   0.00000  Uiso   1.00
O53    O     0.28402   0.09082   0.44929   0.00000  Uiso   1.00
H54    H     0.28452   0.08396   0.41780   0.00000  Uiso   1.00
O55    O     0.15465   0.20776   0.10764   0.00000  Uiso   1.00
H56    H     0.15144   0.22373   0.08181   0.00000  Uiso   1.00
O57    O     0.19823   0.17844   0.38720   0.00000  Uiso   1.00
H58    H     0.21070   0.19346   0.40844   0.00000  Uiso   1.00
O59    O     0.00174   0.18553   0.49207   0.00000  Uiso   1.00
H60    H     0.31749   0.18930   0.47094   0.00000  Uiso   1.00
O61    O     0.30803   0.09446   0.01907   0.00000  Uiso   1.00
H62    H     0.32718   0.09168   0.03894   0.00000  Uiso   1.00
I63    I     0.24946   0.27854   0.14994   0.00000  Uiso   1.00
I64    I     0.08344   0.05474   0.34987   0.00000  Uiso   1.00
I65    I     0.30771   0.09474   0.17694   0.00000  Uiso   1.00
I66    I     0.02481   0.23444   0.32761   0.00000  Uiso   1.00
O67    O     0.07305   0.11072   0.19545   0.00000  Uiso   1.00
H68    H     0.05880   0.08441   0.18999   0.00000  Uiso   1.00
O69    O     0.26107   0.22368   0.30343   0.00000  Uiso   1.00
H70    H     0.27597   0.24898   0.31047   0.00000  Uiso   1.00
C71    C     0.49993   0.24649   0.24936   0.00000  Uiso   1.00
C72    C     0.50004   0.08684   0.25064   0.00000  Uiso   1.00
C73    C     0.43780   0.16702   0.05648   0.00000  Uiso   1.00
C74    C     0.54229   0.12546   0.45494   0.00000  Uiso   1.00
C75    C     0.40231   0.17220   0.03718   0.00000  Uiso   1.00
C76    C     0.57574   0.11447   0.47477   0.00000  Uiso   1.00
C77    C     0.53310   0.31090   0.21069   0.00000  Uiso   1.00
C78    C     0.46665   0.02242   0.28919   0.00000  Uiso   1.00
C79    C     0.53305   0.02077   0.21212   0.00000  Uiso   1.00
C80    C     0.46661   0.31254   0.28771   0.00000  Uiso   1.00
C81    C     0.50028   0.04271   0.25119   0.00000  Uiso   1.00
C82    C     0.49960   0.29060   0.24876   0.00000  Uiso   1.00
C83    C     0.65496   0.13823   0.22257   0.00000  Uiso   1.00
C84    C     0.34494   0.19455   0.27815   0.00000  Uiso   1.00
C85    C     0.36974   0.13835   0.22268   0.00000  Uiso   1.00
C86    C     0.63049   0.19520   0.27711   0.00000  Uiso   1.00
C87    C     0.46949   0.16774   0.33823   0.00000  Uiso   1.00
C88    C     0.53045   0.16636   0.16201   0.00000  Uiso   1.00
C89    C     0.45060   0.16914   0.38965   0.00000  Uiso   1.00
C90    C     0.54870   0.16000   0.11139   0.00000  Uiso   1.00
C91    C     0.38355   0.17607   0.46585   0.00000  Uiso   1.00
C92    C     0.60008   0.11931   0.04224   0.00000  Uiso   1.00
C93    C     0.40062   0.17238   0.41674   0.00000  Uiso   1.00
C94    C     0.58937   0.13396   0.08810   0.00000  Uiso   1.00
C95    C     0.48352   0.16865   0.41200   0.00000  Uiso   1.00
C96    C     0.51935   0.17365   0.08840   0.00000  Uiso   1.00
C97    C     0.46652   0.16164   0.46006   0.00000  Uiso   1.00
C98    C     0.52401   0.15355   0.04592   0.00000  Uiso   1.00
C99    C     0.41676   0.16998   0.48810   0.00000  Uiso   1.00
C100   C     0.56710   0.12892   0.02066   0.00000  Uiso   1.00
C101   C     0.49905   0.14862   0.48058   0.00000  Uiso   1.00
C102   C     0.48699   0.15732   0.02804   0.00000  Uiso   1.00
H103   H     0.61235   0.12427   0.10581   0.00000  Uiso   1.00
H104   H     0.37504   0.17418   0.39974   0.00000  Uiso   1.00
H105   H     0.42614   0.16857   0.09408   0.00000  Uiso   1.00
H106   H     0.54932   0.11425   0.41971   0.00000  Uiso   1.00
H107   H     0.55766   0.03724   0.18250   0.00000  Uiso   1.00
H108   H     0.44175   0.29605   0.31718   0.00000  Uiso   1.00
N109   N     0.38093   0.16668   0.25001   0.00000  Uiso   1.00
N110   N     0.61907   0.16666   0.24999   0.00000  Uiso   1.00
O111   O     0.46179   0.22775   0.25000   0.00000  Uiso   1.00
O112   O     0.53821   0.10558   0.25000   0.00000  Uiso   1.00
O113   O     0.53823   0.22774   0.25000   0.00000  Uiso   1.00
O114   O     0.46177   0.10559   0.25000   0.00000  Uiso   1.00
O115   O     0.43994   0.16667   0.31613   0.00000  Uiso   1.00
O116   O     0.56006   0.16666   0.18388   0.00000  Uiso   1.00
O117   O     0.51639   0.16666   0.31612   0.00000  Uiso   1.00
O118   O     0.48361   0.16667   0.18388   0.00000  Uiso   1.00
Zn119  Zn    0.44896   0.16667   0.25000   0.00000  Uiso   1.00
Zn120  Zn    0.55104   0.16666   0.25000   0.00000  Uiso   1.00
O121   O     0.35419   0.18068   0.06566   0.00000  Uiso   1.00
H122   H     0.35056   0.18124   0.09880   0.00000  Uiso   1.00
O123   O     0.61735   0.09082   0.44929   0.00000  Uiso   1.00
H124   H     0.61785   0.08396   0.41780   0.00000  Uiso   1.00
O125   O     0.48799   0.20776   0.10764   0.00000  Uiso   1.00
H126   H     0.48477   0.22373   0.08181   0.00000  Uiso   1.00
O127   O     0.53156   0.17844   0.38720   0.00000  Uiso   1.00
H128   H     0.54403   0.19346   0.40844   0.00000  Uiso   1.00
O129   O     0.33507   0.18553   0.49207   0.00000  Uiso   1.00
H130   H     0.65082   0.18930   0.47094   0.00000  Uiso   1.00
O131   O     0.64136   0.09446   0.01907   0.00000  Uiso   1.00
H132   H     0.66051   0.09168   0.03894   0.00000  Uiso   1.00
I133   I     0.58280   0.27854   0.14994   0.00000  Uiso   1.00
I134   I     0.41677   0.05474   0.34987   0.00000  Uiso   1.00
I135   I     0.64105   0.09474   0.17694   0.00000  Uiso   1.00
I136   I     0.35814   0.23444   0.32761   0.00000  Uiso   1.00
O137   O     0.40638   0.11072   0.19545   0.00000  Uiso   1.00
H138   H     0.39213   0.08441   0.18999   0.00000  Uiso   1.00
O139   O     0.59441   0.22368   0.30343   0.00000  Uiso   1.00
H140   H     0.60931   0.24898   0.31047   0.00000  Uiso   1.00
C141   C     0.83326   0.24649   0.24936   0.00000  Uiso   1.00
C142   C     0.83338   0.08684   0.25064   0.00000  Uiso   1.00
C143   C     0.77114   0.16702   0.05648   0.00000  Uiso   1.00
C144   C     0.87563   0.12546   0.45494   0.00000  Uiso   1.00
C145   C     0.73565   0.17220   0.03718   0.00000  Uiso   1.00
C146   C     0.90908   0.11447   0.47477   0.00000  Uiso   1.00
C147   C     0.86644   0.31090   0.21069   0.00000  Uiso   1.00
C148   C     0.79998   0.02242   0.28919   0.00000  Uiso   1.00
C149   C     0.86639   0.02077   0.21212   0.00000  Uiso   1.00
C150   C     0.79994   0.31254   0.28771   0.00000  Uiso   1.00
C151   C     0.83361   0.04271   0.25119   0.00000  Uiso   1.00
C152   C     0.83294   0.29060   0.24876   0.00000  Uiso   1.00
C153   C     0.98830   0.13823   0.22257   0.00000  Uiso   1.00
C154   C     0.67827   0.19455   0.27815   0.00000  Uiso   1.00
C155   C     0.70307   0.13835   0.22268   0.00000  Uiso   1.00
C156   C     0.96382   0.19520   0.27711   0.00000  Uiso   1.00
C157   C     0.80283   0.16774   0.33823   0.00000  Uiso   1.00
C158   C     0.86379   0.16636   0.16201   0.00000  Uiso   1.00
C159   C     0.78393   0.16914   0.38965   0.00000  Uiso   1.00
C160   C     0.88203   0.16000   0.11139   0.00000  Uiso   1.00
C161   C     0.71688   0.17607   0.46585   0.00000  Uiso   1.00
C162   C     0.93342   0.11931   0.04224   0.00000  Uiso   1.00
C163   C     0.73396   0.17238   0.41674   0.00000  Uiso   1.00
C164   C     0.92270   0.13396   0.08810   0.00000  Uiso   1.00
C165   C     0.81685   0.16865   0.41200   0.00000  Uiso   1.00
C166   C     0.85268   0.17365   0.08840   0.00000  Uiso   1.00
C167   C     0.79985   0.16164   0.46006   0.00000  Uiso   1.00
C168   C     0.85734   0.15355   0.04592   0.00000  Uiso   1.00
C169   C     0.75010   0.16998   0.48810   0.00000  Uiso   1.00
C170   C     0.90044   0.12892   0.02066   0.00000  Uiso   1.00
C171   C     0.83238   0.14862   0.48058   0.00000  Uiso   1.00
C172   C     0.82032   0.15732   0.02804   0.00000  Uiso   1.00
H173   H     0.94568   0.12427   0.10581   0.00000  Uiso   1.00
H174   H     0.70837   0.17418   0.39974   0.00000  Uiso   1.00
H175   H     0.75948   0.16857   0.09408   0.00000  Uiso   1.00
H176   H     0.88265   0.11425   0.41971   0.00000  Uiso   1.00
H177   H     0.89100   0.03724   0.18250   0.00000  Uiso   1.00
H178   H     0.77508   0.29605   0.31718   0.00000  Uiso   1.00
N179   N     0.71426   0.16668   0.25001   0.00000  Uiso   1.00
N180   N     0.95241   0.16666   0.24999   0.00000  Uiso   1.00
O181   O     0.79512   0.22775   0.25000   0.00000  Uiso   1.00
O182   O     0.87154   0.10558   0.25000   0.00000  Uiso   1.00
O183   O     0.87157   0.22774   0.25000   0.00000  Uiso   1.00
O184   O     0.79510   0.10559   0.25000   0.00000  Uiso   1.00
O185   O     0.77328   0.16667   0.31613   0.00000  Uiso   1.00
O186   O     0.89339   0.16666   0.18388   0.00000  Uiso   1.00
O187   O     0.84972   0.16666   0.31612   0.00000  Uiso   1.00
O188   O     0.81695   0.16667   0.18388   0.00000  Uiso   1.00
Zn189  Zn    0.78229   0.16667   0.25000   0.00000  Uiso   1.00
Zn190  Zn    0.88438   0.16666   0.25000   0.00000  Uiso   1.00
O191   O     0.68752   0.18068   0.06566   0.00000  Uiso   1.00
H192   H     0.68390   0.18124   0.09880   0.00000  Uiso   1.00
O193   O     0.95068   0.09082   0.44929   0.00000  Uiso   1.00
H194   H     0.95118   0.08396   0.41780   0.00000  Uiso   1.00
O195   O     0.82132   0.20776   0.10764   0.00000  Uiso   1.00
H196   H     0.81811   0.22373   0.08181   0.00000  Uiso   1.00
O197   O     0.86489   0.17844   0.38720   0.00000  Uiso   1.00
H198   H     0.87737   0.19346   0.40844   0.00000  Uiso   1.00
O199   O     0.66841   0.18553   0.49207   0.00000  Uiso   1.00
H200   H     0.98415   0.18930   0.47094   0.00000  Uiso   1.00
O201   O     0.97469   0.09446   0.01907   0.00000  Uiso   1.00
H202   H     0.99384   0.09168   0.03894   0.00000  Uiso   1.00
I203   I     0.91613   0.27854   0.14994   0.00000  Uiso   1.00
I204   I     0.75010   0.05474   0.34987   0.00000  Uiso   1.00
I205   I     0.97438   0.09474   0.17694   0.00000  Uiso   1.00
I206   I     0.69148   0.23444   0.32761   0.00000  Uiso   1.00
O207   O     0.73971   0.11072   0.19545   0.00000  Uiso   1.00
H208   H     0.72547   0.08441   0.18999   0.00000  Uiso   1.00
O209   O     0.92774   0.22368   0.30343   0.00000  Uiso   1.00
H210   H     0.94264   0.24898   0.31047   0.00000  Uiso   1.00
C211   C     0.16660   0.57983   0.24936   0.00000  Uiso   1.00
C212   C     0.16671   0.42017   0.25064   0.00000  Uiso   1.00
C213   C     0.10447   0.50036   0.05648   0.00000  Uiso   1.00
C214   C     0.20896   0.45879   0.45494   0.00000  Uiso   1.00
C215   C     0.06898   0.50554   0.03718   0.00000  Uiso   1.00
C216   C     0.24241   0.44781   0.47477   0.00000  Uiso   1.00
C217   C     0.19977   0.64423   0.21069   0.00000  Uiso   1.00
C218   C     0.13332   0.35575   0.28919   0.00000  Uiso   1.00
C219   C     0.19972   0.35411   0.21212   0.00000  Uiso   1.00
C220   C     0.13328   0.64587   0.28771   0.00000  Uiso   1.00
C221   C     0.16694   0.37605   0.25119   0.00000  Uiso   1.00
C222   C     0.16627   0.62394   0.24876   0.00000  Uiso   1.00
C223   C     0.32163   0.47157   0.22257   0.00000  Uiso   1.00
C224   C     0.01160   0.52788   0.27815   0.00000  Uiso   1.00
C225   C     0.03641   0.47168   0.22268   0.00000  Uiso   1.00
C226   C     0.29715   0.52854   0.27711   0.00000  Uiso   1.00
C227   C     0.13616   0.50107   0.33823   0.00000  Uiso   1.00
C228   C     0.19712   0.49970   0.16201   0.00000  Uiso   1.00
C229   C     0.11727   0.50247   0.38965   0.00000  Uiso   1.00
C230   C     0.21537   0.49333   0.11139   0.00000  Uiso   1.00
C231   C     0.05021   0.50941   0.46585   0.00000  Uiso   1.00
C232   C     0.26675   0.45265   0.04224   0.00000  Uiso   1.00
C233   C     0.06729   0.50572   0.41674   0.00000  Uiso   1.00
C234   C     0.25604   0.46730   0.08810   0.00000  Uiso   1.00
C235   C     0.15018   0.50198   0.41200   0.00000  Uiso   1.00
C236   C     0.18601   0.50698   0.08840   0.00000  Uiso   1.00
C237   C     0.13319   0.49497   0.46006   0.00000  Uiso   1.00
C238   C     0.19067   0.48689   0.04592   0.00000  Uiso   1.00
C239   C     0.08343   0.50331   0.48810   0.00000  Uiso   1.00
C240   C     0.23377   0.46225   0.02066   0.00000  Uiso   1.00
C241   C     0.16572   0.48196   0.48058   0.00000  Uiso   1.00
C242   C     0.15365   0.49065   0.02804   0.00000  Uiso   1.00
H243   H     0.27902   0.45760   0.10581   0.00000  Uiso   1.00
H244   H     0.04170   0.50751   0.39974   0.00000  Uiso   1.00
H245   H     0.09281   0.50190   0.09408   0.00000  Uiso   1.00
H246   H     0.21598   0.44758   0.41971   0.00000  Uiso   1.00
H247   H     0.22433   0.37057   0.18250   0.00000  Uiso   1.00
H248   H     0.10842   0.62939   0.31718   0.00000  Uiso   1.00
N249   N     0.04759   0.50001   0.25001   0.00000  Uiso   1.00
N250   N     0.28574   0.49999   0.24999   0.00000  Uiso   1.00
O251   O     0.12846   0.56108   0.25000   0.00000  Uiso   1.00
O252   O     0.20488   0.43892   0.25000   0.00000  Uiso   1.00
O253   O     0.20490   0.56107   0.25000   0.00000  Uiso   1.00
O254   O     0.12843   0.43893   0.25000   0.00000  Uiso   1.00
O255   O     0.10661   0.50001   0.31613   0.00000  Uiso   1.00
O256   O     0.22672   0.49999   0.18388   0.00000  Uiso   1.00
O257   O     0.18305   0.50000   0.31612   0.00000  Uiso   1.00
O258   O     0.15028   0.50000   0.18388   0.00000  Uiso   1.00
Zn259  Zn    0.11562   0.50001   0.25000   0.00000  Uiso   1.00
Zn260  Zn    0.21771   0.49999   0.25000   0.00000  Uiso   1.00
O261   O     0.02086   0.51402   0.06566   0.00000  Uiso   1.00
H262   H     0.01723   0.51458   0.09880   0.00000  Uiso   1.00
O263   O     0.28402   0.42415   0.44929   0.00000  Uiso   1.00
H264   H     0.28452   0.41730   0.41780   0.00000  Uiso   1.00
O265   O     0.15465   0.54109   0.10764   0.00000  Uiso   1.00
H266   H     0.15144   0.55707   0.08181   0.00000  Uiso   1.00
O267   O     0.19823   0.51178   0.38720   0.00000  Uiso   1.00
H268   H     0.21070   0.52680   0.40844   0.00000  Uiso   1.00
O269   O     0.00174   0.51886   0.49207   0.00000  Uiso   1.00
H270   H     0.31749   0.52263   0.47094   0.00000  Uiso   1.00
O271   O     0.30803   0.42779   0.01907   0.00000  Uiso   1.00
H272   H     0.32718   0.42502   0.03894   0.00000  Uiso   1.00
I273   I     0.24946   0.61188   0.14994   0.00000  Uiso   1.00
I274   I     0.08344   0.38808   0.34987   0.00000  Uiso   1.00
I275   I     0.30771   0.42807   0.17694   0.00000  Uiso   1.00
I276   I     0.02481   0.56777   0.32761   0.00000  Uiso   1.00
O277   O     0.07305   0.44406   0.19545   0.00000  Uiso   1.00
H278   H     0.05880   0.41774   0.18999   0.00000  Uiso   1.00
O279   O     0.26107   0.55701   0.30343   0.00000  Uiso   1.00
H280   H     0.27597   0.58231   0.31047   0.00000  Uiso   1.00
C281   C     0.49993   0.57983   0.24936   0.00000  Uiso   1.00
C282   C     0.50004   0.42017   0.25064   0.00000  Uiso   1.00
C283   C     0.43780   0.50036   0.05648   0.00000  Uiso   1.00
C284   C     0.54229   0.45879   0.45494   0.00000  Uiso   1.00
C285   C     0.40231   0.50554   0.03718   0.00000  Uiso   1.00
C286   C     0.57574   0.44781   0.47477   0.00000  Uiso   1.00
C287   C     0.53310   0.64423   0.21069   0.00000  Uiso   1.00
C288   C     0.46665   0.35575   0.28919   0.00000  Uiso   1.00
C289   C     0.53305   0.35411   0.21212   0.00000  Uiso   1.00
C290   C     0.46661   0.64587   0.28771   0.00000  Uiso   1.00
C291   C     0.50028   0.37605   0.25119   0.00000  Uiso   1.00
C292   C     0.49960   0.62394   0.24876   0.00000  Uiso   1.00
C293   C     0.65496   0.47157   0.22257   0.00000  Uiso   1.00
C294   C     0.34494   0.52788   0.27815   0.00000  Uiso   1.00
C295   C     0.36974   0.47168   0.22268   0.00000  Uiso   1.00
C296   C     0.63049   0.52854   0.27711   0.00000  Uiso   1.00
C297   C     0.46949   0.50107   0.33823   0.00000  Uiso   1.00
C298   C     0.53045   0.49970   0.16201   0.00000  Uiso   1.00
C299   C     0.45060   0.50247   0.38965   0.00000  Uiso   1.00
C300   C     0.54870   0.49333   0.11139   0.00000  Uiso   1.00
C301   C     0.38355   0.50941   0.46585   0.00000  Uiso   1.00
C302   C     0.60008   0.45265   0.04224   0.00000  Uiso   1.00
C303   C     0.40062   0.50572   0.41674   0.00000  Uiso   1.00
C304   C     0.58937   0.46730   0.08810   0.00000  Uiso   1.00
C305   C     0.48352   0.50198   0.41200   0.00000  Uiso   1.00
C306   C     0.51935   0.50698   0.08840   0.00000  Uiso   1.00
C307   C     0.46652   0.49497   0.46006   0.00000  Uiso   1.00
C308   C     0.52401   0.48689   0.04592   0.00000  Uiso   1.00
C309   C     0.41676   0.50331   0.48810   0.00000  Uiso   1.00
C310   C     0.56710   0.46225   0.02066   0.00000  Uiso   1.00
C311   C     0.49905   0.48196   0.48058   0.00000  Uiso   1.00
C312   C     0.48699   0.49065   0.02804   0.00000  Uiso   1.00
H313   H     0.61235   0.45760   0.10581   0.00000  Uiso   1.00
H314   H     0.37504   0.50751   0.39974   0.00000  Uiso   1.00
H315   H     0.42614   0.50190   0.09408   0.00000  Uiso   1.00
H316   H     0.54932   0.44758   0.41971   0.00000  Uiso   1.00
H317   H     0.55766   0.37057   0.18250   0.00000  Uiso   1.00
H318   H     0.44175   0.62939   0.31718   0.00000  Uiso   1.00
N319   N     0.38093   0.50001   0.25001   0.00000  Uiso   1.00
N320   N     0.61907   0.49999   0.24999   0.00000  Uiso   1.00
O321   O     0.46179   0.56108   0.25000   0.00000  Uiso   1.00
O322   O     0.53821   0.43892   0.25000   0.00000  Uiso   1.00
O323   O     0.53823   0.56107   0.25000   0.00000  Uiso   1.00
O324   O     0.46177   0.43893   0.25000   0.00000  Uiso   1.00
O325   O     0.43994   0.50001   0.31613   0.00000  Uiso   1.00
O326   O     0.56006   0.49999   0.18388   0.00000  Uiso   1.00
O327   O     0.51639   0.50000   0.31612   0.00000  Uiso   1.00
O328   O     0.48361   0.50000   0.18388   0.00000  Uiso   1.00
Zn329  Zn    0.44896   0.50001   0.25000   0.00000  Uiso   1.00
Zn330  Zn    0.55104   0.49999   0.25000   0.00000  Uiso   1.00
O331   O     0.35419   0.51402   0.06566   0.00000  Uiso   1.00
H332   H     0.35056   0.51458   0.09880   0.00000  Uiso   1.00
O333   O     0.61735   0.42415   0.44929   0.00000  Uiso   1.00
H334   H     0.61785   0.41730   0.41780   0.00000  Uiso   1.00
O335   O     0.48799   0.54109   0.10764   0.00000  Uiso   1.00
H336   H     0.48477   0.55707   0.08181   0.00000  Uiso   1.00
O337   O     0.53156   0.51178   0.38720   0.00000  Uiso   1.00
H338   H     0.54403   0.52680   0.40844   0.00000  Uiso   1.00
O339   O     0.33507   0.51886   0.49207   0.00000  Uiso   1.00
H340   H     0.65082   0.52263   0.47094   0.00000  Uiso   1.00
O341   O     0.64136   0.42779   0.01907   0.00000  Uiso   1.00
H342   H     0.66051   0.42502   0.03894   0.00000  Uiso   1.00
I343   I     0.58280   0.61188   0.14994   0.00000  Uiso   1.00
I344   I     0.41677   0.38808   0.34987   0.00000  Uiso   1.00
I345   I     0.64105   0.42807   0.17694   0.00000  Uiso   1.00
I346   I     0.35814   0.56777   0.32761   0.00000  Uiso   1.00
O347   O     0.40638   0.44406   0.19545   0.00000  Uiso   1.00
H348   H     0.39213   0.41774   0.18999   0.00000  Uiso   1.00
O349   O     0.59441   0.55701   0.30343   0.00000  Uiso   1.00
H350   H     0.60931   0.58231   0.31047   0.00000  Uiso   1.00
C351   C     0.83326   0.57983   0.24936   0.00000  Uiso   1.00
C352   C     0.83338   0.42017   0.25064   0.00000  Uiso   1.00
C353   C     0.77114   0.50036   0.05648   0.00000  Uiso   1.00
C354   C     0.87563   0.45879   0.45494   0.00000  Uiso   1.00
C355   C     0.73565   0.50554   0.03718   0.00000  Uiso   1.00
C356   C     0.90908   0.44781   0.47477   0.00000  Uiso   1.00
C357   C     0.86644   0.64423   0.21069   0.00000  Uiso   1.00
C358   C     0.79998   0.35575   0.28919   0.00000  Uiso   1.00
C359   C     0.86639   0.35411   0.21212   0.00000  Uiso   1.00
C360   C     0.79994   0.64587   0.28771   0.00000  Uiso   1.00
C361   C     0.83361   0.37605   0.25119   0.00000  Uiso   1.00
C362   C     0.83294   0.62394   0.24876   0.00000  Uiso   1.00
C363   C     0.98830   0.47157   0.22257   0.00000  Uiso   1.00
C364   C     0.67827   0.52788   0.27815   0.00000  Uiso   1.00
C365   C     0.70307   0.47168   0.22268   0.00000  Uiso   1.00
C366   C     0.96382   0.52854   0.27711   0.00000  Uiso   1.00
C367   C     0.80283   0.50107   0.33823   0.00000  Uiso   1.00
C368   C     0.86379   0.49970   0.16201   0.00000  Uiso   1.00
C369   C     0.78393   0.50247   0.38965   0.00000  Uiso   1.00
C370   C     0.88203   0.49333   0.11139   0.00000  Uiso   1.00
C371   C     0.71688   0.50941   0.46585   0.00000  Uiso   1.00
C372   C     0.93342   0.45265   0.04224   0.00000  Uiso   1.00
C373   C     0.73396   0.50572   0.41674   0.00000  Uiso   1.00
C374   C     0.92270   0.46730   0.08810   0.00000  Uiso   1.00
C375   C     0.81685   0.50198   0.41200   0.00000  Uiso   1.00
C376   C     0.85268   0.50698   0.08840   0.00000  Uiso   1.00
C377   C     0.79985   0.49497   0.46006   0.00000  Uiso   1.00
C378   C     0.85734   0.48689   0.04592   0.00000  Uiso   1.00
C379   C     0.75010   0.50331   0.48810   0.00000  Uiso   1.00
C380   C     0.90044   0.46225   0.02066   0.00000  Uiso   1.00
C381   C     0.83238   0.48196   0.48058   0.00000  Uiso   1.00
C382   C     0.82032   0.49065   0.02804   0.00000  Uiso   1.00
H383   H     0.94568   0.45760   0.10581   0.00000  Uiso   1.00
H384   H     0.70837   0.50751   0.39974   0.00000  Uiso   1.00
H385   H     0.75948   0.50190   0.09408   0.00000  Uiso   1.00
H386   H     0.88265   0.44758   0.41971   0.00000  Uiso   1.00
H387   H     0.89100   0.37057   0.18250   0.00000  Uiso   1.00
H388   H     0.77508   0.62939   0.31718   0.00000  Uiso   1.00
N389   N     0.71426   0.50001   0.25001   0.00000  Uiso   1.00
N390   N     0.95241   0.49999   0.24999   0.00000  Uiso   1.00
O391   O     0.79512   0.56108   0.25000   0.00000  Uiso   1.00
O392   O     0.87154   0.43892   0.25000   0.00000  Uiso   1.00
O393   O     0.87157   0.56107   0.25000   0.00000  Uiso   1.00
O394   O     0.79510   0.43893   0.25000   0.00000  Uiso   1.00
O395   O     0.77328   0.50001   0.31613   0.00000  Uiso   1.00
O396   O     0.89339   0.49999   0.18388   0.00000  Uiso   1.00
O397   O     0.84972   0.50000   0.31612   0.00000  Uiso   1.00
O398   O     0.81695   0.50000   0.18388   0.00000  Uiso   1.00
Zn399  Zn    0.78229   0.50001   0.25000   0.00000  Uiso   1.00
Zn400  Zn    0.88438   0.49999   0.25000   0.00000  Uiso   1.00
O401   O     0.68752   0.51402   0.06566   0.00000  Uiso   1.00
H402   H     0.68390   0.51458   0.09880   0.00000  Uiso   1.00
O403   O     0.95068   0.42415   0.44929   0.00000  Uiso   1.00
H404   H     0.95118   0.41730   0.41780   0.00000  Uiso   1.00
O405   O     0.82132   0.54109   0.10764   0.00000  Uiso   1.00
H406   H     0.81811   0.55707   0.08181   0.00000  Uiso   1.00
O407   O     0.86489   0.51178   0.38720   0.00000  Uiso   1.00
H408   H     0.87737   0.52680   0.40844   0.00000  Uiso   1.00
O409   O     0.66841   0.51886   0.49207   0.00000  Uiso   1.00
H410   H     0.98415   0.52263   0.47094   0.00000  Uiso   1.00
O411   O     0.97469   0.42779   0.01907   0.00000  Uiso   1.00
H412   H     0.99384   0.42502   0.03894   0.00000  Uiso   1.00
I413   I     0.91613   0.61188   0.14994   0.00000  Uiso   1.00
I414   I     0.75010   0.38808   0.34987   0.00000  Uiso   1.00
I415   I     0.97438   0.42807   0.17694   0.00000  Uiso   1.00
I416   I     0.69148   0.56777   0.32761   0.00000  Uiso   1.00
O417   O     0.73971   0.44406   0.19545   0.00000  Uiso   1.00
H418   H     0.72547   0.41774   0.18999   0.00000  Uiso   1.00
O419   O     0.92774   0.55701   0.30343   0.00000  Uiso   1.00
H420   H     0.94264   0.58231   0.31047   0.00000  Uiso   1.00
C421   C     0.16660   0.91316   0.24936   0.00000  Uiso   1.00
C422   C     0.16671   0.75350   0.25064   0.00000  Uiso   1.00
C423   C     0.10447   0.83369   0.05648   0.00000  Uiso   1.00
C424   C     0.20896   0.79213   0.45494   0.00000  Uiso   1.00
C425   C     0.06898   0.83887   0.03718   0.00000  Uiso   1.00
C426   C     0.24241   0.78114   0.47477   0.00000  Uiso   1.00
C427   C     0.19977   0.97756   0.21069   0.00000  Uiso   1.00
C428   C     0.13332   0.68908   0.28919   0.00000  Uiso   1.00
C429   C     0.19972   0.68744   0.21212   0.00000  Uiso   1.00
C430   C     0.13328   0.97920   0.28771   0.00000  Uiso   1.00
C431   C     0.16694   0.70938   0.25119   0.00000  Uiso   1.00
C432   C     0.16627   0.95727   0.24876   0.00000  Uiso   1.00
C433   C     0.32163   0.80490   0.22257   0.00000  Uiso   1.00
C434   C     0.01160   0.86122   0.27815   0.00000  Uiso   1.00
C435   C     0.03641   0.80501   0.22268   0.00000  Uiso   1.00
C436   C     0.29715   0.86187   0.27711   0.00000  Uiso   1.00
C437   C     0.13616   0.83440   0.33823   0.00000  Uiso   1.00
C438   C     0.19712   0.83303   0.16201   0.00000  Uiso   1.00
C439   C     0.11727   0.83581   0.38965   0.00000  Uiso   1.00
C440   C     0.21537   0.82667   0.11139   0.00000  Uiso   1.00
C441   C     0.05021   0.84274   0.46585   0.00000  Uiso   1.00
C442   C     0.26675   0.78598   0.04224   0.00000  Uiso   1.00
C443   C     0.06729   0.83905   0.41674   0.00000  Uiso   1.00
C444   C     0.25604   0.80063   0.08810   0.00000  Uiso   1.00
C445   C     0.15018   0.83531   0.41200   0.00000  Uiso   1.00
C446   C     0.18601   0.84031   0.08840   0.00000  Uiso   1.00
C447   C     0.13319   0.82830   0.46006   0.00000  Uiso   1.00
C448   C     0.19067   0.82022   0.04592   0.00000  Uiso   1.00
C449   C     0.08343   0.83664   0.48810   0.00000  Uiso   1.00
C450   C     0.23377   0.79558   0.02066   0.00000  Uiso   1.00
C451   C     0.16572   0.81529   0.48058   0.00000  Uiso   1.00
C452   C     0.15365   0.82398   0.02804   0.00000  Uiso   1.00
H453   H     0.27902   0.79094   0.10581   0.00000  Uiso   1.00
H454   H     0.04170   0.84085   0.39974   0.00000  Uiso   1.00
H455   H     0.09281   0.83523   0.09408   0.00000  Uiso   1.00
H456   H     0.21598   0.78092   0.41971   0.00000  Uiso   1.00
H457   H     0.22433   0.70390   0.18250   0.00000  Uiso   1.00
H458   H     0.10842   0.96272   0.31718   0.00000  Uiso   1.00
N459   N     0.04759   0.83334   0.25001   0.00000  Uiso   1.00
N460   N     0.28574   0.83332   0.24999   0.00000  Uiso   1.00
O461   O     0.12846   0.89442   0.25000   0.00000  Uiso   1.00
O462   O     0.20488   0.77225   0.25000   0.00000  Uiso   1.00
O463   O     0.20490   0.89441   0.25000   0.00000  Uiso   1.00
O464   O     0.12843   0.77226   0.25000   0.00000  Uiso   1.00
O465   O     0.10661   0.83334   0.31613   0.00000  Uiso   1.00
O466   O     0.22672   0.83333   0.18388   0.00000  Uiso   1.00
O467   O     0.18305   0.83333   0.31612   0.00000  Uiso   1.00
O468   O     0.15028   0.83334   0.18388   0.00000  Uiso   1.00
Zn469  Zn    0.11562   0.83334   0.25000   0.00000  Uiso   1.00
Zn470  Zn    0.21771   0.83333   0.25000   0.00000  Uiso   1.00
O471   O     0.02086   0.84735   0.06566   0.00000  Uiso   1.00
H472   H     0.01723   0.84791   0.09880   0.00000  Uiso   1.00
O473   O     0.28402   0.75749   0.44929   0.00000  Uiso   1.00
H474   H     0.28452   0.75063   0.41780   0.00000  Uiso   1.00
O475   O     0.15465   0.87443   0.10764   0.00000  Uiso   1.00
H476   H     0.15144   0.89040   0.08181   0.00000  Uiso   1.00
O477   O     0.19823   0.84511   0.38720   0.00000  Uiso   1.00
H478   H     0.21070   0.86013   0.40844   0.00000  Uiso   1.00
O479   O     0.00174   0.85220   0.49207   0.00000  Uiso   1.00
H480   H     0.31749   0.85596   0.47094   0.00000  Uiso   1.00
O481   O     0.30803   0.76113   0.01907   0.00000  Uiso   1.00
H482   H     0.32718   0.75835   0.03894   0.00000  Uiso   1.00
I483   I     0.24946   0.94521   0.14994   0.00000  Uiso   1.00
I484   I     0.08344   0.72141   0.34987   0.00000  Uiso   1.00
I485   I     0.30771   0.76140   0.17694   0.00000  Uiso   1.00
I486   I     0.02481   0.90110   0.32761   0.00000  Uiso   1.00
O487   O     0.07305   0.77739   0.19545   0.00000  Uiso   1.00
H488   H     0.05880   0.75108   0.18999   0.00000  Uiso   1.00
O489   O     0.26107   0.89035   0.30343   0.00000  Uiso   1.00
H490   H     0.27597   0.91564   0.31047   0.00000  Uiso   1.00
C491   C     0.49993   0.91316   0.24936   0.00000  Uiso   1.00
C492   C     0.50004   0.75350   0.25064   0.00000  Uiso   1.00
C493   C     0.43780   0.83369   0.05648   0.00000  Uiso   1.00
C494   C     0.54229   0.79213   0.45494   0.00000  Uiso   1.00
C495   C     0.40231   0.83887   0.03718   0.00000  Uiso   1.00
C496   C     0.57574   0.78114   0.47477   0.00000  Uiso   1.00
C497   C     0.53310   0.97756   0.21069   0.00000  Uiso   1.00
C498   C     0.46665   0.68908   0.28919   0.00000  Uiso   1.00
C499   C     0.53305   0.68744   0.21212   0.00000  Uiso   1.00
C500   C     0.46661   0.97920   0.28771   0.00000  Uiso   1.00
C501   C     0.50028   0.70938   0.25119   0.00000  Uiso   1.00
C502   C     0.49960   0.95727   0.24876   0.00000  Uiso   1.00
C503   C     0.65496   0.80490   0.22257   0.00000  Uiso   1.00
C504   C     0.34494   0.86122   0.27815   0.00000  Uiso   1.00
C505   C     0.36974   0.80501   0.22268   0.00000  Uiso   1.00
C506   C     0.63049   0.86187   0.27711   0.00000  Uiso   1.00
C507   C     0.46949   0.83440   0.33823   0.00000  Uiso   1.00
C508   C     0.53045   0.83303   0.16201   0.00000  Uiso   1.00
C509   C     0.45060   0.83581   0.38965   0.00000  Uiso   1.00
C510   C     0.54870   0.82667   0.11139   0.00000  Uiso   1.00
C511   C     0.38355   0.84274   0.46585   0.00000  Uiso   1.00
C512   C     0.60008   0.78598   0.04224   0.00000  Uiso   1.00
C513   C     0.40062   0.83905   0.41674   0.00000  Uiso   1.00
C514   C     0.58937   0.80063   0.08810   0.00000  Uiso   1.00
C515   C     0.48352   0.83531   0.41200   0.00000  Uiso   1.00
C516   C     0.51935   0.84031   0.08840   0.00000  Uiso   1.00
C517   C     0.46652   0.82830   0.46006   0.00000  Uiso   1.00
C518   C     0.52401   0.82022   0.04592   0.00000  Uiso   1.00
C519   C     0.41676   0.83664   0.48810   0.00000  Uiso   1.00
C520   C     0.56710   0.79558   0.02066   0.00000  Uiso   1.00
C521   C     0.49905   0.81529   0.48058   0.00000  Uiso   1.00
C522   C     0.48699   0.82398   0.02804   0.00000  Uiso   1.00
H523   H     0.61235   0.79094   0.10581   0.00000  Uiso   1.00
H524   H     0.37504   0.84085   0.39974   0.00000  Uiso   1.00
H525   H     0.42614   0.83523   0.09408   0.00000  Uiso   1.00
H526   H     0.54932   0.78092   0.41971   0.00000  Uiso   1.00
H527   H     0.55766   0.70390   0.18250   0.00000  Uiso   1.00
H528   H     0.44175   0.96272   0.31718   0.00000  Uiso   1.00
N529   N     0.38093   0.83334   0.25001   0.00000  Uiso   1.00
N530   N     0.61907   0.83332   0.24999   0.00000  Uiso   1.00
O531   O     0.46179   0.89442   0.25000   0.00000  Uiso   1.00
O532   O     0.53821   0.77225   0.25000   0.00000  Uiso   1.00
O533   O     0.53823   0.89441   0.25000   0.00000  Uiso   1.00
O534   O     0.46177   0.77226   0.25000   0.00000  Uiso   1.00
O535   O     0.43994   0.83334   0.31613   0.00000  Uiso   1.00
O536   O     0.56006   0.83333   0.18388   0.00000  Uiso   1.00
O537   O     0.51639   0.83333   0.31612   0.00000  Uiso   1.00
O538   O     0.48361   0.83334   0.18388   0.00000  Uiso   1.00
Zn539  Zn    0.44896   0.83334   0.25000   0.00000  Uiso   1.00
Zn540  Zn    0.55104   0.83333   0.25000   0.00000  Uiso   1.00
O541   O     0.35419   0.84735   0.06566   0.00000  Uiso   1.00
H542   H     0.35056   0.84791   0.09880   0.00000  Uiso   1.00
O543   O     0.61735   0.75749   0.44929   0.00000  Uiso   1.00
H544   H     0.61785   0.75063   0.41780   0.00000  Uiso   1.00
O545   O     0.48799   0.87443   0.10764   0.00000  Uiso   1.00
H546   H     0.48477   0.89040   0.08181   0.00000  Uiso   1.00
O547   O     0.53156   0.84511   0.38720   0.00000  Uiso   1.00
H548   H     0.54403   0.86013   0.40844   0.00000  Uiso   1.00
O549   O     0.33507   0.85220   0.49207   0.00000  Uiso   1.00
H550   H     0.65082   0.85596   0.47094   0.00000  Uiso   1.00
O551   O     0.64136   0.76113   0.01907   0.00000  Uiso   1.00
H552   H     0.66051   0.75835   0.03894   0.00000  Uiso   1.00
I553   I     0.58280   0.94521   0.14994   0.00000  Uiso   1.00
I554   I     0.41677   0.72141   0.34987   0.00000  Uiso   1.00
I555   I     0.64105   0.76140   0.17694   0.00000  Uiso   1.00
I556   I     0.35814   0.90110   0.32761   0.00000  Uiso   1.00
O557   O     0.40638   0.77739   0.19545   0.00000  Uiso   1.00
H558   H     0.39213   0.75108   0.18999   0.00000  Uiso   1.00
O559   O     0.59441   0.89035   0.30343   0.00000  Uiso   1.00
H560   H     0.60931   0.91564   0.31047   0.00000  Uiso   1.00
C561   C     0.83326   0.91316   0.24936   0.00000  Uiso   1.00
C562   C     0.83338   0.75350   0.25064   0.00000  Uiso   1.00
C563   C     0.77114   0.83369   0.05648   0.00000  Uiso   1.00
C564   C     0.87563   0.79213   0.45494   0.00000  Uiso   1.00
C565   C     0.73565   0.83887   0.03718   0.00000  Uiso   1.00
C566   C     0.90908   0.78114   0.47477   0.00000  Uiso   1.00
C567   C     0.86644   0.97756   0.21069   0.00000  Uiso   1.00
C568   C     0.79998   0.68908   0.28919   0.00000  Uiso   1.00
C569   C     0.86639   0.68744   0.21212   0.00000  Uiso   1.00
C570   C     0.79994   0.97920   0.28771   0.00000  Uiso   1.00
C571   C     0.83361   0.70938   0.25119   0.00000  Uiso   1.00
C572   C     0.83294   0.95727   0.24876   0.00000  Uiso   1.00
C573   C     0.98830   0.80490   0.22257   0.00000  Uiso   1.00
C574   C     0.67827   0.86122   0.27815   0.00000  Uiso   1.00
C575   C     0.70307   0.80501   0.22268   0.00000  Uiso   1.00
C576   C     0.96382   0.86187   0.27711   0.00000  Uiso   1.00
C577   C     0.80283   0.83440   0.33823   0.00000  Uiso   1.00
C578   C     0.86379   0.83303   0.16201   0.00000  Uiso   1.00
C579   C     0.78393   0.83581   0.38965   0.00000  Uiso   1.00
C580   C     0.88203   0.82667   0.11139   0.00000  Uiso   1.00
C581   C     0.71688   0.84274   0.46585   0.00000  Uiso   1.00
C582   C     0.93342   0.78598   0.04224   0.00000  Uiso   1.00
C583   C     0.73396   0.83905   0.41674   0.00000  Uiso   1.00
C584   C     0.92270   0.80063   0.08810   0.00000  Uiso   1.00
C585   C     0.81685   0.83531   0.41200   0.00000  Uiso   1.00
C586   C     0.85268   0.84031   0.08840   0.00000  Uiso   1.00
C587   C     0.79985   0.82830   0.46006   0.00000  Uiso   1.00
C588   C     0.85734   0.82022   0.04592   0.00000  Uiso   1.00
C589   C     0.75010   0.83664   0.48810   0.00000  Uiso   1.00
C590   C     0.90044   0.79558   0.02066   0.00000  Uiso   1.00
C591   C     0.83238   0.81529   0.48058   0.00000  Uiso   1.00
C592   C     0.82032   0.82398   0.02804   0.00000  Uiso   1.00
H593   H     0.94568   0.79094   0.10581   0.00000  Uiso   1.00
H594   H     0.70837   0.84085   0.39974   0.00000  Uiso   1.00
H595   H     0.75948   0.83523   0.09408   0.00000  Uiso   1.00
H596   H     0.88265   0.78092   0.41971   0.00000  Uiso   1.00
H597   H     0.89100   0.70390   0.18250   0.00000  Uiso   1.00
H598   H     0.77508   0.96272   0.31718   0.00000  Uiso   1.00
N599   N     0.71426   0.83334   0.25001   0.00000  Uiso   1.00
N600   N     0.95241   0.83332   0.24999   0.00000  Uiso   1.00
O601   O     0.79512   0.89442   0.25000   0.00000  Uiso   1.00
O602   O     0.87154   0.77225   0.25000   0.00000  Uiso   1.00
O603   O     0.87157   0.89441   0.25000   0.00000  Uiso   1.00
O604   O     0.79510   0.77226   0.25000   0.00000  Uiso   1.00
O605   O     0.77328   0.83334   0.31613   0.00000  Uiso   1.00
O606   O     0.89339   0.83333   0.18388   0.00000  Uiso   1.00
O607   O     0.84972   0.83333   0.31612   0.00000  Uiso   1.00
O608   O     0.81695   0.83334   0.18388   0.00000  Uiso   1.00
Zn609  Zn    0.78229   0.83334   0.25000   0.00000  Uiso   1.00
Zn610  Zn    0.88438   0.83333   0.25000   0.00000  Uiso   1.00
O611   O     0.68752   0.84735   0.06566   0.00000  Uiso   1.00
H612   H     0.68390   0.84791   0.09880   0.00000  Uiso   1.00
O613   O     0.95068   0.75749   0.44929   0.00000  Uiso   1.00
H614   H     0.95118   0.75063   0.41780   0.00000  Uiso   1.00
O615   O     0.82132   0.87443   0.10764   0.00000  Uiso   1.00
H616   H     0.81811   0.89040   0.08181   0.00000  Uiso   1.00
O617   O     0.86489   0.84511   0.38720   0.00000  Uiso   1.00
H618   H     0.87737   0.86013   0.40844   0.00000  Uiso   1.00
O619   O     0.66841   0.85220   0.49207   0.00000  Uiso   1.00
H620   H     0.98415   0.85596   0.47094   0.00000  Uiso   1.00
O621   O     0.97469   0.76113   0.01907   0.00000  Uiso   1.00
H622   H     0.99384   0.75835   0.03894   0.00000  Uiso   1.00
I623   I     0.91613   0.94521   0.14994   0.00000  Uiso   1.00
I624   I     0.75010   0.72141   0.34987   0.00000  Uiso   1.00
I625   I     0.97438   0.76140   0.17694   0.00000  Uiso   1.00
I626   I     0.69148   0.90110   0.32761   0.00000  Uiso   1.00
O627   O     0.73971   0.77739   0.19545   0.00000  Uiso   1.00
H628   H     0.72547   0.75108   0.18999   0.00000  Uiso   1.00
O629   O     0.92774   0.89035   0.30343   0.00000  Uiso   1.00
H630   H     0.94264   0.91564   0.31047   0.00000  Uiso   1.00
C631   C     0.16660   0.24649   0.74936   0.00000  Uiso   1.00
C632   C     0.16671   0.08684   0.75064   0.00000  Uiso   1.00
C633   C     0.10447   0.16702   0.55648   0.00000  Uiso   1.00
C634   C     0.20896   0.12546   0.95494   0.00000  Uiso   1.00
C635   C     0.06898   0.17220   0.53718   0.00000  Uiso   1.00
C636   C     0.24241   0.11447   0.97477   0.00000  Uiso   1.00
C637   C     0.19977   0.31090   0.71069   0.00000  Uiso   1.00
C638   C     0.13332   0.02242   0.78919   0.00000  Uiso   1.00
C639   C     0.19972   0.02077   0.71212   0.00000  Uiso   1.00
C640   C     0.13328   0.31254   0.78771   0.00000  Uiso   1.00
C641   C     0.16694   0.04271   0.75119   0.00000  Uiso   1.00
C642   C     0.16627   0.29060   0.74876   0.00000  Uiso   1.00
C643   C     0.32163   0.13823   0.72257   0.00000  Uiso   1.00
C644   C     0.01160   0.19455   0.77815   0.00000  Uiso   1.00
C645   C     0.03641   0.13835   0.72268   0.00000  Uiso   1.00
C646   C     0.29715   0.19520   0.77711   0.00000  Uiso   1.00
C647   C     0.13616   0.16774   0.83823   0.00000  Uiso   1.00
C648   C     0.19712   0.16636   0.66201   0.00000  Uiso   1.00
C649   C     0.11727   0.16914   0.88965   0.00000  Uiso   1.00
C650   C     0.21537   0.16000   0.61139   0.00000  Uiso   1.00
C651   C     0.05021   0.17607   0.96585   0.00000  Uiso   1.00
C652   C     0.26675   0.11931   0.54224   0.00000  Uiso   1.00
C653   C     0.06729   0.17238   0.91674   0.00000  Uiso   1.00
C654   C     0.25604   0.13396   0.58810   0.00000  Uiso   1.00
C655   C     0.15018   0.16865   0.91200   0.00000  Uiso   1.00
C656   C     0.18601   0.17365   0.58840   0.00000  Uiso   1.00
C657   C     0.13319   0.16164   0.96006   0.00000  Uiso   1.00
C658   C     0.19067   0.15355   0.54592   0.00000  Uiso   1.00
C659   C     0.08343   0.16998   0.98810   0.00000  Uiso   1.00
C660   C     0.23377   0.12892   0.52066   0.00000  Uiso   1.00
C661   C     0.16572   0.14862   0.98058   0.00000  Uiso   1.00
C662   C     0.15365   0.15732   0.52804   0.00000  Uiso   1.00
H663   H     0.27902   0.12427   0.60581   0.00000  Uiso   1.00
H664   H     0.04170   0.17418   0.89974   0.00000  Uiso   1.00
H665   H     0.09281   0.16857   0.59408   0.00000  Uiso   1.00
H666   H     0.21598   0.11425   0.91971   0.00000  Uiso   1.00
H667   H     0.22433   0.03724   0.68250   0.00000  Uiso   1.00
H668   H     0.10842   0.29605   0.81718   0.00000  Uiso   1.00
N669   N     0.04759   0.16668   0.75001   0.00000  Uiso   1.00
N670   N     0.28574   0.16666   0.74999   0.00000  Uiso   1.00
O671   O     0.12846   0.22775   0.75000   0.00000  Uiso   1.00
O672   O     0.20488   0.10558   0.75000   0.00000  Uiso   1.00
O673   O     0.20490   0.22774   0.75000   0.00000  Uiso   1.00
O674   O     0.12843   0.10559   0.75000   0.00000  Uiso   1.00
O675   O     0.10661   0.16667   0.81613   0.00000  Uiso   1.00
O676   O     0.22672   0.16666   0.68388   0.00000  Uiso   1.00
O677   O     0.18305   0.16666   0.81612   0.00000  Uiso   1.00
O678   O     0.15028   0.16667   0.68388   0.00000  Uiso   1.00
Zn679  Zn    0.11562   0.16667   0.75000   0.00000  Uiso   1.00
Zn680  Zn    0.21771   0.16666   0.75000   0.00000  Uiso   1.00
O681   O     0.02086   0.18068   0.56566   0.00000  Uiso   1.00
H682   H     0.01723   0.18124   0.59880   0.00000  Uiso   1.00
O683   O     0.28402   0.09082   0.94929   0.00000  Uiso   1.00
H684   H     0.28452   0.08396   0.91780   0.00000  Uiso   1.00
O685   O     0.15465   0.20776   0.60764   0.00000  Uiso   1.00
H686   H     0.15144   0.22373   0.58181   0.00000  Uiso   1.00
O687   O     0.19823   0.17844   0.88720   0.00000  Uiso   1.00
H688   H     0.21070   0.19346   0.90844   0.00000  Uiso   1.00
O689   O     0.00174   0.18553   0.99207   0.00000  Uiso   1.00
H690   H     0.31749   0.18930   0.97094   0.00000  Uiso   1.00
O691   O     0.30803   0.09446   0.51907   0.00000  Uiso   1.00
H692   H     0.32718   0.09168   0.53894   0.00000  Uiso   1.00
I693   I     0.24946   0.27854   0.64994   0.00000  Uiso   1.00
I694   I     0.08344   0.05474   0.84987   0.00000  Uiso   1.00
I695   I     0.30771   0.09474   0.67694   0.00000  Uiso   1.00
I696   I     0.02481   0.23444   0.82761   0.00000  Uiso   1.00
O697   O     0.07305   0.11072   0.69545   0.00000  Uiso   1.00
H698   H     0.05880   0.08441   0.68999   0.00000  Uiso   1.00
O699   O     0.26107   0.22368   0.80343   0.00000  Uiso   1.00
H700   H     0.27597   0.24898   0.81047   0.00000  Uiso   1.00
C701   C     0.49993   0.24649   0.74936   0.00000  Uiso   1.00
C702   C     0.50004   0.08684   0.75064   0.00000  Uiso   1.00
C703   C     0.43780   0.16702   0.55648   0.00000  Uiso   1.00
C704   C     0.54229   0.12546   0.95494   0.00000  Uiso   1.00
C705   C     0.40231   0.17220   0.53718   0.00000  Uiso   1.00
C706   C     0.57574   0.11447   0.97477   0.00000  Uiso   1.00
C707   C     0.53310   0.31090   0.71069   0.00000  Uiso   1.00
C708   C     0.46665   0.02242   0.78919   0.00000  Uiso   1.00
C709   C     0.53305   0.02077   0.71212   0.00000  Uiso   1.00
C710   C     0.46661   0.31254   0.78771   0.00000  Uiso   1.00
C711   C     0.50028   0.04271   0.75119   0.00000  Uiso   1.00
C712   C     0.49960   0.29060   0.74876   0.00000  Uiso   1.00
C713   C     0.65496   0.13823   0.72257   0.00000  Uiso   1.00
C714   C     0.34494   0.19455   0.77815   0.00000  Uiso   1.00
C715   C     0.36974   0.13835   0.72268   0.00000  Uiso   1.00
C716   C     0.63049   0.19520   0.77711   0.00000  Uiso   1.00
C717   C     0.46949   0.16774   0.83823   0.00000  Uiso   1.00
C718   C     0.53045   0.16636   0.66201   0.00000  Uiso   1.00
C719   C     0.45060   0.16914   0.88965   0.00000  Uiso   1.00
C720   C     0.54870   0.16000   0.61139   0.00000  Uiso   1.00
C721   C     0.38355   0.17607   0.96585   0.00000  Uiso   1.00
C722   C     0.60008   0.11931   0.54224   0.00000  Uiso   1.00
C723   C     0.40062   0.17238   0.91674   0.00000  Uiso   1.00
C724   C     0.58937   0.13396   0.58810   0.00000  Uiso   1.00
C725   C     0.48352   0.16865   0.91200   0.00000  Uiso   1.00
C726   C     0.51935   0.17365   0.58840   0.00000  Uiso   1.00
C727   C     0.46652   0.16164   0.96006   0.00000  Uiso   1.00
C728   C     0.52401   0.15355   0.54592   0.00000  Uiso   1.00
C729   C     0.41676   0.16998   0.98810   0.00000  Uiso   1.00
C730   C     0.56710   0.12892   0.52066   0.00000  Uiso   1.00
C731   C     0.49905   0.14862   0.98058   0.00000  Uiso   1.00
C732   C     0.48699   0.15732   0.52804   0.00000  Uiso   1.00
H733   H     0.61235   0.12427   0.60581   0.00000  Uiso   1.00
H734   H     0.37504   0.17418   0.89974   0.00000  Uiso   1.00
H735   H     0.42614   0.16857   0.59408   0.00000  Uiso   1.00
H736   H     0.54932   0.11425   0.91971   0.00000  Uiso   1.00
H737   H     0.55766   0.03724   0.68250   0.00000  Uiso   1.00
H738   H     0.44175   0.29605   0.81718   0.00000  Uiso   1.00
N739   N     0.38093   0.16668   0.75001   0.00000  Uiso   1.00
N740   N     0.61907   0.16666   0.74999   0.00000  Uiso   1.00
O741   O     0.46179   0.22775   0.75000   0.00000  Uiso   1.00
O742   O     0.53821   0.10558   0.75000   0.00000  Uiso   1.00
O743   O     0.53823   0.22774   0.75000   0.00000  Uiso   1.00
O744   O     0.46177   0.10559   0.75000   0.00000  Uiso   1.00
O745   O     0.43994   0.16667   0.81613   0.00000  Uiso   1.00
O746   O     0.56006   0.16666   0.68388   0.00000  Uiso   1.00
O747   O     0.51639   0.16666   0.81612   0.00000  Uiso   1.00
O748   O     0.48361   0.16667   0.68388   0.00000  Uiso   1.00
Zn749  Zn    0.44896   0.16667   0.75000   0.00000  Uiso   1.00
Zn750  Zn    0.55104   0.16666   0.75000   0.00000  Uiso   1.00
O751   O     0.35419   0.18068   0.56566   0.00000  Uiso   1.00
H752   H     0.35056   0.18124   0.59880   0.00000  Uiso   1.00
O753   O     0.61735   0.09082   0.94929   0.00000  Uiso   1.00
H754   H     0.61785   0.08396   0.91780   0.00000  Uiso   1.00
O755   O     0.48799   0.20776   0.60764   0.00000  Uiso   1.00
H756   H     0.48477   0.22373   0.58181   0.00000  Uiso   1.00
O757   O     0.53156   0.17844   0.88720   0.00000  Uiso   1.00
H758   H     0.54403   0.19346   0.90844   0.00000  Uiso   1.00
O759   O     0.33507   0.18553   0.99207   0.00000  Uiso   1.00
H760   H     0.65082   0.18930   0.97094   0.00000  Uiso   1.00
O761   O     0.64136   0.09446   0.51907   0.00000  Uiso   1.00
H762   H     0.66051   0.09168   0.53894   0.00000  Uiso   1.00
I763   I     0.58280   0.27854   0.64994   0.00000  Uiso   1.00
I764   I     0.41677   0.05474   0.84987   0.00000  Uiso   1.00
I765   I     0.64105   0.09474   0.67694   0.00000  Uiso   1.00
I766   I     0.35814   0.23444   0.82761   0.00000  Uiso   1.00
O767   O     0.40638   0.11072   0.69545   0.00000  Uiso   1.00
H768   H     0.39213   0.08441   0.68999   0.00000  Uiso   1.00
O769   O     0.59441   0.22368   0.80343   0.00000  Uiso   1.00
H770   H     0.60931   0.24898   0.81047   0.00000  Uiso   1.00
C771   C     0.83326   0.24649   0.74936   0.00000  Uiso   1.00
C772   C     0.83338   0.08684   0.75064   0.00000  Uiso   1.00
C773   C     0.77114   0.16702   0.55648   0.00000  Uiso   1.00
C774   C     0.87563   0.12546   0.95494   0.00000  Uiso   1.00
C775   C     0.73565   0.17220   0.53718   0.00000  Uiso   1.00
C776   C     0.90908   0.11447   0.97477   0.00000  Uiso   1.00
C777   C     0.86644   0.31090   0.71069   0.00000  Uiso   1.00
C778   C     0.79998   0.02242   0.78919   0.00000  Uiso   1.00
C779   C     0.86639   0.02077   0.71212   0.00000  Uiso   1.00
C780   C     0.79994   0.31254   0.78771   0.00000  Uiso   1.00
C781   C     0.83361   0.04271   0.75119   0.00000  Uiso   1.00
C782   C     0.83294   0.29060   0.74876   0.00000  Uiso   1.00
C783   C     0.98830   0.13823   0.72257   0.00000  Uiso   1.00
C784   C     0.67827   0.19455   0.77815   0.00000  Uiso   1.00
C785   C     0.70307   0.13835   0.72268   0.00000  Uiso   1.00
C786   C     0.96382   0.19520   0.77711   0.00000  Uiso   1.00
C787   C     0.80283   0.16774   0.83823   0.00000  Uiso   1.00
C788   C     0.86379   0.16636   0.66201   0.00000  Uiso   1.00
C789   C     0.78393   0.16914   0.88965   0.00000  Uiso   1.00
C790   C     0.88203   0.16000   0.61139   0.00000  Uiso   1.00
C791   C     0.71688   0.17607   0.96585   0.00000  Uiso   1.00
C792   C     0.93342   0.11931   0.54224   0.00000  Uiso   1.00
C793   C     0.73396   0.17238   0.91674   0.00000  Uiso   1.00
C794   C     0.92270   0.13396   0.58810   0.00000  Uiso   1.00
C795   C     0.81685   0.16865   0.91200   0.00000  Uiso   1.00
C796   C     0.85268   0.17365   0.58840   0.00000  Uiso   1.00
C797   C     0.79985   0.16164   0.96006   0.00000  Uiso   1.00
C798   C     0.85734   0.15355   0.54592   0.00000  Uiso   1.00
C799   C     0.75010   0.16998   0.98810   0.00000  Uiso   1.00
C800   C     0.90044   0.12892   0.52066   0.00000  Uiso   1.00
C801   C     0.83238   0.14862   0.98058   0.00000  Uiso   1.00
C802   C     0.82032   0.15732   0.52804   0.00000  Uiso   1.00
H803   H     0.94568   0.12427   0.60581   0.00000  Uiso   1.00
H804   H     0.70837   0.17418   0.89974   0.00000  Uiso   1.00
H805   H     0.75948   0.16857   0.59408   0.00000  Uiso   1.00
H806   H     0.88265   0.11425   0.91971   0.00000  Uiso   1.00
H807   H     0.89100   0.03724   0.68250   0.00000  Uiso   1.00
H808   H     0.77508   0.29605   0.81718   0.00000  Uiso   1.00
N809   N     0.71426   0.16668   0.75001   0.00000  Uiso   1.00
N810   N     0.95241   0.16666   0.74999   0.00000  Uiso   1.00
O811   O     0.79512   0.22775   0.75000   0.00000  Uiso   1.00
O812   O     0.87154   0.10558   0.75000   0.00000  Uiso   1.00
O813   O     0.87157   0.22774   0.75000   0.00000  Uiso   1.00
O814   O     0.79510   0.10559   0.75000   0.00000  Uiso   1.00
O815   O     0.77328   0.16667   0.81613   0.00000  Uiso   1.00
O816   O     0.89339   0.16666   0.68388   0.00000  Uiso   1.00
O817   O     0.84972   0.16666   0.81612   0.00000  Uiso   1.00
O818   O     0.81695   0.16667   0.68388   0.00000  Uiso   1.00
Zn819  Zn    0.78229   0.16667   0.75000   0.00000  Uiso   1.00
Zn820  Zn    0.88438   0.16666   0.75000   0.00000  Uiso   1.00
O821   O     0.68752   0.18068   0.56566   0.00000  Uiso   1.00
H822   H     0.68390   0.18124   0.59880   0.00000  Uiso   1.00
O823   O     0.95068   0.09082   0.94929   0.00000  Uiso   1.00
H824   H     0.95118   0.08396   0.91780   0.00000  Uiso   1.00
O825   O     0.82132   0.20776   0.60764   0.00000  Uiso   1.00
H826   H     0.81811   0.22373   0.58181   0.00000  Uiso   1.00
O827   O     0.86489   0.17844   0.88720   0.00000  Uiso   1.00
H828   H     0.87737   0.19346   0.90844   0.00000  Uiso   1.00
O829   O     0.66841   0.18553   0.99207   0.00000  Uiso   1.00
H830   H     0.98415   0.18930   0.97094   0.00000  Uiso   1.00
O831   O     0.97469   0.09446   0.51907   0.00000  Uiso   1.00
H832   H     0.99384   0.09168   0.53894   0.00000  Uiso   1.00
I833   I     0.91613   0.27854   0.64994   0.00000  Uiso   1.00
I834   I     0.75010   0.05474   0.84987   0.00000  Uiso   1.00
I835   I     0.97438   0.09474   0.67694   0.00000  Uiso   1.00
I836   I     0.69148   0.23444   0.82761   0.00000  Uiso   1.00
O837   O     0.73971   0.11072   0.69545   0.00000  Uiso   1.00
H838   H     0.72547   0.08441   0.68999   0.00000  Uiso   1.00
O839   O     0.92774   0.22368   0.80343   0.00000  Uiso   1.00
H840   H     0.94264   0.24898   0.81047   0.00000  Uiso   1.00
C841   C     0.16660   0.57983   0.74936   0.00000  Uiso   1.00
C842   C     0.16671   0.42017   0.75064   0.00000  Uiso   1.00
C843   C     0.10447   0.50036   0.55648   0.00000  Uiso   1.00
C844   C     0.20896   0.45879   0.95494   0.00000  Uiso   1.00
C845   C     0.06898   0.50554   0.53718   0.00000  Uiso   1.00
C846   C     0.24241   0.44781   0.97477   0.00000  Uiso   1.00
C847   C     0.19977   0.64423   0.71069   0.00000  Uiso   1.00
C848   C     0.13332   0.35575   0.78919   0.00000  Uiso   1.00
C849   C     0.19972   0.35411   0.71212   0.00000  Uiso   1.00
C850   C     0.13328   0.64587   0.78771   0.00000  Uiso   1.00
C851   C     0.16694   0.37605   0.75119   0.00000  Uiso   1.00
C852   C     0.16627   0.62394   0.74876   0.00000  Uiso   1.00
C853   C     0.32163   0.47157   0.72257   0.00000  Uiso   1.00
C854   C     0.01160   0.52788   0.77815   0.00000  Uiso   1.00
C855   C     0.03641   0.47168   0.72268   0.00000  Uiso   1.00
C856   C     0.29715   0.52854   0.77711   0.00000  Uiso   1.00
C857   C     0.13616   0.50107   0.83823   0.00000  Uiso   1.00
C858   C     0.19712   0.49970   0.66201   0.00000  Uiso   1.00
C859   C     0.11727   0.50247   0.88965   0.00000  Uiso   1.00
C860   C     0.21537   0.49333   0.61139   0.00000  Uiso   1.00
C861   C     0.05021   0.50941   0.96585   0.00000  Uiso   1.00
C862   C     0.26675   0.45265   0.54224   0.00000  Uiso   1.00
C863   C     0.06729   0.50572   0.91674   0.00000  Uiso   1.00
C864   C     0.25604   0.46730   0.58810   0.00000  Uiso   1.00
C865   C     0.15018   0.50198   0.91200   0.00000  Uiso   1.00
C866   C     0.18601   0.50698   0.58840   0.00000  Uiso   1.00
C867   C     0.13319   0.49497   0.96006   0.00000  Uiso   1.00
C868   C     0.19067   0.48689   0.54592   0.00000  Uiso   1.00
C869   C     0.08343   0.50331   0.98810   0.00000  Uiso   1.00
C870   C     0.23377   0.46225   0.52066   0.00000  Uiso   1.00
C871   C     0.16572   0.48196   0.98058   0.00000  Uiso   1.00
C872   C     0.15365   0.49065   0.52804   0.00000  Uiso   1.00
H873   H     0.27902   0.45760   0.60581   0.00000  Uiso   1.00
H874   H     0.04170   0.50751   0.89974   0.00000  Uiso   1.00
H875   H     0.09281   0.50190   0.59408   0.00000  Uiso   1.00
H876   H     0.21598   0.44758   0.91971   0.00000  Uiso   1.00
H877   H     0.22433   0.37057   0.68250   0.00000  Uiso   1.00
H878   H     0.10842   0.62939   0.81718   0.00000  Uiso   1.00
N879   N     0.04759   0.50001   0.75001   0.00000  Uiso   1.00
N880   N     0.28574   0.49999   0.74999   0.00000  Uiso   1.00
O881   O     0.12846   0.56108   0.75000   0.00000  Uiso   1.00
O882   O     0.20488   0.43892   0.75000   0.00000  Uiso   1.00
O883   O     0.20490   0.56107   0.75000   0.00000  Uiso   1.00
O884   O     0.12843   0.43893   0.75000   0.00000  Uiso   1.00
O885   O     0.10661   0.50001   0.81613   0.00000  Uiso   1.00
O886   O     0.22672   0.49999   0.68388   0.00000  Uiso   1.00
O887   O     0.18305   0.50000   0.81612   0.00000  Uiso   1.00
O888   O     0.15028   0.50000   0.68388   0.00000  Uiso   1.00
Zn889  Zn    0.11562   0.50001   0.75000   0.00000  Uiso   1.00
Zn890  Zn    0.21771   0.49999   0.75000   0.00000  Uiso   1.00
O891   O     0.02086   0.51402   0.56566   0.00000  Uiso   1.00
H892   H     0.01723   0.51458   0.59880   0.00000  Uiso   1.00
O893   O     0.28402   0.42415   0.94929   0.00000  Uiso   1.00
H894   H     0.28452   0.41730   0.91780   0.00000  Uiso   1.00
O895   O     0.15465   0.54109   0.60764   0.00000  Uiso   1.00
H896   H     0.15144   0.55707   0.58181   0.00000  Uiso   1.00
O897   O     0.19823   0.51178   0.88720   0.00000  Uiso   1.00
H898   H     0.21070   0.52680   0.90844   0.00000  Uiso   1.00
O899   O     0.00174   0.51886   0.99207   0.00000  Uiso   1.00
H900   H     0.31749   0.52263   0.97094   0.00000  Uiso   1.00
O901   O     0.30803   0.42779   0.51907   0.00000  Uiso   1.00
H902   H     0.32718   0.42502   0.53894   0.00000  Uiso   1.00
I903   I     0.24946   0.61188   0.64994   0.00000  Uiso   1.00
I904   I     0.08344   0.38808   0.84987   0.00000  Uiso   1.00
I905   I     0.30771   0.42807   0.67694   0.00000  Uiso   1.00
I906   I     0.02481   0.56777   0.82761   0.00000  Uiso   1.00
O907   O     0.07305   0.44406   0.69545   0.00000  Uiso   1.00
H908   H     0.05880   0.41774   0.68999   0.00000  Uiso   1.00
O909   O     0.26107   0.55701   0.80343   0.00000  Uiso   1.00
H910   H     0.27597   0.58231   0.81047   0.00000  Uiso   1.00
C911   C     0.49993   0.57983   0.74936   0.00000  Uiso   1.00
C912   C     0.50004   0.42017   0.75064   0.00000  Uiso   1.00
C913   C     0.43780   0.50036   0.55648   0.00000  Uiso   1.00
C914   C     0.54229   0.45879   0.95494   0.00000  Uiso   1.00
C915   C     0.40231   0.50554   0.53718   0.00000  Uiso   1.00
C916   C     0.57574   0.44781   0.97477   0.00000  Uiso   1.00
C917   C     0.53310   0.64423   0.71069   0.00000  Uiso   1.00
C918   C     0.46665   0.35575   0.78919   0.00000  Uiso   1.00
C919   C     0.53305   0.35411   0.71212   0.00000  Uiso   1.00
C920   C     0.46661   0.64587   0.78771   0.00000  Uiso   1.00
C921   C     0.50028   0.37605   0.75119   0.00000  Uiso   1.00
C922   C     0.49960   0.62394   0.74876   0.00000  Uiso   1.00
C923   C     0.65496   0.47157   0.72257   0.00000  Uiso   1.00
C924   C     0.34494   0.52788   0.77815   0.00000  Uiso   1.00
C925   C     0.36974   0.47168   0.72268   0.00000  Uiso   1.00
C926   C     0.63049   0.52854   0.77711   0.00000  Uiso   1.00
C927   C     0.46949   0.50107   0.83823   0.00000  Uiso   1.00
C928   C     0.53045   0.49970   0.66201   0.00000  Uiso   1.00
C929   C     0.45060   0.50247   0.88965   0.00000  Uiso   1.00
C930   C     0.54870   0.49333   0.61139   0.00000  Uiso   1.00
C931   C     0.38355   0.50941   0.96585   0.00000  Uiso   1.00
C932   C     0.60008   0.45265   0.54224   0.00000  Uiso   1.00
C933   C     0.40062   0.50572   0.91674   0.00000  Uiso   1.00
C934   C     0.58937   0.46730   0.58810   0.00000  Uiso   1.00
C935   C     0.48352   0.50198   0.91200   0.00000  Uiso   1.00
C936   C     0.51935   0.50698   0.58840   0.00000  Uiso   1.00
C937   C     0.46652   0.49497   0.96006   0.00000  Uiso   1.00
C938   C     0.52401   0.48689   0.54592   0.00000  Uiso   1.00
C939   C     0.41676   0.50331   0.98810   0.00000  Uiso   1.00
C940   C     0.56710   0.46225   0.52066   0.00000  Uiso   1.00
C941   C     0.49905   0.48196   0.98058   0.00000  Uiso   1.00
C942   C     0.48699   0.49065   0.52804   0.00000  Uiso   1.00
H943   H     0.61235   0.45760   0.60581   0.00000  Uiso   1.00
H944   H     0.37504   0.50751   0.89974   0.00000  Uiso   1.00
H945   H     0.42614   0.50190   0.59408   0.00000  Uiso   1.00
H946   H     0.54932   0.44758   0.91971   0.00000  Uiso   1.00
H947   H     0.55766   0.37057   0.68250   0.00000  Uiso   1.00
H948   H     0.44175   0.62939   0.81718   0.00000  Uiso   1.00
N949   N     0.38093   0.50001   0.75001   0.00000  Uiso   1.00
N950   N     0.61907   0.49999   0.74999   0.00000  Uiso   1.00
O951   O     0.46179   0.56108   0.75000   0.00000  Uiso   1.00
O952   O     0.53821   0.43892   0.75000   0.00000  Uiso   1.00
O953   O     0.53823   0.56107   0.75000   0.00000  Uiso   1.00
O954   O     0.46177   0.43893   0.75000   0.00000  Uiso   1.00
O955   O     0.43994   0.50001   0.81613   0.00000  Uiso   1.00
O956   O     0.56006   0.49999   0.68388   0.00000  Uiso   1.00
O957   O     0.51639   0.50000   0.81612   0.00000  Uiso   1.00
O958   O     0.48361   0.50000   0.68388   0.00000  Uiso   1.00
Zn959  Zn    0.44896   0.50001   0.75000   0.00000  Uiso   1.00
Zn960  Zn    0.55104   0.49999   0.75000   0.00000  Uiso   1.00
O961   O     0.35419   0.51402   0.56566   0.00000  Uiso   1.00
H962   H     0.35056   0.51458   0.59880   0.00000  Uiso   1.00
O963   O     0.61735   0.42415   0.94929   0.00000  Uiso   1.00
H964   H     0.61785   0.41730   0.91780   0.00000  Uiso   1.00
O965   O     0.48799   0.54109   0.60764   0.00000  Uiso   1.00
H966   H     0.48477   0.55707   0.58181   0.00000  Uiso   1.00
O967   O     0.53156   0.51178   0.88720   0.00000  Uiso   1.00
H968   H     0.54403   0.52680   0.90844   0.00000  Uiso   1.00
O969   O     0.33507   0.51886   0.99207   0.00000  Uiso   1.00
H970   H     0.65082   0.52263   0.97094   0.00000  Uiso   1.00
O971   O     0.64136   0.42779   0.51907   0.00000  Uiso   1.00
H972   H     0.66051   0.42502   0.53894   0.00000  Uiso   1.00
I973   I     0.58280   0.61188   0.64994   0.00000  Uiso   1.00
I974   I     0.41677   0.38808   0.84987   0.00000  Uiso   1.00
I975   I     0.64105   0.42807   0.67694   0.00000  Uiso   1.00
I976   I     0.35814   0.56777   0.82761   0.00000  Uiso   1.00
O977   O     0.40638   0.44406   0.69545   0.00000  Uiso   1.00
H978   H     0.39213   0.41774   0.68999   0.00000  Uiso   1.00
O979   O     0.59441   0.55701   0.80343   0.00000  Uiso   1.00
H980   H     0.60931   0.58231   0.81047   0.00000  Uiso   1.00
C981   C     0.83326   0.57983   0.74936   0.00000  Uiso   1.00
C982   C     0.83338   0.42017   0.75064   0.00000  Uiso   1.00
C983   C     0.77114   0.50036   0.55648   0.00000  Uiso   1.00
C984   C     0.87563   0.45879   0.95494   0.00000  Uiso   1.00
C985   C     0.73565   0.50554   0.53718   0.00000  Uiso   1.00
C986   C     0.90908   0.44781   0.97477   0.00000  Uiso   1.00
C987   C     0.86644   0.64423   0.71069   0.00000  Uiso   1.00
C988   C     0.79998   0.35575   0.78919   0.00000  Uiso   1.00
C989   C     0.86639   0.35411   0.71212   0.00000  Uiso   1.00
C990   C     0.79994   0.64587   0.78771   0.00000  Uiso   1.00
C991   C     0.83361   0.37605   0.75119   0.00000  Uiso   1.00
C992   C     0.83294   0.62394   0.74876   0.00000  Uiso   1.00
C993   C     0.98830   0.47157   0.72257   0.00000  Uiso   1.00
C994   C     0.67827   0.52788   0.77815   0.00000  Uiso   1.00
C995   C     0.70307   0.47168   0.72268   0.00000  Uiso   1.00
C996   C     0.96382   0.52854   0.77711   0.00000  Uiso   1.00
C997   C     0.80283   0.50107   0.83823   0.00000  Uiso   1.00
C998   C     0.86379   0.49970   0.66201   0.00000  Uiso   1.00
C999   C     0.78393   0.50247   0.88965   0.00000  Uiso   1.00
C1000  C     0.88203   0.49333   0.61139   0.00000  Uiso   1.00
C1001  C     0.71688   0.50941   0.96585   0.00000  Uiso   1.00
C1002  C     0.93342   0.45265   0.54224   0.00000  Uiso   1.00
C1003  C     0.73396   0.50572   0.91674   0.00000  Uiso   1.00
C1004  C     0.92270   0.46730   0.58810   0.00000  Uiso   1.00
C1005  C     0.81685   0.50198   0.91200   0.00000  Uiso   1.00
C1006  C     0.85268   0.50698   0.58840   0.00000  Uiso   1.00
C1007  C     0.79985   0.49497   0.96006   0.00000  Uiso   1.00
C1008  C     0.85734   0.48689   0.54592   0.00000  Uiso   1.00
C1009  C     0.75010   0.50331   0.98810   0.00000  Uiso   1.00
C1010  C     0.90044   0.46225   0.52066   0.00000  Uiso   1.00
C1011  C     0.83238   0.48196   0.98058   0.00000  Uiso   1.00
C1012  C     0.82032   0.49065   0.52804   0.00000  Uiso   1.00
H1013  H     0.94568   0.45760   0.60581   0.00000  Uiso   1.00
H1014  H     0.70837   0.50751   0.89974   0.00000  Uiso   1.00
H1015  H     0.75948   0.50190   0.59408   0.00000  Uiso   1.00
H1016  H     0.88265   0.44758   0.91971   0.00000  Uiso   1.00
H1017  H     0.89100   0.37057   0.68250   0.00000  Uiso   1.00
H1018  H     0.77508   0.62939   0.81718   0.00000  Uiso   1.00
N1019  N     0.71426   0.50001   0.75001   0.00000  Uiso   1.00
N1020  N     0.95241   0.49999   0.74999   0.00000  Uiso   1.00
O1021  O     0.79512   0.56108   0.75000   0.00000  Uiso   1.00
O1022  O     0.87154   0.43892   0.75000   0.00000  Uiso   1.00
O1023  O     0.87157   0.56107   0.75000   0.00000  Uiso   1.00
O1024  O     0.79510   0.43893   0.75000   0.00000  Uiso   1.00
O1025  O     0.77328   0.50001   0.81613   0.00000  Uiso   1.00
O1026  O     0.89339   0.49999   0.68388   0.00000  Uiso   1.00
O1027  O     0.84972   0.50000   0.81612   0.00000  Uiso   1.00
O1028  O     0.81695   0.50000   0.68388   0.00000  Uiso   1.00
Zn1029 Zn    0.78229   0.50001   0.75000   0.00000  Uiso   1.00
Zn1030 Zn    0.88438   0.49999   0.75000   0.00000  Uiso   1.00
O1031  O     0.68752   0.51402   0.56566   0.00000  Uiso   1.00
H1032  H     0.68390   0.51458   0.59880   0.00000  Uiso   1.00
O1033  O     0.95068   0.42415   0.94929   0.00000  Uiso   1.00
H1034  H     0.95118   0.41730   0.91780   0.00000  Uiso   1.00
O1035  O     0.82132   0.54109   0.60764   0.00000  Uiso   1.00
H1036  H     0.81811   0.55707   0.58181   0.00000  Uiso   1.00
O1037  O     0.86489   0.51178   0.88720   0.00000  Uiso   1.00
H1038  H     0.87737   0.52680   0.90844   0.00000  Uiso   1.00
O1039  O     0.66841   0.51886   0.99207   0.00000  Uiso   1.00
H1040  H     0.98415   0.52263   0.97094   0.00000  Uiso   1.00
O1041  O     0.97469   0.42779   0.51907   0.00000  Uiso   1.00
H1042  H     0.99384   0.42502   0.53894   0.00000  Uiso   1.00
I1043  I     0.91613   0.61188   0.64994   0.00000  Uiso   1.00
I1044  I     0.75010   0.38808   0.84987   0.00000  Uiso   1.00
I1045  I     0.97438   0.42807   0.67694   0.00000  Uiso   1.00
I1046  I     0.69148   0.56777   0.82761   0.00000  Uiso   1.00
O1047  O     0.73971   0.44406   0.69545   0.00000  Uiso   1.00
H1048  H     0.72547   0.41774   0.68999   0.00000  Uiso   1.00
O1049  O     0.92774   0.55701   0.80343   0.00000  Uiso   1.00
H1050  H     0.94264   0.58231   0.81047   0.00000  Uiso   1.00
C1051  C     0.16660   0.91316   0.74936   0.00000  Uiso   1.00
C1052  C     0.16671   0.75350   0.75064   0.00000  Uiso   1.00
C1053  C     0.10447   0.83369   0.55648   0.00000  Uiso   1.00
C1054  C     0.20896   0.79213   0.95494   0.00000  Uiso   1.00
C1055  C     0.06898   0.83887   0.53718   0.00000  Uiso   1.00
C1056  C     0.24241   0.78114   0.97477   0.00000  Uiso   1.00
C1057  C     0.19977   0.97756   0.71069   0.00000  Uiso   1.00
C1058  C     0.13332   0.68908   0.78919   0.00000  Uiso   1.00
C1059  C     0.19972   0.68744   0.71212   0.00000  Uiso   1.00
C1060  C     0.13328   0.97920   0.78771   0.00000  Uiso   1.00
C1061  C     0.16694   0.70938   0.75119   0.00000  Uiso   1.00
C1062  C     0.16627   0.95727   0.74876   0.00000  Uiso   1.00
C1063  C     0.32163   0.80490   0.72257   0.00000  Uiso   1.00
C1064  C     0.01160   0.86122   0.77815   0.00000  Uiso   1.00
C1065  C     0.03641   0.80501   0.72268   0.00000  Uiso   1.00
C1066  C     0.29715   0.86187   0.77711   0.00000  Uiso   1.00
C1067  C     0.13616   0.83440   0.83823   0.00000  Uiso   1.00
C1068  C     0.19712   0.83303   0.66201   0.00000  Uiso   1.00
C1069  C     0.11727   0.83581   0.88965   0.00000  Uiso   1.00
C1070  C     0.21537   0.82667   0.61139   0.00000  Uiso   1.00
C1071  C     0.05021   0.84274   0.96585   0.00000  Uiso   1.00
C1072  C     0.26675   0.78598   0.54224   0.00000  Uiso   1.00
C1073  C     0.06729   0.83905   0.91674   0.00000  Uiso   1.00
C1074  C     0.25604   0.80063   0.58810   0.00000  Uiso   1.00
C1075  C     0.15018   0.83531   0.91200   0.00000  Uiso   1.00
C1076  C     0.18601   0.84031   0.58840   0.00000  Uiso   1.00
C1077  C     0.13319   0.82830   0.96006   0.00000  Uiso   1.00
C1078  C     0.19067   0.82022   0.54592   0.00000  Uiso   1.00
C1079  C     0.08343   0.83664   0.98810   0.00000  Uiso   1.00
C1080  C     0.23377   0.79558   0.52066   0.00000  Uiso   1.00
C1081  C     0.16572   0.81529   0.98058   0.00000  Uiso   1.00
C1082  C     0.15365   0.82398   0.52804   0.00000  Uiso   1.00
H1083  H     0.27902   0.79094   0.60581   0.00000  Uiso   1.00
H1084  H     0.04170   0.84085   0.89974   0.00000  Uiso   1.00
H1085  H     0.09281   0.83523   0.59408   0.00000  Uiso   1.00
H1086  H     0.21598   0.78092   0.91971   0.00000  Uiso   1.00
H1087  H     0.22433   0.70390   0.68250   0.00000  Uiso   1.00
H1088  H     0.10842   0.96272   0.81718   0.00000  Uiso   1.00
N1089  N     0.04759   0.83334   0.75001   0.00000  Uiso   1.00
N1090  N     0.28574   0.83332   0.74999   0.00000  Uiso   1.00
O1091  O     0.12846   0.89442   0.75000   0.00000  Uiso   1.00
O1092  O     0.20488   0.77225   0.75000   0.00000  Uiso   1.00
O1093  O     0.20490   0.89441   0.75000   0.00000  Uiso   1.00
O1094  O     0.12843   0.77226   0.75000   0.00000  Uiso   1.00
O1095  O     0.10661   0.83334   0.81613   0.00000  Uiso   1.00
O1096  O     0.22672   0.83333   0.68388   0.00000  Uiso   1.00
O1097  O     0.18305   0.83333   0.81612   0.00000  Uiso   1.00
O1098  O     0.15028   0.83334   0.68388   0.00000  Uiso   1.00
Zn1099 Zn    0.11562   0.83334   0.75000   0.00000  Uiso   1.00
Zn1100 Zn    0.21771   0.83333   0.75000   0.00000  Uiso   1.00
O1101  O     0.02086   0.84735   0.56566   0.00000  Uiso   1.00
H1102  H     0.01723   0.84791   0.59880   0.00000  Uiso   1.00
O1103  O     0.28402   0.75749   0.94929   0.00000  Uiso   1.00
H1104  H     0.28452   0.75063   0.91780   0.00000  Uiso   1.00
O1105  O     0.15465   0.87443   0.60764   0.00000  Uiso   1.00
H1106  H     0.15144   0.89040   0.58181   0.00000  Uiso   1.00
O1107  O     0.19823   0.84511   0.88720   0.00000  Uiso   1.00
H1108  H     0.21070   0.86013   0.90844   0.00000  Uiso   1.00
O1109  O     0.00174   0.85220   0.99207   0.00000  Uiso   1.00
H1110  H     0.31749   0.85596   0.97094   0.00000  Uiso   1.00
O1111  O     0.30803   0.76113   0.51907   0.00000  Uiso   1.00
H1112  H     0.32718   0.75835   0.53894   0.00000  Uiso   1.00
I1113  I     0.24946   0.94521   0.64994   0.00000  Uiso   1.00
I1114  I     0.08344   0.72141   0.84987   0.00000  Uiso   1.00
I1115  I     0.30771   0.76140   0.67694   0.00000  Uiso   1.00
I1116  I     0.02481   0.90110   0.82761   0.00000  Uiso   1.00
O1117  O     0.07305   0.77739   0.69545   0.00000  Uiso   1.00
H1118  H     0.05880   0.75108   0.68999   0.00000  Uiso   1.00
O1119  O     0.26107   0.89035   0.80343   0.00000  Uiso   1.00
H1120  H     0.27597   0.91564   0.81047   0.00000  Uiso   1.00
C1121  C     0.49993   0.91316   0.74936   0.00000  Uiso   1.00
C1122  C     0.50004   0.75350   0.75064   0.00000  Uiso   1.00
C1123  C     0.43780   0.83369   0.55648   0.00000  Uiso   1.00
C1124  C     0.54229   0.79213   0.95494   0.00000  Uiso   1.00
C1125  C     0.40231   0.83887   0.53718   0.00000  Uiso   1.00
C1126  C     0.57574   0.78114   0.97477   0.00000  Uiso   1.00
C1127  C     0.53310   0.97756   0.71069   0.00000  Uiso   1.00
C1128  C     0.46665   0.68908   0.78919   0.00000  Uiso   1.00
C1129  C     0.53305   0.68744   0.71212   0.00000  Uiso   1.00
C1130  C     0.46661   0.97920   0.78771   0.00000  Uiso   1.00
C1131  C     0.50028   0.70938   0.75119   0.00000  Uiso   1.00
C1132  C     0.49960   0.95727   0.74876   0.00000  Uiso   1.00
C1133  C     0.65496   0.80490   0.72257   0.00000  Uiso   1.00
C1134  C     0.34494   0.86122   0.77815   0.00000  Uiso   1.00
C1135  C     0.36974   0.80501   0.72268   0.00000  Uiso   1.00
C1136  C     0.63049   0.86187   0.77711   0.00000  Uiso   1.00
C1137  C     0.46949   0.83440   0.83823   0.00000  Uiso   1.00
C1138  C     0.53045   0.83303   0.66201   0.00000  Uiso   1.00
C1139  C     0.45060   0.83581   0.88965   0.00000  Uiso   1.00
C1140  C     0.54870   0.82667   0.61139   0.00000  Uiso   1.00
C1141  C     0.38355   0.84274   0.96585   0.00000  Uiso   1.00
C1142  C     0.60008   0.78598   0.54224   0.00000  Uiso   1.00
C1143  C     0.40062   0.83905   0.91674   0.00000  Uiso   1.00
C1144  C     0.58937   0.80063   0.58810   0.00000  Uiso   1.00
C1145  C     0.48352   0.83531   0.91200   0.00000  Uiso   1.00
C1146  C     0.51935   0.84031   0.58840   0.00000  Uiso   1.00
C1147  C     0.46652   0.82830   0.96006   0.00000  Uiso   1.00
C1148  C     0.52401   0.82022   0.54592   0.00000  Uiso   1.00
C1149  C     0.41676   0.83664   0.98810   0.00000  Uiso   1.00
C1150  C     0.56710   0.79558   0.52066   0.00000  Uiso   1.00
C1151  C     0.49905   0.81529   0.98058   0.00000  Uiso   1.00
C1152  C     0.48699   0.82398   0.52804   0.00000  Uiso   1.00
H1153  H     0.61235   0.79094   0.60581   0.00000  Uiso   1.00
H1154  H     0.37504   0.84085   0.89974   0.00000  Uiso   1.00
H1155  H     0.42614   0.83523   0.59408   0.00000  Uiso   1.00
H1156  H     0.54932   0.78092   0.91971   0.00000  Uiso   1.00
H1157  H     0.55766   0.70390   0.68250   0.00000  Uiso   1.00
H1158  H     0.44175   0.96272   0.81718   0.00000  Uiso   1.00
N1159  N     0.38093   0.83334   0.75001   0.00000  Uiso   1.00
N1160  N     0.61907   0.83332   0.74999   0.00000  Uiso   1.00
O1161  O     0.46179   0.89442   0.75000   0.00000  Uiso   1.00
O1162  O     0.53821   0.77225   0.75000   0.00000  Uiso   1.00
O1163  O     0.53823   0.89441   0.75000   0.00000  Uiso   1.00
O1164  O     0.46177   0.77226   0.75000   0.00000  Uiso   1.00
O1165  O     0.43994   0.83334   0.81613   0.00000  Uiso   1.00
O1166  O     0.56006   0.83333   0.68388   0.00000  Uiso   1.00
O1167  O     0.51639   0.83333   0.81612   0.00000  Uiso   1.00
O1168  O     0.48361   0.83334   0.68388   0.00000  Uiso   1.00
Zn1169 Zn    0.44896   0.83334   0.75000   0.00000  Uiso   1.00
Zn1170 Zn    0.55104   0.83333   0.75000   0.00000  Uiso   1.00
O1171  O     0.35419   0.84735   0.56566   0.00000  Uiso   1.00
H1172  H     0.35056   0.84791   0.59880   0.00000  Uiso   1.00
O1173  O     0.61735   0.75749   0.94929   0.00000  Uiso   1.00
H1174  H     0.61785   0.75063   0.91780   0.00000  Uiso   1.00
O1175  O     0.48799   0.87443   0.60764   0.00000  Uiso   1.00
H1176  H     0.48477   0.89040   0.58181   0.00000  Uiso   1.00
O1177  O     0.53156   0.84511   0.88720   0.00000  Uiso   1.00
H1178  H     0.54403   0.86013   0.90844   0.00000  Uiso   1.00
O1179  O     0.33507   0.85220   0.99207   0.00000  Uiso   1.00
H1180  H     0.65082   0.85596   0.97094   0.00000  Uiso   1.00
O1181  O     0.64136   0.76113   0.51907   0.00000  Uiso   1.00
H1182  H     0.66051   0.75835   0.53894   0.00000  Uiso   1.00
I1183  I     0.58280   0.94521   0.64994   0.00000  Uiso   1.00
I1184  I     0.41677   0.72141   0.84987   0.00000  Uiso   1.00
I1185  I     0.64105   0.76140   0.67694   0.00000  Uiso   1.00
I1186  I     0.35814   0.90110   0.82761   0.00000  Uiso   1.00
O1187  O     0.40638   0.77739   0.69545   0.00000  Uiso   1.00
H1188  H     0.39213   0.75108   0.68999   0.00000  Uiso   1.00
O1189  O     0.59441   0.89035   0.80343   0.00000  Uiso   1.00
H1190  H     0.60931   0.91564   0.81047   0.00000  Uiso   1.00
C1191  C     0.83326   0.91316   0.74936   0.00000  Uiso   1.00
C1192  C     0.83338   0.75350   0.75064   0.00000  Uiso   1.00
C1193  C     0.77114   0.83369   0.55648   0.00000  Uiso   1.00
C1194  C     0.87563   0.79213   0.95494   0.00000  Uiso   1.00
C1195  C     0.73565   0.83887   0.53718   0.00000  Uiso   1.00
C1196  C     0.90908   0.78114   0.97477   0.00000  Uiso   1.00
C1197  C     0.86644   0.97756   0.71069   0.00000  Uiso   1.00
C1198  C     0.79998   0.68908   0.78919   0.00000  Uiso   1.00
C1199  C     0.86639   0.68744   0.71212   0.00000  Uiso   1.00
C1200  C     0.79994   0.97920   0.78771   0.00000  Uiso   1.00
C1201  C     0.83361   0.70938   0.75119   0.00000  Uiso   1.00
C1202  C     0.83294   0.95727   0.74876   0.00000  Uiso   1.00
C1203  C     0.98830   0.80490   0.72257   0.00000  Uiso   1.00
C1204  C     0.67827   0.86122   0.77815   0.00000  Uiso   1.00
C1205  C     0.70307   0.80501   0.72268   0.00000  Uiso   1.00
C1206  C     0.96382   0.86187   0.77711   0.00000  Uiso   1.00
C1207  C     0.80283   0.83440   0.83823   0.00000  Uiso   1.00
C1208  C     0.86379   0.83303   0.66201   0.00000  Uiso   1.00
C1209  C     0.78393   0.83581   0.88965   0.00000  Uiso   1.00
C1210  C     0.88203   0.82667   0.61139   0.00000  Uiso   1.00
C1211  C     0.71688   0.84274   0.96585   0.00000  Uiso   1.00
C1212  C     0.93342   0.78598   0.54224   0.00000  Uiso   1.00
C1213  C     0.73396   0.83905   0.91674   0.00000  Uiso   1.00
C1214  C     0.92270   0.80063   0.58810   0.00000  Uiso   1.00
C1215  C     0.81685   0.83531   0.91200   0.00000  Uiso   1.00
C1216  C     0.85268   0.84031   0.58840   0.00000  Uiso   1.00
C1217  C     0.79985   0.82830   0.96006   0.00000  Uiso   1.00
C1218  C     0.85734   0.82022   0.54592   0.00000  Uiso   1.00
C1219  C     0.75010   0.83664   0.98810   0.00000  Uiso   1.00
C1220  C     0.90044   0.79558   0.52066   0.00000  Uiso   1.00
C1221  C     0.83238   0.81529   0.98058   0.00000  Uiso   1.00
C1222  C     0.82032   0.82398   0.52804   0.00000  Uiso   1.00
H1223  H     0.94568   0.79094   0.60581   0.00000  Uiso   1.00
H1224  H     0.70837   0.84085   0.89974   0.00000  Uiso   1.00
H1225  H     0.75948   0.83523   0.59408   0.00000  Uiso   1.00
H1226  H     0.88265   0.78092   0.91971   0.00000  Uiso   1.00
H1227  H     0.89100   0.70390   0.68250   0.00000  Uiso   1.00
H1228  H     0.77508   0.96272   0.81718   0.00000  Uiso   1.00
N1229  N     0.71426   0.83334   0.75001   0.00000  Uiso   1.00
N1230  N     0.95241   0.83332   0.74999   0.00000  Uiso   1.00
O1231  O     0.79512   0.89442   0.75000   0.00000  Uiso   1.00
O1232  O     0.87154   0.77225   0.75000   0.00000  Uiso   1.00
O1233  O     0.87157   0.89441   0.75000   0.00000  Uiso   1.00
O1234  O     0.79510   0.77226   0.75000   0.00000  Uiso   1.00
O1235  O     0.77328   0.83334   0.81613   0.00000  Uiso   1.00
O1236  O     0.89339   0.83333   0.68388   0.00000  Uiso   1.00
O1237  O     0.84972   0.83333   0.81612   0.00000  Uiso   1.00
O1238  O     0.81695   0.83334   0.68388   0.00000  Uiso   1.00
Zn1239 Zn    0.78229   0.83334   0.75000   0.00000  Uiso   1.00
Zn1240 Zn    0.88438   0.83333   0.75000   0.00000  Uiso   1.00
O1241  O     0.68752   0.84735   0.56566   0.00000  Uiso   1.00
H1242  H     0.68390   0.84791   0.59880   0.00000  Uiso   1.00
O1243  O     0.95068   0.75749   0.94929   0.00000  Uiso   1.00
H1244  H     0.95118   0.75063   0.91780   0.00000  Uiso   1.00
O1245  O     0.82132   0.87443   0.60764   0.00000  Uiso   1.00
H1246  H     0.81811   0.89040   0.58181   0.00000  Uiso   1.00
O1247  O     0.86489   0.84511   0.88720   0.00000  Uiso   1.00
H1248  H     0.87737   0.86013   0.90844   0.00000  Uiso   1.00
O1249  O     0.66841   0.85220   0.99207   0.00000  Uiso   1.00
H1250  H     0.98415   0.85596   0.97094   0.00000  Uiso   1.00
O1251  O     0.97469   0.76113   0.51907   0.00000  Uiso   1.00
H1252  H     0.99384   0.75835   0.53894   0.00000  Uiso   1.00
I1253  I     0.91613   0.94521   0.64994   0.00000  Uiso   1.00
I1254  I     0.75010   0.72141   0.84987   0.00000  Uiso   1.00
I1255  I     0.97438   0.76140   0.67694   0.00000  Uiso   1.00
I1256  I     0.69148   0.90110   0.82761   0.00000  Uiso   1.00
O1257  O     0.73971   0.77739   0.69545   0.00000  Uiso   1.00
H1258  H     0.72547   0.75108   0.68999   0.00000  Uiso   1.00
O1259  O     0.92774   0.89035   0.80343   0.00000  Uiso   1.00
H1260  H     0.94264   0.91564   0.81047   0.00000  Uiso   1.00
loop_
_geom_bond_atom_site_label_1
_geom_bond_atom_site_label_2
_geom_bond_distance
_geom_bond_site_symmetry_2
_ccdc_geom_bond_type
C1     C12     1.404   .     S
C1     O41     1.287   .     A
C1     O43     1.284   .     A
C2     O42     1.288   .     A
C2     C11     1.404   .     S
C2     O44     1.283   .     A
C3     H35     1.082   .     S
C3     C32     1.413   .     A
C3     C5      1.410   .     A
C4     H36     1.083   .     S
C4     C31     1.409   .     A
C4     C6      1.400   .     A
C5     O51     1.382   .     S
C5     C659    1.414   1_554 S
C6     O53     1.383   .     S
C6     C660    1.412   .     S
C7     C12     1.399   .     A
C7     I63     2.126   .     S
C7     C219    1.374   .     S
C8     C11     1.399   .     A
C8     I64     2.126   .     S
C8     C430    1.375   1_545 S
C9     H37     1.083   .     S
C9     C11     1.393   .     A
C9     C427    1.374   1_545 S
C10    H38     1.083   .     S
C10    C12     1.393   .     A
C10    C218    1.375   .     S
C13    I65     2.119   .     S
C13    N40     1.384   .     A
C13    C85     1.434   .     S
C14    I66     2.128   .     S
C14    N39     1.382   .     A
C14    C156    1.436   1_455 S
C15    O67     1.379   .     S
C15    N39     1.357   .     A
C15    C153    1.434   1_455 S
C16    N40     1.361   .     A
C16    O69     1.378   .     S
C16    C84     1.436   .     S
C17    C19     1.473   .     S
C17    O47     1.297   .     A
C17    O45     1.308   .     A
C18    O46     1.303   .     A
C18    C20     1.459   .     S
C18    O48     1.295   .     A
C19    C23     1.400   .     A
C19    C25     1.402   .     A
C20    C26     1.392   .     A
C20    C24     1.392   .     A
C21    O59     1.381   .     S
C21    C23     1.410   .     A
C21    C29     1.420   .     A
C22    O61     1.383   .     S
C22    C24     1.401   .     A
C22    C30     1.417   .     A
C23    H34     1.082   .     S
C24    H33     1.074   .     S
C25    C27     1.402   .     A
C25    O57     1.384   .     S
C26    C28     1.410   .     A
C26    O55     1.383   .     S
C27    C29     1.417   .     A
C27    C31     1.409   .     A
C28    C32     1.416   .     A
C28    C30     1.428   .     A
C29    C635    1.414   .     S
C30    C636    1.412   1_554 S
C31    C662    1.396   .     S
C32    C661    1.396   1_554 S
N39    Zn49    2.026   .     S
N40    Zn50    2.026   .     S
O41    Zn49    1.988   .     S
O42    Zn50    1.988   .     S
O43    Zn50    1.973   .     S
O44    Zn49    1.973   .     S
O45    Zn49    1.965   .     S
O46    Zn50    1.965   .     S
O47    Zn50    1.910   .     S
O48    Zn49    1.910   .     S
O51    H52     0.992   .     S
O53    H54     0.992   .     S
O55    H56     0.991   .     S
O57    H58     0.992   .     S
O59    H200    0.992   1_455 S
H60    O129    0.992   .     S
O61    H62     0.992   .     S
O67    H68     0.987   .     S
O69    H70     0.987   .     S
C71    C82     1.404   .     S
C71    O111    1.287   .     A
C71    O113    1.284   .     A
C72    O112    1.288   .     A
C72    C81     1.404   .     S
C72    O114    1.283   .     A
C73    H105    1.082   .     S
C73    C102    1.413   .     A
C73    C75     1.410   .     A
C74    H106    1.083   .     S
C74    C101    1.409   .     A
C74    C76     1.400   .     A
C75    O121    1.382   .     S
C75    C729    1.414   1_554 S
C76    O123    1.383   .     S
C76    C730    1.412   .     S
C77    C82     1.399   .     A
C77    I133    2.126   .     S
C77    C289    1.374   .     S
C78    C81     1.399   .     A
C78    I134    2.126   .     S
C78    C500    1.375   1_545 S
C79    H107    1.083   .     S
C79    C81     1.393   .     A
C79    C497    1.374   1_545 S
C80    H108    1.083   .     S
C80    C82     1.393   .     A
C80    C288    1.375   .     S
C83    I135    2.119   .     S
C83    N110    1.384   .     A
C83    C155    1.434   .     S
C84    I136    2.128   .     S
C84    N109    1.382   .     A
C85    O137    1.379   .     S
C85    N109    1.357   .     A
C86    N110    1.361   .     A
C86    O139    1.378   .     S
C86    C154    1.436   .     S
C87    C89     1.473   .     S
C87    O117    1.297   .     A
C87    O115    1.308   .     A
C88    O116    1.303   .     A
C88    C90     1.459   .     S
C88    O118    1.295   .     A
C89    C93     1.400   .     A
C89    C95     1.402   .     A
C90    C96     1.392   .     A
C90    C94     1.392   .     A
C91    O129    1.381   .     S
C91    C93     1.410   .     A
C91    C99     1.420   .     A
C92    O131    1.383   .     S
C92    C94     1.401   .     A
C92    C100    1.417   .     A
C93    H104    1.082   .     S
C94    H103    1.074   .     S
C95    C97     1.402   .     A
C95    O127    1.384   .     S
C96    C98     1.410   .     A
C96    O125    1.383   .     S
C97    C99     1.417   .     A
C97    C101    1.409   .     A
C98    C102    1.416   .     A
C98    C100    1.428   .     A
C99    C705    1.414   .     S
C100   C706    1.412   1_554 S
C101   C732    1.396   .     S
C102   C731    1.396   1_554 S
N109   Zn119   2.026   .     S
N110   Zn120   2.026   .     S
O111   Zn119   1.988   .     S
O112   Zn120   1.988   .     S
O113   Zn120   1.973   .     S
O114   Zn119   1.973   .     S
O115   Zn119   1.965   .     S
O116   Zn120   1.965   .     S
O117   Zn120   1.910   .     S
O118   Zn119   1.910   .     S
O121   H122    0.992   .     S
O123   H124    0.992   .     S
O125   H126    0.991   .     S
O127   H128    0.992   .     S
H130   O199    0.992   .     S
O131   H132    0.992   .     S
O137   H138    0.987   .     S
O139   H140    0.987   .     S
C141   C152    1.404   .     S
C141   O181    1.287   .     A
C141   O183    1.284   .     A
C142   O182    1.288   .     A
C142   C151    1.404   .     S
C142   O184    1.283   .     A
C143   H175    1.082   .     S
C143   C172    1.413   .     A
C143   C145    1.410   .     A
C144   H176    1.083   .     S
C144   C171    1.409   .     A
C144   C146    1.400   .     A
C145   O191    1.382   .     S
C145   C799    1.414   1_554 S
C146   O193    1.383   .     S
C146   C800    1.412   .     S
C147   C152    1.399   .     A
C147   I203    2.126   .     S
C147   C359    1.374   .     S
C148   C151    1.399   .     A
C148   I204    2.126   .     S
C148   C570    1.375   1_545 S
C149   H177    1.083   .     S
C149   C151    1.393   .     A
C149   C567    1.374   1_545 S
C150   H178    1.083   .     S
C150   C152    1.393   .     A
C150   C358    1.375   .     S
C153   I205    2.119   .     S
C153   N180    1.384   .     A
C153   C15     1.434   1_655 S
C154   I206    2.128   .     S
C154   N179    1.382   .     A
C155   O207    1.379   .     S
C155   N179    1.357   .     A
C156   N180    1.361   .     A
C156   O209    1.378   .     S
C156   C14     1.436   1_655 S
C157   C159    1.473   .     S
C157   O187    1.297   .     A
C157   O185    1.308   .     A
C158   O186    1.303   .     A
C158   C160    1.459   .     S
C158   O188    1.295   .     A
C159   C163    1.400   .     A
C159   C165    1.402   .     A
C160   C166    1.392   .     A
C160   C164    1.392   .     A
C161   O199    1.381   .     S
C161   C163    1.410   .     A
C161   C169    1.420   .     A
C162   O201    1.383   .     S
C162   C164    1.401   .     A
C162   C170    1.417   .     A
C163   H174    1.082   .     S
C164   H173    1.074   .     S
C165   C167    1.402   .     A
C165   O197    1.384   .     S
C166   C168    1.410   .     A
C166   O195    1.383   .     S
C167   C169    1.417   .     A
C167   C171    1.409   .     A
C168   C172    1.416   .     A
C168   C170    1.428   .     A
C169   C775    1.414   .     S
C170   C776    1.412   1_554 S
C171   C802    1.396   .     S
C172   C801    1.396   1_554 S
N179   Zn189   2.026   .     S
N180   Zn190   2.026   .     S
O181   Zn189   1.988   .     S
O182   Zn190   1.988   .     S
O183   Zn190   1.973   .     S
O184   Zn189   1.973   .     S
O185   Zn189   1.965   .     S
O186   Zn190   1.965   .     S
O187   Zn190   1.910   .     S
O188   Zn189   1.910   .     S
O191   H192    0.992   .     S
O193   H194    0.992   .     S
O195   H196    0.991   .     S
O197   H198    0.992   .     S
H200   O59     0.992   1_655 S
O201   H202    0.992   .     S
O207   H208    0.987   .     S
O209   H210    0.987   .     S
C211   C222    1.404   .     S
C211   O251    1.287   .     A
C211   O253    1.284   .     A
C212   O252    1.288   .     A
C212   C221    1.404   .     S
C212   O254    1.283   .     A
C213   H245    1.082   .     S
C213   C242    1.413   .     A
C213   C215    1.410   .     A
C214   H246    1.083   .     S
C214   C241    1.409   .     A
C214   C216    1.400   .     A
C215   O261    1.382   .     S
C215   C869    1.414   1_554 S
C216   O263    1.383   .     S
C216   C870    1.412   .     S
C217   C222    1.399   .     A
C217   I273    2.126   .     S
C217   C429    1.374   .     S
C218   C221    1.399   .     A
C218   I274    2.126   .     S
C219   H247    1.083   .     S
C219   C221    1.393   .     A
C220   H248    1.083   .     S
C220   C222    1.393   .     A
C220   C428    1.375   .     S
C223   I275    2.119   .     S
C223   N250    1.384   .     A
C223   C295    1.434   .     S
C224   I276    2.128   .     S
C224   N249    1.382   .     A
C224   C366    1.436   1_455 S
C225   O277    1.379   .     S
C225   N249    1.357   .     A
C225   C363    1.434   1_455 S
C226   N250    1.361   .     A
C226   O279    1.378   .     S
C226   C294    1.436   .     S
C227   C229    1.473   .     S
C227   O257    1.297   .     A
C227   O255    1.308   .     A
C228   O256    1.303   .     A
C228   C230    1.459   .     S
C228   O258    1.295   .     A
C229   C233    1.400   .     A
C229   C235    1.402   .     A
C230   C236    1.392   .     A
C230   C234    1.392   .     A
C231   O269    1.381   .     S
C231   C233    1.410   .     A
C231   C239    1.420   .     A
C232   O271    1.383   .     S
C232   C234    1.401   .     A
C232   C240    1.417   .     A
C233   H244    1.082   .     S
C234   H243    1.074   .     S
C235   C237    1.402   .     A
C235   O267    1.384   .     S
C236   C238    1.410   .     A
C236   O265    1.383   .     S
C237   C239    1.417   .     A
C237   C241    1.409   .     A
C238   C242    1.416   .     A
C238   C240    1.428   .     A
C239   C845    1.414   .     S
C240   C846    1.412   1_554 S
C241   C872    1.396   .     S
C242   C871    1.396   1_554 S
N249   Zn259   2.026   .     S
N250   Zn260   2.026   .     S
O251   Zn259   1.988   .     S
O252   Zn260   1.988   .     S
O253   Zn260   1.973   .     S
O254   Zn259   1.973   .     S
O255   Zn259   1.965   .     S
O256   Zn260   1.965   .     S
O257   Zn260   1.910   .     S
O258   Zn259   1.910   .     S
O261   H262    0.992   .     S
O263   H264    0.992   .     S
O265   H266    0.991   .     S
O267   H268    0.992   .     S
O269   H410    0.992   1_455 S
H270   O339    0.992   .     S
O271   H272    0.992   .     S
O277   H278    0.987   .     S
O279   H280    0.987   .     S
C281   C292    1.404   .     S
C281   O321    1.287   .     A
C281   O323    1.284   .     A
C282   O322    1.288   .     A
C282   C291    1.404   .     S
C282   O324    1.283   .     A
C283   H315    1.082   .     S
C283   C312    1.413   .     A
C283   C285    1.410   .     A
C284   H316    1.083   .     S
C284   C311    1.409   .     A
C284   C286    1.400   .     A
C285   O331    1.382   .     S
C285   C939    1.414   1_554 S
C286   O333    1.383   .     S
C286   C940    1.412   .     S
C287   C292    1.399   .     A
C287   I343    2.126   .     S
C287   C499    1.374   .     S
C288   C291    1.399   .     A
C288   I344    2.126   .     S
C289   H317    1.083   .     S
C289   C291    1.393   .     A
C290   H318    1.083   .     S
C290   C292    1.393   .     A
C290   C498    1.375   .     S
C293   I345    2.119   .     S
C293   N320    1.384   .     A
C293   C365    1.434   .     S
C294   I346    2.128   .     S
C294   N319    1.382   .     A
C295   O347    1.379   .     S
C295   N319    1.357   .     A
C296   N320    1.361   .     A
C296   O349    1.378   .     S
C296   C364    1.436   .     S
C297   C299    1.473   .     S
C297   O327    1.297   .     A
C297   O325    1.308   .     A
C298   O326    1.303   .     A
C298   C300    1.459   .     S
C298   O328    1.295   .     A
C299   C303    1.400   .     A
C299   C305    1.402   .     A
C300   C306    1.392   .     A
C300   C304    1.392   .     A
C301   O339    1.381   .     S
C301   C303    1.410   .     A
C301   C309    1.420   .     A
C302   O341    1.383   .     S
C302   C304    1.401   .     A
C302   C310    1.417   .     A
C303   H314    1.082   .     S
C304   H313    1.074   .     S
C305   C307    1.402   .     A
C305   O337    1.384   .     S
C306   C308    1.410   .     A
C306   O335    1.383   .     S
C307   C309    1.417   .     A
C307   C311    1.409   .     A
C308   C312    1.416   .     A
C308   C310    1.428   .     A
C309   C915    1.414   .     S
C310   C916    1.412   1_554 S
C311   C942    1.396   .     S
C312   C941    1.396   1_554 S
N319   Zn329   2.026   .     S
N320   Zn330   2.026   .     S
O321   Zn329   1.988   .     S
O322   Zn330   1.988   .     S
O323   Zn330   1.973   .     S
O324   Zn329   1.973   .     S
O325   Zn329   1.965   .     S
O326   Zn330   1.965   .     S
O327   Zn330   1.910   .     S
O328   Zn329   1.910   .     S
O331   H332    0.992   .     S
O333   H334    0.992   .     S
O335   H336    0.991   .     S
O337   H338    0.992   .     S
H340   O409    0.992   .     S
O341   H342    0.992   .     S
O347   H348    0.987   .     S
O349   H350    0.987   .     S
C351   C362    1.404   .     S
C351   O391    1.287   .     A
C351   O393    1.284   .     A
C352   O392    1.288   .     A
C352   C361    1.404   .     S
C352   O394    1.283   .     A
C353   H385    1.082   .     S
C353   C382    1.413   .     A
C353   C355    1.410   .     A
C354   H386    1.083   .     S
C354   C381    1.409   .     A
C354   C356    1.400   .     A
C355   O401    1.382   .     S
C355   C1009   1.414   1_554 S
C356   O403    1.383   .     S
C356   C1010   1.412   .     S
C357   C362    1.399   .     A
C357   I413    2.126   .     S
C357   C569    1.374   .     S
C358   C361    1.399   .     A
C358   I414    2.126   .     S
C359   H387    1.083   .     S
C359   C361    1.393   .     A
C360   H388    1.083   .     S
C360   C362    1.393   .     A
C360   C568    1.375   .     S
C363   I415    2.119   .     S
C363   N390    1.384   .     A
C363   C225    1.434   1_655 S
C364   I416    2.128   .     S
C364   N389    1.382   .     A
C365   O417    1.379   .     S
C365   N389    1.357   .     A
C366   N390    1.361   .     A
C366   O419    1.378   .     S
C366   C224    1.436   1_655 S
C367   C369    1.473   .     S
C367   O397    1.297   .     A
C367   O395    1.308   .     A
C368   O396    1.303   .     A
C368   C370    1.459   .     S
C368   O398    1.295   .     A
C369   C373    1.400   .     A
C369   C375    1.402   .     A
C370   C376    1.392   .     A
C370   C374    1.392   .     A
C371   O409    1.381   .     S
C371   C373    1.410   .     A
C371   C379    1.420   .     A
C372   O411    1.383   .     S
C372   C374    1.401   .     A
C372   C380    1.417   .     A
C373   H384    1.082   .     S
C374   H383    1.074   .     S
C375   C377    1.402   .     A
C375   O407    1.384   .     S
C376   C378    1.410   .     A
C376   O405    1.383   .     S
C377   C379    1.417   .     A
C377   C381    1.409   .     A
C378   C382    1.416   .     A
C378   C380    1.428   .     A
C379   C985    1.414   .     S
C380   C986    1.412   1_554 S
C381   C1012   1.396   .     S
C382   C1011   1.396   1_554 S
N389   Zn399   2.026   .     S
N390   Zn400   2.026   .     S
O391   Zn399   1.988   .     S
O392   Zn400   1.988   .     S
O393   Zn400   1.973   .     S
O394   Zn399   1.973   .     S
O395   Zn399   1.965   .     S
O396   Zn400   1.965   .     S
O397   Zn400   1.910   .     S
O398   Zn399   1.910   .     S
O401   H402    0.992   .     S
O403   H404    0.992   .     S
O405   H406    0.991   .     S
O407   H408    0.992   .     S
H410   O269    0.992   1_655 S
O411   H412    0.992   .     S
O417   H418    0.987   .     S
O419   H420    0.987   .     S
C421   C432    1.404   .     S
C421   O461    1.287   .     A
C421   O463    1.284   .     A
C422   O462    1.288   .     A
C422   C431    1.404   .     S
C422   O464    1.283   .     A
C423   H455    1.082   .     S
C423   C452    1.413   .     A
C423   C425    1.410   .     A
C424   H456    1.083   .     S
C424   C451    1.409   .     A
C424   C426    1.400   .     A
C425   O471    1.382   .     S
C425   C1079   1.414   1_554 S
C426   O473    1.383   .     S
C426   C1080   1.412   .     S
C427   C432    1.399   .     A
C427   I483    2.126   .     S
C427   C9      1.374   1_565 S
C428   C431    1.399   .     A
C428   I484    2.126   .     S
C429   H457    1.083   .     S
C429   C431    1.393   .     A
C430   H458    1.083   .     S
C430   C432    1.393   .     A
C430   C8      1.375   1_565 S
C433   I485    2.119   .     S
C433   N460    1.384   .     A
C433   C505    1.434   .     S
C434   I486    2.128   .     S
C434   N459    1.382   .     A
C434   C576    1.436   1_455 S
C435   O487    1.379   .     S
C435   N459    1.357   .     A
C435   C573    1.434   1_455 S
C436   N460    1.361   .     A
C436   O489    1.378   .     S
C436   C504    1.436   .     S
C437   C439    1.473   .     S
C437   O467    1.297   .     A
C437   O465    1.308   .     A
C438   O466    1.303   .     A
C438   C440    1.459   .     S
C438   O468    1.295   .     A
C439   C443    1.400   .     A
C439   C445    1.402   .     A
C440   C446    1.392   .     A
C440   C444    1.392   .     A
C441   O479    1.381   .     S
C441   C443    1.410   .     A
C441   C449    1.420   .     A
C442   O481    1.383   .     S
C442   C444    1.401   .     A
C442   C450    1.417   .     A
C443   H454    1.082   .     S
C444   H453    1.074   .     S
C445   C447    1.402   .     A
C445   O477    1.384   .     S
C446   C448    1.410   .     A
C446   O475    1.383   .     S
C447   C449    1.417   .     A
C447   C451    1.409   .     A
C448   C452    1.416   .     A
C448   C450    1.428   .     A
C449   C1055   1.414   .     S
C450   C1056   1.412   1_554 S
C451   C1082   1.396   .     S
C452   C1081   1.396   1_554 S
N459   Zn469   2.026   .     S
N460   Zn470   2.026   .     S
O461   Zn469   1.988   .     S
O462   Zn470   1.988   .     S
O463   Zn470   1.973   .     S
O464   Zn469   1.973   .     S
O465   Zn469   1.965   .     S
O466   Zn470   1.965   .     S
O467   Zn470   1.910   .     S
O468   Zn469   1.910   .     S
O471   H472    0.992   .     S
O473   H474    0.992   .     S
O475   H476    0.991   .     S
O477   H478    0.992   .     S
O479   H620    0.992   1_455 S
H480   O549    0.992   .     S
O481   H482    0.992   .     S
O487   H488    0.987   .     S
O489   H490    0.987   .     S
C491   C502    1.404   .     S
C491   O531    1.287   .     A
C491   O533    1.284   .     A
C492   O532    1.288   .     A
C492   C501    1.404   .     S
C492   O534    1.283   .     A
C493   H525    1.082   .     S
C493   C522    1.413   .     A
C493   C495    1.410   .     A
C494   H526    1.083   .     S
C494   C521    1.409   .     A
C494   C496    1.400   .     A
C495   O541    1.382   .     S
C495   C1149   1.414   1_554 S
C496   O543    1.383   .     S
C496   C1150   1.412   .     S
C497   C502    1.399   .     A
C497   I553    2.126   .     S
C497   C79     1.374   1_565 S
C498   C501    1.399   .     A
C498   I554    2.126   .     S
C499   H527    1.083   .     S
C499   C501    1.393   .     A
C500   H528    1.083   .     S
C500   C502    1.393   .     A
C500   C78     1.375   1_565 S
C503   I555    2.119   .     S
C503   N530    1.384   .     A
C503   C575    1.434   .     S
C504   I556    2.128   .     S
C504   N529    1.382   .     A
C505   O557    1.379   .     S
C505   N529    1.357   .     A
C506   N530    1.361   .     A
C506   O559    1.378   .     S
C506   C574    1.436   .     S
C507   C509    1.473   .     S
C507   O537    1.297   .     A
C507   O535    1.308   .     A
C508   O536    1.303   .     A
C508   C510    1.459   .     S
C508   O538    1.295   .     A
C509   C513    1.400   .     A
C509   C515    1.402   .     A
C510   C516    1.392   .     A
C510   C514    1.392   .     A
C511   O549    1.381   .     S
C511   C513    1.410   .     A
C511   C519    1.420   .     A
C512   O551    1.383   .     S
C512   C514    1.401   .     A
C512   C520    1.417   .     A
C513   H524    1.082   .     S
C514   H523    1.074   .     S
C515   C517    1.402   .     A
C515   O547    1.384   .     S
C516   C518    1.410   .     A
C516   O545    1.383   .     S
C517   C519    1.417   .     A
C517   C521    1.409   .     A
C518   C522    1.416   .     A
C518   C520    1.428   .     A
C519   C1125   1.414   .     S
C520   C1126   1.412   1_554 S
C521   C1152   1.396   .     S
C522   C1151   1.396   1_554 S
N529   Zn539   2.026   .     S
N530   Zn540   2.026   .     S
O531   Zn539   1.988   .     S
O532   Zn540   1.988   .     S
O533   Zn540   1.973   .     S
O534   Zn539   1.973   .     S
O535   Zn539   1.965   .     S
O536   Zn540   1.965   .     S
O537   Zn540   1.910   .     S
O538   Zn539   1.910   .     S
O541   H542    0.992   .     S
O543   H544    0.992   .     S
O545   H546    0.991   .     S
O547   H548    0.992   .     S
H550   O619    0.992   .     S
O551   H552    0.992   .     S
O557   H558    0.987   .     S
O559   H560    0.987   .     S
C561   C572    1.404   .     S
C561   O601    1.287   .     A
C561   O603    1.284   .     A
C562   O602    1.288   .     A
C562   C571    1.404   .     S
C562   O604    1.283   .     A
C563   H595    1.082   .     S
C563   C592    1.413   .     A
C563   C565    1.410   .     A
C564   H596    1.083   .     S
C564   C591    1.409   .     A
C564   C566    1.400   .     A
C565   O611    1.382   .     S
C565   C1219   1.414   1_554 S
C566   O613    1.383   .     S
C566   C1220   1.412   .     S
C567   C572    1.399   .     A
C567   I623    2.126   .     S
C567   C149    1.374   1_565 S
C568   C571    1.399   .     A
C568   I624    2.126   .     S
C569   H597    1.083   .     S
C569   C571    1.393   .     A
C570   H598    1.083   .     S
C570   C572    1.393   .     A
C570   C148    1.375   1_565 S
C573   I625    2.119   .     S
C573   N600    1.384   .     A
C573   C435    1.434   1_655 S
C574   I626    2.128   .     S
C574   N599    1.382   .     A
C575   O627    1.379   .     S
C575   N599    1.357   .     A
C576   N600    1.361   .     A
C576   O629    1.378   .     S
C576   C434    1.436   1_655 S
C577   C579    1.473   .     S
C577   O607    1.297   .     A
C577   O605    1.308   .     A
C578   O606    1.303   .     A
C578   C580    1.459   .     S
C578   O608    1.295   .     A
C579   C583    1.400   .     A
C579   C585    1.402   .     A
C580   C586    1.392   .     A
C580   C584    1.392   .     A
C581   O619    1.381   .     S
C581   C583    1.410   .     A
C581   C589    1.420   .     A
C582   O621    1.383   .     S
C582   C584    1.401   .     A
C582   C590    1.417   .     A
C583   H594    1.082   .     S
C584   H593    1.074   .     S
C585   C587    1.402   .     A
C585   O617    1.384   .     S
C586   C588    1.410   .     A
C586   O615    1.383   .     S
C587   C589    1.417   .     A
C587   C591    1.409   .     A
C588   C592    1.416   .     A
C588   C590    1.428   .     A
C589   C1195   1.414   .     S
C590   C1196   1.412   1_554 S
C591   C1222   1.396   .     S
C592   C1221   1.396   1_554 S
N599   Zn609   2.026   .     S
N600   Zn610   2.026   .     S
O601   Zn609   1.988   .     S
O602   Zn610   1.988   .     S
O603   Zn610   1.973   .     S
O604   Zn609   1.973   .     S
O605   Zn609   1.965   .     S
O606   Zn610   1.965   .     S
O607   Zn610   1.910   .     S
O608   Zn609   1.910   .     S
O611   H612    0.992   .     S
O613   H614    0.992   .     S
O615   H616    0.991   .     S
O617   H618    0.992   .     S
H620   O479    0.992   1_655 S
O621   H622    0.992   .     S
O627   H628    0.987   .     S
O629   H630    0.987   .     S
C631   C642    1.404   .     S
C631   O671    1.287   .     A
C631   O673    1.284   .     A
C632   O672    1.288   .     A
C632   C641    1.404   .     S
C632   O674    1.283   .     A
C633   H665    1.082   .     S
C633   C662    1.413   .     A
C633   C635    1.410   .     A
C634   H666    1.083   .     S
C634   C661    1.409   .     A
C634   C636    1.400   .     A
C635   O681    1.382   .     S
C636   O683    1.383   .     S
C636   C30     1.412   1_556 S
C637   C642    1.399   .     A
C637   I693    2.126   .     S
C637   C849    1.374   .     S
C638   C641    1.399   .     A
C638   I694    2.126   .     S
C638   C1060   1.375   1_545 S
C639   H667    1.083   .     S
C639   C641    1.393   .     A
C639   C1057   1.374   1_545 S
C640   H668    1.083   .     S
C640   C642    1.393   .     A
C640   C848    1.375   .     S
C643   I695    2.119   .     S
C643   N670    1.384   .     A
C643   C715    1.434   .     S
C644   I696    2.128   .     S
C644   N669    1.382   .     A
C644   C786    1.436   1_455 S
C645   O697    1.379   .     S
C645   N669    1.357   .     A
C645   C783    1.434   1_455 S
C646   N670    1.361   .     A
C646   O699    1.378   .     S
C646   C714    1.436   .     S
C647   C649    1.473   .     S
C647   O677    1.297   .     A
C647   O675    1.308   .     A
C648   O676    1.303   .     A
C648   C650    1.459   .     S
C648   O678    1.295   .     A
C649   C653    1.400   .     A
C649   C655    1.402   .     A
C650   C656    1.392   .     A
C650   C654    1.392   .     A
C651   O689    1.381   .     S
C651   C653    1.410   .     A
C651   C659    1.420   .     A
C652   O691    1.383   .     S
C652   C654    1.401   .     A
C652   C660    1.417   .     A
C653   H664    1.082   .     S
C654   H663    1.074   .     S
C655   C657    1.402   .     A
C655   O687    1.384   .     S
C656   C658    1.410   .     A
C656   O685    1.383   .     S
C657   C659    1.417   .     A
C657   C661    1.409   .     A
C658   C662    1.416   .     A
C658   C660    1.428   .     A
C659   C5      1.414   1_556 S
C661   C32     1.396   1_556 S
N669   Zn679   2.026   .     S
N670   Zn680   2.026   .     S
O671   Zn679   1.988   .     S
O672   Zn680   1.988   .     S
O673   Zn680   1.973   .     S
O674   Zn679   1.973   .     S
O675   Zn679   1.965   .     S
O676   Zn680   1.965   .     S
O677   Zn680   1.910   .     S
O678   Zn679   1.910   .     S
O681   H682    0.992   .     S
O683   H684    0.992   .     S
O685   H686    0.991   .     S
O687   H688    0.992   .     S
O689   H830    0.992   1_455 S
H690   O759    0.992   .     S
O691   H692    0.992   .     S
O697   H698    0.987   .     S
O699   H700    0.987   .     S
C701   C712    1.404   .     S
C701   O741    1.287   .     A
C701   O743    1.284   .     A
C702   O742    1.288   .     A
C702   C711    1.404   .     S
C702   O744    1.283   .     A
C703   H735    1.082   .     S
C703   C732    1.413   .     A
C703   C705    1.410   .     A
C704   H736    1.083   .     S
C704   C731    1.409   .     A
C704   C706    1.400   .     A
C705   O751    1.382   .     S
C706   O753    1.383   .     S
C706   C100    1.412   1_556 S
C707   C712    1.399   .     A
C707   I763    2.126   .     S
C707   C919    1.374   .     S
C708   C711    1.399   .     A
C708   I764    2.126   .     S
C708   C1130   1.375   1_545 S
C709   H737    1.083   .     S
C709   C711    1.393   .     A
C709   C1127   1.374   1_545 S
C710   H738    1.083   .     S
C710   C712    1.393   .     A
C710   C918    1.375   .     S
C713   I765    2.119   .     S
C713   N740    1.384   .     A
C713   C785    1.434   .     S
C714   I766    2.128   .     S
C714   N739    1.382   .     A
C715   O767    1.379   .     S
C715   N739    1.357   .     A
C716   N740    1.361   .     A
C716   O769    1.378   .     S
C716   C784    1.436   .     S
C717   C719    1.473   .     S
C717   O747    1.297   .     A
C717   O745    1.308   .     A
C718   O746    1.303   .     A
C718   C720    1.459   .     S
C718   O748    1.295   .     A
C719   C723    1.400   .     A
C719   C725    1.402   .     A
C720   C726    1.392   .     A
C720   C724    1.392   .     A
C721   O759    1.381   .     S
C721   C723    1.410   .     A
C721   C729    1.420   .     A
C722   O761    1.383   .     S
C722   C724    1.401   .     A
C722   C730    1.417   .     A
C723   H734    1.082   .     S
C724   H733    1.074   .     S
C725   C727    1.402   .     A
C725   O757    1.384   .     S
C726   C728    1.410   .     A
C726   O755    1.383   .     S
C727   C729    1.417   .     A
C727   C731    1.409   .     A
C728   C732    1.416   .     A
C728   C730    1.428   .     A
C729   C75     1.414   1_556 S
C731   C102    1.396   1_556 S
N739   Zn749   2.026   .     S
N740   Zn750   2.026   .     S
O741   Zn749   1.988   .     S
O742   Zn750   1.988   .     S
O743   Zn750   1.973   .     S
O744   Zn749   1.973   .     S
O745   Zn749   1.965   .     S
O746   Zn750   1.965   .     S
O747   Zn750   1.910   .     S
O748   Zn749   1.910   .     S
O751   H752    0.992   .     S
O753   H754    0.992   .     S
O755   H756    0.991   .     S
O757   H758    0.992   .     S
H760   O829    0.992   .     S
O761   H762    0.992   .     S
O767   H768    0.987   .     S
O769   H770    0.987   .     S
C771   C782    1.404   .     S
C771   O811    1.287   .     A
C771   O813    1.284   .     A
C772   O812    1.288   .     A
C772   C781    1.404   .     S
C772   O814    1.283   .     A
C773   H805    1.082   .     S
C773   C802    1.413   .     A
C773   C775    1.410   .     A
C774   H806    1.083   .     S
C774   C801    1.409   .     A
C774   C776    1.400   .     A
C775   O821    1.382   .     S
C776   O823    1.383   .     S
C776   C170    1.412   1_556 S
C777   C782    1.399   .     A
C777   I833    2.126   .     S
C777   C989    1.374   .     S
C778   C781    1.399   .     A
C778   I834    2.126   .     S
C778   C1200   1.375   1_545 S
C779   H807    1.083   .     S
C779   C781    1.393   .     A
C779   C1197   1.374   1_545 S
C780   H808    1.083   .     S
C780   C782    1.393   .     A
C780   C988    1.375   .     S
C783   I835    2.119   .     S
C783   N810    1.384   .     A
C783   C645    1.434   1_655 S
C784   I836    2.128   .     S
C784   N809    1.382   .     A
C785   O837    1.379   .     S
C785   N809    1.357   .     A
C786   N810    1.361   .     A
C786   O839    1.378   .     S
C786   C644    1.436   1_655 S
C787   C789    1.473   .     S
C787   O817    1.297   .     A
C787   O815    1.308   .     A
C788   O816    1.303   .     A
C788   C790    1.459   .     S
C788   O818    1.295   .     A
C789   C793    1.400   .     A
C789   C795    1.402   .     A
C790   C796    1.392   .     A
C790   C794    1.392   .     A
C791   O829    1.381   .     S
C791   C793    1.410   .     A
C791   C799    1.420   .     A
C792   O831    1.383   .     S
C792   C794    1.401   .     A
C792   C800    1.417   .     A
C793   H804    1.082   .     S
C794   H803    1.074   .     S
C795   C797    1.402   .     A
C795   O827    1.384   .     S
C796   C798    1.410   .     A
C796   O825    1.383   .     S
C797   C799    1.417   .     A
C797   C801    1.409   .     A
C798   C802    1.416   .     A
C798   C800    1.428   .     A
C799   C145    1.414   1_556 S
C801   C172    1.396   1_556 S
N809   Zn819   2.026   .     S
N810   Zn820   2.026   .     S
O811   Zn819   1.988   .     S
O812   Zn820   1.988   .     S
O813   Zn820   1.973   .     S
O814   Zn819   1.973   .     S
O815   Zn819   1.965   .     S
O816   Zn820   1.965   .     S
O817   Zn820   1.910   .     S
O818   Zn819   1.910   .     S
O821   H822    0.992   .     S
O823   H824    0.992   .     S
O825   H826    0.991   .     S
O827   H828    0.992   .     S
H830   O689    0.992   1_655 S
O831   H832    0.992   .     S
O837   H838    0.987   .     S
O839   H840    0.987   .     S
C841   C852    1.404   .     S
C841   O881    1.287   .     A
C841   O883    1.284   .     A
C842   O882    1.288   .     A
C842   C851    1.404   .     S
C842   O884    1.283   .     A
C843   H875    1.082   .     S
C843   C872    1.413   .     A
C843   C845    1.410   .     A
C844   H876    1.083   .     S
C844   C871    1.409   .     A
C844   C846    1.400   .     A
C845   O891    1.382   .     S
C846   O893    1.383   .     S
C846   C240    1.412   1_556 S
C847   C852    1.399   .     A
C847   I903    2.126   .     S
C847   C1059   1.374   .     S
C848   C851    1.399   .     A
C848   I904    2.126   .     S
C849   H877    1.083   .     S
C849   C851    1.393   .     A
C850   H878    1.083   .     S
C850   C852    1.393   .     A
C850   C1058   1.375   .     S
C853   I905    2.119   .     S
C853   N880    1.384   .     A
C853   C925    1.434   .     S
C854   I906    2.128   .     S
C854   N879    1.382   .     A
C854   C996    1.436   1_455 S
C855   O907    1.379   .     S
C855   N879    1.357   .     A
C855   C993    1.434   1_455 S
C856   N880    1.361   .     A
C856   O909    1.378   .     S
C856   C924    1.436   .     S
C857   C859    1.473   .     S
C857   O887    1.297   .     A
C857   O885    1.308   .     A
C858   O886    1.303   .     A
C858   C860    1.459   .     S
C858   O888    1.295   .     A
C859   C863    1.400   .     A
C859   C865    1.402   .     A
C860   C866    1.392   .     A
C860   C864    1.392   .     A
C861   O899    1.381   .     S
C861   C863    1.410   .     A
C861   C869    1.420   .     A
C862   O901    1.383   .     S
C862   C864    1.401   .     A
C862   C870    1.417   .     A
C863   H874    1.082   .     S
C864   H873    1.074   .     S
C865   C867    1.402   .     A
C865   O897    1.384   .     S
C866   C868    1.410   .     A
C866   O895    1.383   .     S
C867   C869    1.417   .     A
C867   C871    1.409   .     A
C868   C872    1.416   .     A
C868   C870    1.428   .     A
C869   C215    1.414   1_556 S
C871   C242    1.396   1_556 S
N879   Zn889   2.026   .     S
N880   Zn890   2.026   .     S
O881   Zn889   1.988   .     S
O882   Zn890   1.988   .     S
O883   Zn890   1.973   .     S
O884   Zn889   1.973   .     S
O885   Zn889   1.965   .     S
O886   Zn890   1.965   .     S
O887   Zn890   1.910   .     S
O888   Zn889   1.910   .     S
O891   H892    0.992   .     S
O893   H894    0.992   .     S
O895   H896    0.991   .     S
O897   H898    0.992   .     S
O899   H1040   0.992   1_455 S
H900   O969    0.992   .     S
O901   H902    0.992   .     S
O907   H908    0.987   .     S
O909   H910    0.987   .     S
C911   C922    1.404   .     S
C911   O951    1.287   .     A
C911   O953    1.284   .     A
C912   O952    1.288   .     A
C912   C921    1.404   .     S
C912   O954    1.283   .     A
C913   H945    1.082   .     S
C913   C942    1.413   .     A
C913   C915    1.410   .     A
C914   H946    1.083   .     S
C914   C941    1.409   .     A
C914   C916    1.400   .     A
C915   O961    1.382   .     S
C916   O963    1.383   .     S
C916   C310    1.412   1_556 S
C917   C922    1.399   .     A
C917   I973    2.126   .     S
C917   C1129   1.374   .     S
C918   C921    1.399   .     A
C918   I974    2.126   .     S
C919   H947    1.083   .     S
C919   C921    1.393   .     A
C920   H948    1.083   .     S
C920   C922    1.393   .     A
C920   C1128   1.375   .     S
C923   I975    2.119   .     S
C923   N950    1.384   .     A
C923   C995    1.434   .     S
C924   I976    2.128   .     S
C924   N949    1.382   .     A
C925   O977    1.379   .     S
C925   N949    1.357   .     A
C926   N950    1.361   .     A
C926   O979    1.378   .     S
C926   C994    1.436   .     S
C927   C929    1.473   .     S
C927   O957    1.297   .     A
C927   O955    1.308   .     A
C928   O956    1.303   .     A
C928   C930    1.459   .     S
C928   O958    1.295   .     A
C929   C933    1.400   .     A
C929   C935    1.402   .     A
C930   C936    1.392   .     A
C930   C934    1.392   .     A
C931   O969    1.381   .     S
C931   C933    1.410   .     A
C931   C939    1.420   .     A
C932   O971    1.383   .     S
C932   C934    1.401   .     A
C932   C940    1.417   .     A
C933   H944    1.082   .     S
C934   H943    1.074   .     S
C935   C937    1.402   .     A
C935   O967    1.384   .     S
C936   C938    1.410   .     A
C936   O965    1.383   .     S
C937   C939    1.417   .     A
C937   C941    1.409   .     A
C938   C942    1.416   .     A
C938   C940    1.428   .     A
C939   C285    1.414   1_556 S
C941   C312    1.396   1_556 S
N949   Zn959   2.026   .     S
N950   Zn960   2.026   .     S
O951   Zn959   1.988   .     S
O952   Zn960   1.988   .     S
O953   Zn960   1.973   .     S
O954   Zn959   1.973   .     S
O955   Zn959   1.965   .     S
O956   Zn960   1.965   .     S
O957   Zn960   1.910   .     S
O958   Zn959   1.910   .     S
O961   H962    0.992   .     S
O963   H964    0.992   .     S
O965   H966    0.991   .     S
O967   H968    0.992   .     S
H970   O1039   0.992   .     S
O971   H972    0.992   .     S
O977   H978    0.987   .     S
O979   H980    0.987   .     S
C981   C992    1.404   .     S
C981   O1021   1.287   .     A
C981   O1023   1.284   .     A
C982   O1022   1.288   .     A
C982   C991    1.404   .     S
C982   O1024   1.283   .     A
C983   H1015   1.082   .     S
C983   C1012   1.413   .     A
C983   C985    1.410   .     A
C984   H1016   1.083   .     S
C984   C1011   1.409   .     A
C984   C986    1.400   .     A
C985   O1031   1.382   .     S
C986   O1033   1.383   .     S
C986   C380    1.412   1_556 S
C987   C992    1.399   .     A
C987   I1043   2.126   .     S
C987   C1199   1.374   .     S
C988   C991    1.399   .     A
C988   I1044   2.126   .     S
C989   H1017   1.083   .     S
C989   C991    1.393   .     A
C990   H1018   1.083   .     S
C990   C992    1.393   .     A
C990   C1198   1.375   .     S
C993   I1045   2.119   .     S
C993   N1020   1.384   .     A
C993   C855    1.434   1_655 S
C994   I1046   2.128   .     S
C994   N1019   1.382   .     A
C995   O1047   1.379   .     S
C995   N1019   1.357   .     A
C996   N1020   1.361   .     A
C996   O1049   1.378   .     S
C996   C854    1.436   1_655 S
C997   C999    1.473   .     S
C997   O1027   1.297   .     A
C997   O1025   1.308   .     A
C998   O1026   1.303   .     A
C998   C1000   1.459   .     S
C998   O1028   1.295   .     A
C999   C1003   1.400   .     A
C999   C1005   1.402   .     A
C1000  C1006   1.392   .     A
C1000  C1004   1.392   .     A
C1001  O1039   1.381   .     S
C1001  C1003   1.410   .     A
C1001  C1009   1.420   .     A
C1002  O1041   1.383   .     S
C1002  C1004   1.401   .     A
C1002  C1010   1.417   .     A
C1003  H1014   1.082   .     S
C1004  H1013   1.074   .     S
C1005  C1007   1.402   .     A
C1005  O1037   1.384   .     S
C1006  C1008   1.410   .     A
C1006  O1035   1.383   .     S
C1007  C1009   1.417   .     A
C1007  C1011   1.409   .     A
C1008  C1012   1.416   .     A
C1008  C1010   1.428   .     A
C1009  C355    1.414   1_556 S
C1011  C382    1.396   1_556 S
N1019  Zn1029  2.026   .     S
N1020  Zn1030  2.026   .     S
O1021  Zn1029  1.988   .     S
O1022  Zn1030  1.988   .     S
O1023  Zn1030  1.973   .     S
O1024  Zn1029  1.973   .     S
O1025  Zn1029  1.965   .     S
O1026  Zn1030  1.965   .     S
O1027  Zn1030  1.910   .     S
O1028  Zn1029  1.910   .     S
O1031  H1032   0.992   .     S
O1033  H1034   0.992   .     S
O1035  H1036   0.991   .     S
O1037  H1038   0.992   .     S
H1040  O899    0.992   1_655 S
O1041  H1042   0.992   .     S
O1047  H1048   0.987   .     S
O1049  H1050   0.987   .     S
C1051  C1062   1.404   .     S
C1051  O1091   1.287   .     A
C1051  O1093   1.284   .     A
C1052  O1092   1.288   .     A
C1052  C1061   1.404   .     S
C1052  O1094   1.283   .     A
C1053  H1085   1.082   .     S
C1053  C1082   1.413   .     A
C1053  C1055   1.410   .     A
C1054  H1086   1.083   .     S
C1054  C1081   1.409   .     A
C1054  C1056   1.400   .     A
C1055  O1101   1.382   .     S
C1056  O1103   1.383   .     S
C1056  C450    1.412   1_556 S
C1057  C1062   1.399   .     A
C1057  I1113   2.126   .     S
C1057  C639    1.374   1_565 S
C1058  C1061   1.399   .     A
C1058  I1114   2.126   .     S
C1059  H1087   1.083   .     S
C1059  C1061   1.393   .     A
C1060  H1088   1.083   .     S
C1060  C1062   1.393   .     A
C1060  C638    1.375   1_565 S
C1063  I1115   2.119   .     S
C1063  N1090   1.384   .     A
C1063  C1135   1.434   .     S
C1064  I1116   2.128   .     S
C1064  N1089   1.382   .     A
C1064  C1206   1.436   1_455 S
C1065  O1117   1.379   .     S
C1065  N1089   1.357   .     A
C1065  C1203   1.434   1_455 S
C1066  N1090   1.361   .     A
C1066  O1119   1.378   .     S
C1066  C1134   1.436   .     S
C1067  C1069   1.473   .     S
C1067  O1097   1.297   .     A
C1067  O1095   1.308   .     A
C1068  O1096   1.303   .     A
C1068  C1070   1.459   .     S
C1068  O1098   1.295   .     A
C1069  C1073   1.400   .     A
C1069  C1075   1.402   .     A
C1070  C1076   1.392   .     A
C1070  C1074   1.392   .     A
C1071  O1109   1.381   .     S
C1071  C1073   1.410   .     A
C1071  C1079   1.420   .     A
C1072  O1111   1.383   .     S
C1072  C1074   1.401   .     A
C1072  C1080   1.417   .     A
C1073  H1084   1.082   .     S
C1074  H1083   1.074   .     S
C1075  C1077   1.402   .     A
C1075  O1107   1.384   .     S
C1076  C1078   1.410   .     A
C1076  O1105   1.383   .     S
C1077  C1079   1.417   .     A
C1077  C1081   1.409   .     A
C1078  C1082   1.416   .     A
C1078  C1080   1.428   .     A
C1079  C425    1.414   1_556 S
C1081  C452    1.396   1_556 S
N1089  Zn1099  2.026   .     S
N1090  Zn1100  2.026   .     S
O1091  Zn1099  1.988   .     S
O1092  Zn1100  1.988   .     S
O1093  Zn1100  1.973   .     S
O1094  Zn1099  1.973   .     S
O1095  Zn1099  1.965   .     S
O1096  Zn1100  1.965   .     S
O1097  Zn1100  1.910   .     S
O1098  Zn1099  1.910   .     S
O1101  H1102   0.992   .     S
O1103  H1104   0.992   .     S
O1105  H1106   0.991   .     S
O1107  H1108   0.992   .     S
O1109  H1250   0.992   1_455 S
H1110  O1179   0.992   .     S
O1111  H1112   0.992   .     S
O1117  H1118   0.987   .     S
O1119  H1120   0.987   .     S
C1121  C1132   1.404   .     S
C1121  O1161   1.287   .     A
C1121  O1163   1.284   .     A
C1122  O1162   1.288   .     A
C1122  C1131   1.404   .     S
C1122  O1164   1.283   .     A
C1123  H1155   1.082   .     S
C1123  C1152   1.413   .     A
C1123  C1125   1.410   .     A
C1124  H1156   1.083   .     S
C1124  C1151   1.409   .     A
C1124  C1126   1.400   .     A
C1125  O1171   1.382   .     S
C1126  O1173   1.383   .     S
C1126  C520    1.412   1_556 S
C1127  C1132   1.399   .     A
C1127  I1183   2.126   .     S
C1127  C709    1.374   1_565 S
C1128  C1131   1.399   .     A
C1128  I1184   2.126   .     S
C1129  H1157   1.083   .     S
C1129  C1131   1.393   .     A
C1130  H1158   1.083   .     S
C1130  C1132   1.393   .     A
C1130  C708    1.375   1_565 S
C1133  I1185   2.119   .     S
C1133  N1160   1.384   .     A
C1133  C1205   1.434   .     S
C1134  I1186   2.128   .     S
C1134  N1159   1.382   .     A
C1135  O1187   1.379   .     S
C1135  N1159   1.357   .     A
C1136  N1160   1.361   .     A
C1136  O1189   1.378   .     S
C1136  C1204   1.436   .     S
C1137  C1139   1.473   .     S
C1137  O1167   1.297   .     A
C1137  O1165   1.308   .     A
C1138  O1166   1.303   .     A
C1138  C1140   1.459   .     S
C1138  O1168   1.295   .     A
C1139  C1143   1.400   .     A
C1139  C1145   1.402   .     A
C1140  C1146   1.392   .     A
C1140  C1144   1.392   .     A
C1141  O1179   1.381   .     S
C1141  C1143   1.410   .     A
C1141  C1149   1.420   .     A
C1142  O1181   1.383   .     S
C1142  C1144   1.401   .     A
C1142  C1150   1.417   .     A
C1143  H1154   1.082   .     S
C1144  H1153   1.074   .     S
C1145  C1147   1.402   .     A
C1145  O1177   1.384   .     S
C1146  C1148   1.410   .     A
C1146  O1175   1.383   .     S
C1147  C1149   1.417   .     A
C1147  C1151   1.409   .     A
C1148  C1152   1.416   .     A
C1148  C1150   1.428   .     A
C1149  C495    1.414   1_556 S
C1151  C522    1.396   1_556 S
N1159  Zn1169  2.026   .     S
N1160  Zn1170  2.026   .     S
O1161  Zn1169  1.988   .     S
O1162  Zn1170  1.988   .     S
O1163  Zn1170  1.973   .     S
O1164  Zn1169  1.973   .     S
O1165  Zn1169  1.965   .     S
O1166  Zn1170  1.965   .     S
O1167  Zn1170  1.910   .     S
O1168  Zn1169  1.910   .     S
O1171  H1172   0.992   .     S
O1173  H1174   0.992   .     S
O1175  H1176   0.991   .     S
O1177  H1178   0.992   .     S
H1180  O1249   0.992   .     S
O1181  H1182   0.992   .     S
O1187  H1188   0.987   .     S
O1189  H1190   0.987   .     S
C1191  C1202   1.404   .     S
C1191  O1231   1.287   .     A
C1191  O1233   1.284   .     A
C1192  O1232   1.288   .     A
C1192  C1201   1.404   .     S
C1192  O1234   1.283   .     A
C1193  H1225   1.082   .     S
C1193  C1222   1.413   .     A
C1193  C1195   1.410   .     A
C1194  H1226   1.083   .     S
C1194  C1221   1.409   .     A
C1194  C1196   1.400   .     A
C1195  O1241   1.382   .     S
C1196  O1243   1.383   .     S
C1196  C590    1.412   1_556 S
C1197  C1202   1.399   .     A
C1197  I1253   2.126   .     S
C1197  C779    1.374   1_565 S
C1198  C1201   1.399   .     A
C1198  I1254   2.126   .     S
C1199  H1227   1.083   .     S
C1199  C1201   1.393   .     A
C1200  H1228   1.083   .     S
C1200  C1202   1.393   .     A
C1200  C778    1.375   1_565 S
C1203  I1255   2.119   .     S
C1203  N1230   1.384   .     A
C1203  C1065   1.434   1_655 S
C1204  I1256   2.128   .     S
C1204  N1229   1.382   .     A
C1205  O1257   1.379   .     S
C1205  N1229   1.357   .     A
C1206  N1230   1.361   .     A
C1206  O1259   1.378   .     S
C1206  C1064   1.436   1_655 S
C1207  C1209   1.473   .     S
C1207  O1237   1.297   .     A
C1207  O1235   1.308   .     A
C1208  O1236   1.303   .     A
C1208  C1210   1.459   .     S
C1208  O1238   1.295   .     A
C1209  C1213   1.400   .     A
C1209  C1215   1.402   .     A
C1210  C1216   1.392   .     A
C1210  C1214   1.392   .     A
C1211  O1249   1.381   .     S
C1211  C1213   1.410   .     A
C1211  C1219   1.420   .     A
C1212  O1251   1.383   .     S
C1212  C1214   1.401   .     A
C1212  C1220   1.417   .     A
C1213  H1224   1.082   .     S
C1214  H1223   1.074   .     S
C1215  C1217   1.402   .     A
C1215  O1247   1.384   .     S
C1216  C1218   1.410   .     A
C1216  O1245   1.383   .     S
C1217  C1219   1.417   .     A
C1217  C1221   1.409   .     A
C1218  C1222   1.416   .     A
C1218  C1220   1.428   .     A
C1219  C565    1.414   1_556 S
C1221  C592    1.396   1_556 S
N1229  Zn1239  2.026   .     S
N1230  Zn1240  2.026   .     S
O1231  Zn1239  1.988   .     S
O1232  Zn1240  1.988   .     S
O1233  Zn1240  1.973   .     S
O1234  Zn1239  1.973   .     S
O1235  Zn1239  1.965   .     S
O1236  Zn1240  1.965   .     S
O1237  Zn1240  1.910   .     S
O1238  Zn1239  1.910   .     S
O1241  H1242   0.992   .     S
O1243  H1244   0.992   .     S
O1245  H1246   0.991   .     S
O1247  H1248   0.992   .     S
H1250  O1109   0.992   1_655 S
O1251  H1252   0.992   .     S
O1257  H1258   0.987   .     S
O1259  H1260   0.987   .     S
