data_str_m3_o1_o17_pcu_sym.158
_audit_creation_date              2020-01-03
_audit_creation_method            'Materials Studio'
_symmetry_space_group_name_H-M    'P1'
_symmetry_Int_Tables_number       1
_symmetry_cell_setting            triclinic
loop_
_symmetry_equiv_pos_as_xyz
  x,y,z
_cell_length_a                    32.0391
_cell_length_b                    29.5417
_cell_length_c                    29.8987
_cell_angle_alpha                 89.6386
_cell_angle_beta                  90.6526
_cell_angle_gamma                 90.1186
loop_
_atom_site_label
_atom_site_type_symbol
_atom_site_fract_x
_atom_site_fract_y
_atom_site_fract_z
_atom_site_U_iso_or_equiv
_atom_site_adp_type
_atom_site_occupancy
C1     C     0.08665   0.16662   0.25018   0.00000  Uiso   1.00
C2     C     0.24668   0.16671   0.24982   0.00000  Uiso   1.00
C3     C     0.09640   0.19990   0.02001   0.00000  Uiso   1.00
C4     C     0.23695   0.13346   0.47999   0.00000  Uiso   1.00
C5     C     0.02116   0.12738   0.23760   0.00000  Uiso   1.00
C6     C     0.31217   0.20595   0.26243   0.00000  Uiso   1.00
C7     C     0.31177   0.12756   0.23703   0.00000  Uiso   1.00
C8     C     0.02157   0.20576   0.26300   0.00000  Uiso   1.00
C9     C     0.29082   0.16681   0.24955   0.00000  Uiso   1.00
C10    C     0.04252   0.16652   0.25047   0.00000  Uiso   1.00
C11    C     0.19932   0.02392   0.26820   0.00000  Uiso   1.00
C12    C     0.13401   0.30942   0.23179   0.00000  Uiso   1.00
C13    C     0.13403   0.02401   0.23171   0.00000  Uiso   1.00
C14    C     0.19930   0.30933   0.26829   0.00000  Uiso   1.00
C15    C     0.16542   0.16682   0.16358   0.00000  Uiso   1.00
C16    C     0.16792   0.16651   0.33642   0.00000  Uiso   1.00
C17    C     0.20371   0.14963   0.40775   0.00000  Uiso   1.00
C18    C     0.12963   0.18371   0.09225   0.00000  Uiso   1.00
C19    C     0.16887   0.16616   0.38408   0.00000  Uiso   1.00
C20    C     0.16447   0.16718   0.11592   0.00000  Uiso   1.00
C21    C     0.13403   0.18291   0.40547   0.00000  Uiso   1.00
C22    C     0.19932   0.15044   0.09453   0.00000  Uiso   1.00
C23    C     0.13250   0.18323   0.45175   0.00000  Uiso   1.00
C24    C     0.20085   0.15013   0.04825   0.00000  Uiso   1.00
C25    C     0.16718   0.16658   0.47659   0.00000  Uiso   1.00
C26    C     0.16617   0.16678   0.02341   0.00000  Uiso   1.00
C27    C     0.20291   0.14976   0.45464   0.00000  Uiso   1.00
C28    C     0.13044   0.18359   0.04536   0.00000  Uiso   1.00
C29    C     0.09713   0.19972   0.47371   0.00000  Uiso   1.00
C30    C     0.23623   0.13365   0.02629   0.00000  Uiso   1.00
H31    H     0.10810   0.19525   0.38533   0.00000  Uiso   1.00
H32    H     0.22525   0.13810   0.11468   0.00000  Uiso   1.00
H33    H     0.06880   0.21308   0.03584   0.00000  Uiso   1.00
H34    H     0.26455   0.12028   0.46416   0.00000  Uiso   1.00
H35    H     0.03735   0.09702   0.22743   0.00000  Uiso   1.00
H36    H     0.29599   0.23630   0.27259   0.00000  Uiso   1.00
H37    H     0.29525   0.09726   0.22672   0.00000  Uiso   1.00
H38    H     0.03808   0.23607   0.27331   0.00000  Uiso   1.00
H39    H     0.22550   0.04198   0.28257   0.00000  Uiso   1.00
H40    H     0.10784   0.29135   0.21741   0.00000  Uiso   1.00
H41    H     0.10793   0.04212   0.21700   0.00000  Uiso   1.00
H42    H     0.22541   0.29121   0.28300   0.00000  Uiso   1.00
N43    N     0.16667   0.28573   0.25000   0.00000  Uiso   1.00
N44    N     0.16667   0.04760   0.25000   0.00000  Uiso   1.00
O45    O     0.10559   0.20487   0.24999   0.00000  Uiso   1.00
O46    O     0.22774   0.12846   0.25001   0.00000  Uiso   1.00
O47    O     0.22774   0.20487   0.25001   0.00000  Uiso   1.00
O48    O     0.10559   0.12846   0.24999   0.00000  Uiso   1.00
O49    O     0.16666   0.20489   0.18393   0.00000  Uiso   1.00
O50    O     0.16667   0.12844   0.31607   0.00000  Uiso   1.00
O51    O     0.16667   0.20489   0.31607   0.00000  Uiso   1.00
O52    O     0.16666   0.12844   0.18393   0.00000  Uiso   1.00
Zn53   Zn    0.16667   0.21771   0.25000   0.00000  Uiso   1.00
Zn54   Zn    0.16667   0.11563   0.25000   0.00000  Uiso   1.00
C55    C     0.24131   0.13406   0.38374   0.00000  Uiso   1.00
C56    C     0.24456   0.08884   0.37017   0.00000  Uiso   1.00
C57    C     0.28172   0.07309   0.35179   0.00000  Uiso   1.00
C58    C     0.31579   0.10229   0.34714   0.00000  Uiso   1.00
C59    C     0.31264   0.14741   0.36042   0.00000  Uiso   1.00
C60    C     0.27546   0.16339   0.37848   0.00000  Uiso   1.00
H61    H     0.21864   0.06571   0.37460   0.00000  Uiso   1.00
H62    H     0.28427   0.03813   0.34162   0.00000  Uiso   1.00
H63    H     0.01129   0.08997   0.33322   0.00000  Uiso   1.00
H64    H     0.00576   0.16993   0.35688   0.00000  Uiso   1.00
H65    H     0.27355   0.19821   0.38936   0.00000  Uiso   1.00
C66    C     0.09201   0.19923   0.11626   0.00000  Uiso   1.00
C67    C     0.05789   0.16986   0.12149   0.00000  Uiso   1.00
C68    C     0.02068   0.18579   0.13954   0.00000  Uiso   1.00
C69    C     0.01748   0.23090   0.15285   0.00000  Uiso   1.00
C70    C     0.05153   0.26013   0.14824   0.00000  Uiso   1.00
C71    C     0.08871   0.24443   0.12986   0.00000  Uiso   1.00
H72    H     0.05983   0.13504   0.11059   0.00000  Uiso   1.00
H73    H     0.32758   0.16324   0.14307   0.00000  Uiso   1.00
H74    H     0.32196   0.24317   0.16677   0.00000  Uiso   1.00
H75    H     0.04894   0.29508   0.15844   0.00000  Uiso   1.00
H76    H     0.11461   0.26760   0.12545   0.00000  Uiso   1.00
Br77   Br    0.04841   0.22241   0.44273   0.00000  Uiso   1.00
Br78   Br    0.28494   0.11096   0.05727   0.00000  Uiso   1.00
C79    C     0.41998   0.16662   0.25018   0.00000  Uiso   1.00
C80    C     0.58002   0.16671   0.24982   0.00000  Uiso   1.00
C81    C     0.42974   0.19990   0.02001   0.00000  Uiso   1.00
C82    C     0.57028   0.13346   0.47999   0.00000  Uiso   1.00
C83    C     0.35449   0.12738   0.23760   0.00000  Uiso   1.00
C84    C     0.64551   0.20595   0.26243   0.00000  Uiso   1.00
C85    C     0.64510   0.12756   0.23703   0.00000  Uiso   1.00
C86    C     0.35490   0.20576   0.26300   0.00000  Uiso   1.00
C87    C     0.62415   0.16681   0.24955   0.00000  Uiso   1.00
C88    C     0.37585   0.16652   0.25047   0.00000  Uiso   1.00
C89    C     0.53266   0.02392   0.26820   0.00000  Uiso   1.00
C90    C     0.46735   0.30942   0.23179   0.00000  Uiso   1.00
C91    C     0.46736   0.02401   0.23171   0.00000  Uiso   1.00
C92    C     0.53264   0.30933   0.26829   0.00000  Uiso   1.00
C93    C     0.49875   0.16682   0.16358   0.00000  Uiso   1.00
C94    C     0.50125   0.16651   0.33642   0.00000  Uiso   1.00
C95    C     0.53705   0.14963   0.40775   0.00000  Uiso   1.00
C96    C     0.46296   0.18371   0.09225   0.00000  Uiso   1.00
C97    C     0.50220   0.16616   0.38408   0.00000  Uiso   1.00
C98    C     0.49780   0.16718   0.11592   0.00000  Uiso   1.00
C99    C     0.46736   0.18291   0.40547   0.00000  Uiso   1.00
C100   C     0.53265   0.15044   0.09453   0.00000  Uiso   1.00
C101   C     0.46583   0.18323   0.45175   0.00000  Uiso   1.00
C102   C     0.53418   0.15013   0.04825   0.00000  Uiso   1.00
C103   C     0.50052   0.16658   0.47659   0.00000  Uiso   1.00
C104   C     0.49950   0.16678   0.02341   0.00000  Uiso   1.00
C105   C     0.53624   0.14976   0.45464   0.00000  Uiso   1.00
C106   C     0.46377   0.18359   0.04536   0.00000  Uiso   1.00
C107   C     0.43046   0.19972   0.47371   0.00000  Uiso   1.00
C108   C     0.56956   0.13365   0.02629   0.00000  Uiso   1.00
H109   H     0.44143   0.19525   0.38533   0.00000  Uiso   1.00
H110   H     0.55859   0.13810   0.11468   0.00000  Uiso   1.00
H111   H     0.40213   0.21308   0.03584   0.00000  Uiso   1.00
H112   H     0.59788   0.12028   0.46416   0.00000  Uiso   1.00
H113   H     0.37068   0.09702   0.22743   0.00000  Uiso   1.00
H114   H     0.62932   0.23630   0.27259   0.00000  Uiso   1.00
H115   H     0.62858   0.09726   0.22672   0.00000  Uiso   1.00
H116   H     0.37142   0.23607   0.27331   0.00000  Uiso   1.00
H117   H     0.55883   0.04198   0.28257   0.00000  Uiso   1.00
H118   H     0.44118   0.29135   0.21741   0.00000  Uiso   1.00
H119   H     0.44126   0.04212   0.21700   0.00000  Uiso   1.00
H120   H     0.55874   0.29121   0.28300   0.00000  Uiso   1.00
N121   N     0.50000   0.28573   0.25000   0.00000  Uiso   1.00
N122   N     0.50000   0.04760   0.25000   0.00000  Uiso   1.00
O123   O     0.43892   0.20487   0.24999   0.00000  Uiso   1.00
O124   O     0.56108   0.12846   0.25001   0.00000  Uiso   1.00
O125   O     0.56108   0.20487   0.25001   0.00000  Uiso   1.00
O126   O     0.43892   0.12846   0.24999   0.00000  Uiso   1.00
O127   O     0.49999   0.20489   0.18393   0.00000  Uiso   1.00
O128   O     0.50001   0.12844   0.31607   0.00000  Uiso   1.00
O129   O     0.50001   0.20489   0.31607   0.00000  Uiso   1.00
O130   O     0.49999   0.12844   0.18393   0.00000  Uiso   1.00
Zn131  Zn    0.50000   0.21771   0.25000   0.00000  Uiso   1.00
Zn132  Zn    0.50000   0.11563   0.25000   0.00000  Uiso   1.00
C133   C     0.57464   0.13406   0.38374   0.00000  Uiso   1.00
C134   C     0.57789   0.08884   0.37017   0.00000  Uiso   1.00
C135   C     0.61505   0.07309   0.35179   0.00000  Uiso   1.00
C136   C     0.64913   0.10229   0.34714   0.00000  Uiso   1.00
C137   C     0.64598   0.14741   0.36042   0.00000  Uiso   1.00
C138   C     0.60879   0.16339   0.37848   0.00000  Uiso   1.00
H139   H     0.55198   0.06571   0.37460   0.00000  Uiso   1.00
H140   H     0.61761   0.03813   0.34162   0.00000  Uiso   1.00
H141   H     0.34463   0.08997   0.33322   0.00000  Uiso   1.00
H142   H     0.33909   0.16993   0.35688   0.00000  Uiso   1.00
H143   H     0.60689   0.19821   0.38936   0.00000  Uiso   1.00
C144   C     0.42534   0.19923   0.11626   0.00000  Uiso   1.00
C145   C     0.39122   0.16986   0.12149   0.00000  Uiso   1.00
C146   C     0.35401   0.18579   0.13954   0.00000  Uiso   1.00
C147   C     0.35081   0.23090   0.15285   0.00000  Uiso   1.00
C148   C     0.38486   0.26013   0.14824   0.00000  Uiso   1.00
C149   C     0.42205   0.24443   0.12986   0.00000  Uiso   1.00
H150   H     0.39316   0.13504   0.11059   0.00000  Uiso   1.00
H151   H     0.66092   0.16324   0.14307   0.00000  Uiso   1.00
H152   H     0.65529   0.24317   0.16677   0.00000  Uiso   1.00
H153   H     0.38227   0.29508   0.15844   0.00000  Uiso   1.00
H154   H     0.44794   0.26760   0.12545   0.00000  Uiso   1.00
Br155  Br    0.38174   0.22241   0.44273   0.00000  Uiso   1.00
Br156  Br    0.61827   0.11096   0.05727   0.00000  Uiso   1.00
C157   C     0.75332   0.16662   0.25018   0.00000  Uiso   1.00
C158   C     0.91335   0.16671   0.24982   0.00000  Uiso   1.00
C159   C     0.76307   0.19990   0.02001   0.00000  Uiso   1.00
C160   C     0.90361   0.13346   0.47999   0.00000  Uiso   1.00
C161   C     0.68783   0.12738   0.23760   0.00000  Uiso   1.00
C162   C     0.97884   0.20595   0.26243   0.00000  Uiso   1.00
C163   C     0.97843   0.12756   0.23703   0.00000  Uiso   1.00
C164   C     0.68823   0.20576   0.26300   0.00000  Uiso   1.00
C165   C     0.95748   0.16681   0.24955   0.00000  Uiso   1.00
C166   C     0.70918   0.16652   0.25047   0.00000  Uiso   1.00
C167   C     0.86599   0.02392   0.26820   0.00000  Uiso   1.00
C168   C     0.80068   0.30942   0.23179   0.00000  Uiso   1.00
C169   C     0.80070   0.02401   0.23171   0.00000  Uiso   1.00
C170   C     0.86597   0.30933   0.26829   0.00000  Uiso   1.00
C171   C     0.83208   0.16682   0.16358   0.00000  Uiso   1.00
C172   C     0.83459   0.16651   0.33642   0.00000  Uiso   1.00
C173   C     0.87038   0.14963   0.40775   0.00000  Uiso   1.00
C174   C     0.79629   0.18371   0.09225   0.00000  Uiso   1.00
C175   C     0.83554   0.16616   0.38408   0.00000  Uiso   1.00
C176   C     0.83114   0.16718   0.11592   0.00000  Uiso   1.00
C177   C     0.80070   0.18291   0.40547   0.00000  Uiso   1.00
C178   C     0.86598   0.15044   0.09453   0.00000  Uiso   1.00
C179   C     0.79917   0.18323   0.45175   0.00000  Uiso   1.00
C180   C     0.86752   0.15013   0.04825   0.00000  Uiso   1.00
C181   C     0.83385   0.16658   0.47659   0.00000  Uiso   1.00
C182   C     0.83284   0.16678   0.02341   0.00000  Uiso   1.00
C183   C     0.86957   0.14976   0.45464   0.00000  Uiso   1.00
C184   C     0.79711   0.18359   0.04536   0.00000  Uiso   1.00
C185   C     0.76379   0.19972   0.47371   0.00000  Uiso   1.00
C186   C     0.90289   0.13365   0.02629   0.00000  Uiso   1.00
H187   H     0.77476   0.19525   0.38533   0.00000  Uiso   1.00
H188   H     0.89192   0.13810   0.11468   0.00000  Uiso   1.00
H189   H     0.73547   0.21308   0.03584   0.00000  Uiso   1.00
H190   H     0.93122   0.12028   0.46416   0.00000  Uiso   1.00
H191   H     0.70401   0.09702   0.22743   0.00000  Uiso   1.00
H192   H     0.96265   0.23630   0.27259   0.00000  Uiso   1.00
H193   H     0.96192   0.09726   0.22672   0.00000  Uiso   1.00
H194   H     0.70475   0.23607   0.27331   0.00000  Uiso   1.00
H195   H     0.89216   0.04198   0.28257   0.00000  Uiso   1.00
H196   H     0.77451   0.29135   0.21741   0.00000  Uiso   1.00
H197   H     0.77460   0.04212   0.21700   0.00000  Uiso   1.00
H198   H     0.89207   0.29121   0.28300   0.00000  Uiso   1.00
N199   N     0.83333   0.28573   0.25000   0.00000  Uiso   1.00
N200   N     0.83333   0.04760   0.25000   0.00000  Uiso   1.00
O201   O     0.77226   0.20487   0.24999   0.00000  Uiso   1.00
O202   O     0.89441   0.12846   0.25001   0.00000  Uiso   1.00
O203   O     0.89441   0.20487   0.25001   0.00000  Uiso   1.00
O204   O     0.77226   0.12846   0.24999   0.00000  Uiso   1.00
O205   O     0.83333   0.20489   0.18393   0.00000  Uiso   1.00
O206   O     0.83334   0.12844   0.31607   0.00000  Uiso   1.00
O207   O     0.83334   0.20489   0.31607   0.00000  Uiso   1.00
O208   O     0.83333   0.12844   0.18393   0.00000  Uiso   1.00
Zn209  Zn    0.83333   0.21771   0.25000   0.00000  Uiso   1.00
Zn210  Zn    0.83333   0.11563   0.25000   0.00000  Uiso   1.00
C211   C     0.90798   0.13406   0.38374   0.00000  Uiso   1.00
C212   C     0.91123   0.08884   0.37017   0.00000  Uiso   1.00
C213   C     0.94838   0.07309   0.35179   0.00000  Uiso   1.00
C214   C     0.98246   0.10229   0.34714   0.00000  Uiso   1.00
C215   C     0.97931   0.14741   0.36042   0.00000  Uiso   1.00
C216   C     0.94212   0.16339   0.37848   0.00000  Uiso   1.00
H217   H     0.88531   0.06571   0.37460   0.00000  Uiso   1.00
H218   H     0.95094   0.03813   0.34162   0.00000  Uiso   1.00
H219   H     0.67796   0.08997   0.33322   0.00000  Uiso   1.00
H220   H     0.67242   0.16993   0.35688   0.00000  Uiso   1.00
H221   H     0.94022   0.19821   0.38936   0.00000  Uiso   1.00
C222   C     0.75868   0.19923   0.11626   0.00000  Uiso   1.00
C223   C     0.72455   0.16986   0.12149   0.00000  Uiso   1.00
C224   C     0.68734   0.18579   0.13954   0.00000  Uiso   1.00
C225   C     0.68415   0.23090   0.15285   0.00000  Uiso   1.00
C226   C     0.71820   0.26013   0.14824   0.00000  Uiso   1.00
C227   C     0.75538   0.24443   0.12986   0.00000  Uiso   1.00
H228   H     0.72650   0.13504   0.11059   0.00000  Uiso   1.00
H229   H     0.99425   0.16324   0.14307   0.00000  Uiso   1.00
H230   H     0.98862   0.24317   0.16677   0.00000  Uiso   1.00
H231   H     0.71561   0.29508   0.15844   0.00000  Uiso   1.00
H232   H     0.78128   0.26760   0.12545   0.00000  Uiso   1.00
Br233  Br    0.71508   0.22241   0.44273   0.00000  Uiso   1.00
Br234  Br    0.95161   0.11096   0.05727   0.00000  Uiso   1.00
C235   C     0.08665   0.49995   0.25018   0.00000  Uiso   1.00
C236   C     0.24668   0.50005   0.24982   0.00000  Uiso   1.00
C237   C     0.09640   0.53323   0.02001   0.00000  Uiso   1.00
C238   C     0.23695   0.46679   0.47999   0.00000  Uiso   1.00
C239   C     0.02116   0.46071   0.23760   0.00000  Uiso   1.00
C240   C     0.31217   0.53928   0.26243   0.00000  Uiso   1.00
C241   C     0.31177   0.46090   0.23703   0.00000  Uiso   1.00
C242   C     0.02157   0.53910   0.26300   0.00000  Uiso   1.00
C243   C     0.29082   0.50015   0.24955   0.00000  Uiso   1.00
C244   C     0.04252   0.49985   0.25047   0.00000  Uiso   1.00
C245   C     0.19932   0.35725   0.26820   0.00000  Uiso   1.00
C246   C     0.13401   0.64275   0.23179   0.00000  Uiso   1.00
C247   C     0.13403   0.35734   0.23171   0.00000  Uiso   1.00
C248   C     0.19930   0.64266   0.26829   0.00000  Uiso   1.00
C249   C     0.16542   0.50015   0.16358   0.00000  Uiso   1.00
C250   C     0.16792   0.49985   0.33642   0.00000  Uiso   1.00
C251   C     0.20371   0.48296   0.40775   0.00000  Uiso   1.00
C252   C     0.12963   0.51704   0.09225   0.00000  Uiso   1.00
C253   C     0.16887   0.49949   0.38408   0.00000  Uiso   1.00
C254   C     0.16447   0.50051   0.11592   0.00000  Uiso   1.00
C255   C     0.13403   0.51624   0.40547   0.00000  Uiso   1.00
C256   C     0.19932   0.48378   0.09453   0.00000  Uiso   1.00
C257   C     0.13250   0.51656   0.45175   0.00000  Uiso   1.00
C258   C     0.20085   0.48347   0.04825   0.00000  Uiso   1.00
C259   C     0.16718   0.49991   0.47659   0.00000  Uiso   1.00
C260   C     0.16617   0.50012   0.02341   0.00000  Uiso   1.00
C261   C     0.20291   0.48310   0.45464   0.00000  Uiso   1.00
C262   C     0.13044   0.51692   0.04536   0.00000  Uiso   1.00
C263   C     0.09713   0.53305   0.47371   0.00000  Uiso   1.00
C264   C     0.23623   0.46698   0.02629   0.00000  Uiso   1.00
H265   H     0.10810   0.52859   0.38533   0.00000  Uiso   1.00
H266   H     0.22525   0.47143   0.11468   0.00000  Uiso   1.00
H267   H     0.06880   0.54641   0.03584   0.00000  Uiso   1.00
H268   H     0.26455   0.45362   0.46416   0.00000  Uiso   1.00
H269   H     0.03735   0.43036   0.22743   0.00000  Uiso   1.00
H270   H     0.29599   0.56964   0.27259   0.00000  Uiso   1.00
H271   H     0.29525   0.43059   0.22672   0.00000  Uiso   1.00
H272   H     0.03808   0.56940   0.27331   0.00000  Uiso   1.00
H273   H     0.22550   0.37532   0.28257   0.00000  Uiso   1.00
H274   H     0.10784   0.62468   0.21741   0.00000  Uiso   1.00
H275   H     0.10793   0.37546   0.21700   0.00000  Uiso   1.00
H276   H     0.22541   0.62454   0.28300   0.00000  Uiso   1.00
N277   N     0.16667   0.61907   0.25000   0.00000  Uiso   1.00
N278   N     0.16667   0.38093   0.25000   0.00000  Uiso   1.00
O279   O     0.10559   0.53821   0.24999   0.00000  Uiso   1.00
O280   O     0.22774   0.46179   0.25001   0.00000  Uiso   1.00
O281   O     0.22774   0.53821   0.25001   0.00000  Uiso   1.00
O282   O     0.10559   0.46179   0.24999   0.00000  Uiso   1.00
O283   O     0.16666   0.53823   0.18393   0.00000  Uiso   1.00
O284   O     0.16667   0.46177   0.31607   0.00000  Uiso   1.00
O285   O     0.16667   0.53823   0.31607   0.00000  Uiso   1.00
O286   O     0.16666   0.46177   0.18393   0.00000  Uiso   1.00
Zn287  Zn    0.16667   0.55104   0.25000   0.00000  Uiso   1.00
Zn288  Zn    0.16667   0.44896   0.25000   0.00000  Uiso   1.00
C289   C     0.24131   0.46739   0.38374   0.00000  Uiso   1.00
C290   C     0.24456   0.42217   0.37017   0.00000  Uiso   1.00
C291   C     0.28172   0.40643   0.35179   0.00000  Uiso   1.00
C292   C     0.31579   0.43562   0.34714   0.00000  Uiso   1.00
C293   C     0.31264   0.48074   0.36042   0.00000  Uiso   1.00
C294   C     0.27546   0.49672   0.37848   0.00000  Uiso   1.00
H295   H     0.21864   0.39904   0.37460   0.00000  Uiso   1.00
H296   H     0.28427   0.37146   0.34162   0.00000  Uiso   1.00
H297   H     0.01129   0.42330   0.33322   0.00000  Uiso   1.00
H298   H     0.00576   0.50326   0.35688   0.00000  Uiso   1.00
H299   H     0.27355   0.53155   0.38936   0.00000  Uiso   1.00
C300   C     0.09201   0.53256   0.11626   0.00000  Uiso   1.00
C301   C     0.05789   0.50319   0.12149   0.00000  Uiso   1.00
C302   C     0.02068   0.51912   0.13954   0.00000  Uiso   1.00
C303   C     0.01748   0.56423   0.15285   0.00000  Uiso   1.00
C304   C     0.05153   0.59346   0.14824   0.00000  Uiso   1.00
C305   C     0.08871   0.57777   0.12986   0.00000  Uiso   1.00
H306   H     0.05983   0.46838   0.11059   0.00000  Uiso   1.00
H307   H     0.32758   0.49657   0.14307   0.00000  Uiso   1.00
H308   H     0.32196   0.57651   0.16677   0.00000  Uiso   1.00
H309   H     0.04894   0.62842   0.15844   0.00000  Uiso   1.00
H310   H     0.11461   0.60093   0.12545   0.00000  Uiso   1.00
Br311  Br    0.04841   0.55574   0.44273   0.00000  Uiso   1.00
Br312  Br    0.28494   0.44429   0.05727   0.00000  Uiso   1.00
C313   C     0.41998   0.49995   0.25018   0.00000  Uiso   1.00
C314   C     0.58002   0.50005   0.24982   0.00000  Uiso   1.00
C315   C     0.42974   0.53323   0.02001   0.00000  Uiso   1.00
C316   C     0.57028   0.46679   0.47999   0.00000  Uiso   1.00
C317   C     0.35449   0.46071   0.23760   0.00000  Uiso   1.00
C318   C     0.64551   0.53928   0.26243   0.00000  Uiso   1.00
C319   C     0.64510   0.46090   0.23703   0.00000  Uiso   1.00
C320   C     0.35490   0.53910   0.26300   0.00000  Uiso   1.00
C321   C     0.62415   0.50015   0.24955   0.00000  Uiso   1.00
C322   C     0.37585   0.49985   0.25047   0.00000  Uiso   1.00
C323   C     0.53266   0.35725   0.26820   0.00000  Uiso   1.00
C324   C     0.46735   0.64275   0.23179   0.00000  Uiso   1.00
C325   C     0.46736   0.35734   0.23171   0.00000  Uiso   1.00
C326   C     0.53264   0.64266   0.26829   0.00000  Uiso   1.00
C327   C     0.49875   0.50015   0.16358   0.00000  Uiso   1.00
C328   C     0.50125   0.49985   0.33642   0.00000  Uiso   1.00
C329   C     0.53705   0.48296   0.40775   0.00000  Uiso   1.00
C330   C     0.46296   0.51704   0.09225   0.00000  Uiso   1.00
C331   C     0.50220   0.49949   0.38408   0.00000  Uiso   1.00
C332   C     0.49780   0.50051   0.11592   0.00000  Uiso   1.00
C333   C     0.46736   0.51624   0.40547   0.00000  Uiso   1.00
C334   C     0.53265   0.48378   0.09453   0.00000  Uiso   1.00
C335   C     0.46583   0.51656   0.45175   0.00000  Uiso   1.00
C336   C     0.53418   0.48347   0.04825   0.00000  Uiso   1.00
C337   C     0.50052   0.49991   0.47659   0.00000  Uiso   1.00
C338   C     0.49950   0.50012   0.02341   0.00000  Uiso   1.00
C339   C     0.53624   0.48310   0.45464   0.00000  Uiso   1.00
C340   C     0.46377   0.51692   0.04536   0.00000  Uiso   1.00
C341   C     0.43046   0.53305   0.47371   0.00000  Uiso   1.00
C342   C     0.56956   0.46698   0.02629   0.00000  Uiso   1.00
H343   H     0.44143   0.52859   0.38533   0.00000  Uiso   1.00
H344   H     0.55859   0.47143   0.11468   0.00000  Uiso   1.00
H345   H     0.40213   0.54641   0.03584   0.00000  Uiso   1.00
H346   H     0.59788   0.45362   0.46416   0.00000  Uiso   1.00
H347   H     0.37068   0.43036   0.22743   0.00000  Uiso   1.00
H348   H     0.62932   0.56964   0.27259   0.00000  Uiso   1.00
H349   H     0.62858   0.43059   0.22672   0.00000  Uiso   1.00
H350   H     0.37142   0.56940   0.27331   0.00000  Uiso   1.00
H351   H     0.55883   0.37532   0.28257   0.00000  Uiso   1.00
H352   H     0.44118   0.62468   0.21741   0.00000  Uiso   1.00
H353   H     0.44126   0.37546   0.21700   0.00000  Uiso   1.00
H354   H     0.55874   0.62454   0.28300   0.00000  Uiso   1.00
N355   N     0.50000   0.61907   0.25000   0.00000  Uiso   1.00
N356   N     0.50000   0.38093   0.25000   0.00000  Uiso   1.00
O357   O     0.43892   0.53821   0.24999   0.00000  Uiso   1.00
O358   O     0.56108   0.46179   0.25001   0.00000  Uiso   1.00
O359   O     0.56108   0.53821   0.25001   0.00000  Uiso   1.00
O360   O     0.43892   0.46179   0.24999   0.00000  Uiso   1.00
O361   O     0.49999   0.53823   0.18393   0.00000  Uiso   1.00
O362   O     0.50001   0.46177   0.31607   0.00000  Uiso   1.00
O363   O     0.50001   0.53823   0.31607   0.00000  Uiso   1.00
O364   O     0.49999   0.46177   0.18393   0.00000  Uiso   1.00
Zn365  Zn    0.50000   0.55104   0.25000   0.00000  Uiso   1.00
Zn366  Zn    0.50000   0.44896   0.25000   0.00000  Uiso   1.00
C367   C     0.57464   0.46739   0.38374   0.00000  Uiso   1.00
C368   C     0.57789   0.42217   0.37017   0.00000  Uiso   1.00
C369   C     0.61505   0.40643   0.35179   0.00000  Uiso   1.00
C370   C     0.64913   0.43562   0.34714   0.00000  Uiso   1.00
C371   C     0.64598   0.48074   0.36042   0.00000  Uiso   1.00
C372   C     0.60879   0.49672   0.37848   0.00000  Uiso   1.00
H373   H     0.55198   0.39904   0.37460   0.00000  Uiso   1.00
H374   H     0.61761   0.37146   0.34162   0.00000  Uiso   1.00
H375   H     0.34463   0.42330   0.33322   0.00000  Uiso   1.00
H376   H     0.33909   0.50326   0.35688   0.00000  Uiso   1.00
H377   H     0.60689   0.53155   0.38936   0.00000  Uiso   1.00
C378   C     0.42534   0.53256   0.11626   0.00000  Uiso   1.00
C379   C     0.39122   0.50319   0.12149   0.00000  Uiso   1.00
C380   C     0.35401   0.51912   0.13954   0.00000  Uiso   1.00
C381   C     0.35081   0.56423   0.15285   0.00000  Uiso   1.00
C382   C     0.38486   0.59346   0.14824   0.00000  Uiso   1.00
C383   C     0.42205   0.57777   0.12986   0.00000  Uiso   1.00
H384   H     0.39316   0.46838   0.11059   0.00000  Uiso   1.00
H385   H     0.66092   0.49657   0.14307   0.00000  Uiso   1.00
H386   H     0.65529   0.57651   0.16677   0.00000  Uiso   1.00
H387   H     0.38227   0.62842   0.15844   0.00000  Uiso   1.00
H388   H     0.44794   0.60093   0.12545   0.00000  Uiso   1.00
Br389  Br    0.38174   0.55574   0.44273   0.00000  Uiso   1.00
Br390  Br    0.61827   0.44429   0.05727   0.00000  Uiso   1.00
C391   C     0.75332   0.49995   0.25018   0.00000  Uiso   1.00
C392   C     0.91335   0.50005   0.24982   0.00000  Uiso   1.00
C393   C     0.76307   0.53323   0.02001   0.00000  Uiso   1.00
C394   C     0.90361   0.46679   0.47999   0.00000  Uiso   1.00
C395   C     0.68783   0.46071   0.23760   0.00000  Uiso   1.00
C396   C     0.97884   0.53928   0.26243   0.00000  Uiso   1.00
C397   C     0.97843   0.46090   0.23703   0.00000  Uiso   1.00
C398   C     0.68823   0.53910   0.26300   0.00000  Uiso   1.00
C399   C     0.95748   0.50015   0.24955   0.00000  Uiso   1.00
C400   C     0.70918   0.49985   0.25047   0.00000  Uiso   1.00
C401   C     0.86599   0.35725   0.26820   0.00000  Uiso   1.00
C402   C     0.80068   0.64275   0.23179   0.00000  Uiso   1.00
C403   C     0.80070   0.35734   0.23171   0.00000  Uiso   1.00
C404   C     0.86597   0.64266   0.26829   0.00000  Uiso   1.00
C405   C     0.83208   0.50015   0.16358   0.00000  Uiso   1.00
C406   C     0.83459   0.49985   0.33642   0.00000  Uiso   1.00
C407   C     0.87038   0.48296   0.40775   0.00000  Uiso   1.00
C408   C     0.79629   0.51704   0.09225   0.00000  Uiso   1.00
C409   C     0.83554   0.49949   0.38408   0.00000  Uiso   1.00
C410   C     0.83114   0.50051   0.11592   0.00000  Uiso   1.00
C411   C     0.80070   0.51624   0.40547   0.00000  Uiso   1.00
C412   C     0.86598   0.48378   0.09453   0.00000  Uiso   1.00
C413   C     0.79917   0.51656   0.45175   0.00000  Uiso   1.00
C414   C     0.86752   0.48347   0.04825   0.00000  Uiso   1.00
C415   C     0.83385   0.49991   0.47659   0.00000  Uiso   1.00
C416   C     0.83284   0.50012   0.02341   0.00000  Uiso   1.00
C417   C     0.86957   0.48310   0.45464   0.00000  Uiso   1.00
C418   C     0.79711   0.51692   0.04536   0.00000  Uiso   1.00
C419   C     0.76379   0.53305   0.47371   0.00000  Uiso   1.00
C420   C     0.90289   0.46698   0.02629   0.00000  Uiso   1.00
H421   H     0.77476   0.52859   0.38533   0.00000  Uiso   1.00
H422   H     0.89192   0.47143   0.11468   0.00000  Uiso   1.00
H423   H     0.73547   0.54641   0.03584   0.00000  Uiso   1.00
H424   H     0.93122   0.45362   0.46416   0.00000  Uiso   1.00
H425   H     0.70401   0.43036   0.22743   0.00000  Uiso   1.00
H426   H     0.96265   0.56964   0.27259   0.00000  Uiso   1.00
H427   H     0.96192   0.43059   0.22672   0.00000  Uiso   1.00
H428   H     0.70475   0.56940   0.27331   0.00000  Uiso   1.00
H429   H     0.89216   0.37532   0.28257   0.00000  Uiso   1.00
H430   H     0.77451   0.62468   0.21741   0.00000  Uiso   1.00
H431   H     0.77460   0.37546   0.21700   0.00000  Uiso   1.00
H432   H     0.89207   0.62454   0.28300   0.00000  Uiso   1.00
N433   N     0.83333   0.61907   0.25000   0.00000  Uiso   1.00
N434   N     0.83333   0.38093   0.25000   0.00000  Uiso   1.00
O435   O     0.77226   0.53821   0.24999   0.00000  Uiso   1.00
O436   O     0.89441   0.46179   0.25001   0.00000  Uiso   1.00
O437   O     0.89441   0.53821   0.25001   0.00000  Uiso   1.00
O438   O     0.77226   0.46179   0.24999   0.00000  Uiso   1.00
O439   O     0.83333   0.53823   0.18393   0.00000  Uiso   1.00
O440   O     0.83334   0.46177   0.31607   0.00000  Uiso   1.00
O441   O     0.83334   0.53823   0.31607   0.00000  Uiso   1.00
O442   O     0.83333   0.46177   0.18393   0.00000  Uiso   1.00
Zn443  Zn    0.83333   0.55104   0.25000   0.00000  Uiso   1.00
Zn444  Zn    0.83333   0.44896   0.25000   0.00000  Uiso   1.00
C445   C     0.90798   0.46739   0.38374   0.00000  Uiso   1.00
C446   C     0.91123   0.42217   0.37017   0.00000  Uiso   1.00
C447   C     0.94838   0.40643   0.35179   0.00000  Uiso   1.00
C448   C     0.98246   0.43562   0.34714   0.00000  Uiso   1.00
C449   C     0.97931   0.48074   0.36042   0.00000  Uiso   1.00
C450   C     0.94212   0.49672   0.37848   0.00000  Uiso   1.00
H451   H     0.88531   0.39904   0.37460   0.00000  Uiso   1.00
H452   H     0.95094   0.37146   0.34162   0.00000  Uiso   1.00
H453   H     0.67796   0.42330   0.33322   0.00000  Uiso   1.00
H454   H     0.67242   0.50326   0.35688   0.00000  Uiso   1.00
H455   H     0.94022   0.53155   0.38936   0.00000  Uiso   1.00
C456   C     0.75868   0.53256   0.11626   0.00000  Uiso   1.00
C457   C     0.72455   0.50319   0.12149   0.00000  Uiso   1.00
C458   C     0.68734   0.51912   0.13954   0.00000  Uiso   1.00
C459   C     0.68415   0.56423   0.15285   0.00000  Uiso   1.00
C460   C     0.71820   0.59346   0.14824   0.00000  Uiso   1.00
C461   C     0.75538   0.57777   0.12986   0.00000  Uiso   1.00
H462   H     0.72650   0.46838   0.11059   0.00000  Uiso   1.00
H463   H     0.99425   0.49657   0.14307   0.00000  Uiso   1.00
H464   H     0.98862   0.57651   0.16677   0.00000  Uiso   1.00
H465   H     0.71561   0.62842   0.15844   0.00000  Uiso   1.00
H466   H     0.78128   0.60093   0.12545   0.00000  Uiso   1.00
Br467  Br    0.71508   0.55574   0.44273   0.00000  Uiso   1.00
Br468  Br    0.95161   0.44429   0.05727   0.00000  Uiso   1.00
C469   C     0.08665   0.83329   0.25018   0.00000  Uiso   1.00
C470   C     0.24668   0.83338   0.24982   0.00000  Uiso   1.00
C471   C     0.09640   0.86657   0.02001   0.00000  Uiso   1.00
C472   C     0.23695   0.80012   0.47999   0.00000  Uiso   1.00
C473   C     0.02116   0.79404   0.23760   0.00000  Uiso   1.00
C474   C     0.31217   0.87262   0.26243   0.00000  Uiso   1.00
C475   C     0.31177   0.79423   0.23703   0.00000  Uiso   1.00
C476   C     0.02157   0.87243   0.26300   0.00000  Uiso   1.00
C477   C     0.29082   0.83348   0.24955   0.00000  Uiso   1.00
C478   C     0.04252   0.83318   0.25047   0.00000  Uiso   1.00
C479   C     0.19932   0.69058   0.26820   0.00000  Uiso   1.00
C480   C     0.13401   0.97608   0.23179   0.00000  Uiso   1.00
C481   C     0.13403   0.69067   0.23171   0.00000  Uiso   1.00
C482   C     0.19930   0.97599   0.26829   0.00000  Uiso   1.00
C483   C     0.16542   0.83349   0.16358   0.00000  Uiso   1.00
C484   C     0.16792   0.83318   0.33642   0.00000  Uiso   1.00
C485   C     0.20371   0.81630   0.40775   0.00000  Uiso   1.00
C486   C     0.12963   0.85037   0.09225   0.00000  Uiso   1.00
C487   C     0.16887   0.83282   0.38408   0.00000  Uiso   1.00
C488   C     0.16447   0.83385   0.11592   0.00000  Uiso   1.00
C489   C     0.13403   0.84958   0.40547   0.00000  Uiso   1.00
C490   C     0.19932   0.81711   0.09453   0.00000  Uiso   1.00
C491   C     0.13250   0.84989   0.45175   0.00000  Uiso   1.00
C492   C     0.20085   0.81680   0.04825   0.00000  Uiso   1.00
C493   C     0.16718   0.83325   0.47659   0.00000  Uiso   1.00
C494   C     0.16617   0.83345   0.02341   0.00000  Uiso   1.00
C495   C     0.20291   0.81643   0.45464   0.00000  Uiso   1.00
C496   C     0.13044   0.85026   0.04536   0.00000  Uiso   1.00
C497   C     0.09713   0.86638   0.47371   0.00000  Uiso   1.00
C498   C     0.23623   0.80031   0.02629   0.00000  Uiso   1.00
H499   H     0.10810   0.86192   0.38533   0.00000  Uiso   1.00
H500   H     0.22525   0.80477   0.11468   0.00000  Uiso   1.00
H501   H     0.06880   0.87974   0.03584   0.00000  Uiso   1.00
H502   H     0.26455   0.78695   0.46416   0.00000  Uiso   1.00
H503   H     0.03735   0.76369   0.22743   0.00000  Uiso   1.00
H504   H     0.29599   0.90297   0.27259   0.00000  Uiso   1.00
H505   H     0.29525   0.76392   0.22672   0.00000  Uiso   1.00
H506   H     0.03808   0.90274   0.27331   0.00000  Uiso   1.00
H507   H     0.22550   0.70865   0.28257   0.00000  Uiso   1.00
H508   H     0.10784   0.95802   0.21741   0.00000  Uiso   1.00
H509   H     0.10793   0.70879   0.21700   0.00000  Uiso   1.00
H510   H     0.22541   0.95788   0.28300   0.00000  Uiso   1.00
N511   N     0.16667   0.95240   0.25000   0.00000  Uiso   1.00
N512   N     0.16667   0.71427   0.25000   0.00000  Uiso   1.00
O513   O     0.10559   0.87154   0.24999   0.00000  Uiso   1.00
O514   O     0.22774   0.79513   0.25001   0.00000  Uiso   1.00
O515   O     0.22774   0.87154   0.25001   0.00000  Uiso   1.00
O516   O     0.10559   0.79513   0.24999   0.00000  Uiso   1.00
O517   O     0.16666   0.87156   0.18393   0.00000  Uiso   1.00
O518   O     0.16667   0.79511   0.31607   0.00000  Uiso   1.00
O519   O     0.16667   0.87156   0.31607   0.00000  Uiso   1.00
O520   O     0.16666   0.79511   0.18393   0.00000  Uiso   1.00
Zn521  Zn    0.16667   0.88437   0.25000   0.00000  Uiso   1.00
Zn522  Zn    0.16667   0.78229   0.25000   0.00000  Uiso   1.00
C523   C     0.24131   0.80073   0.38374   0.00000  Uiso   1.00
C524   C     0.24456   0.75551   0.37017   0.00000  Uiso   1.00
C525   C     0.28172   0.73976   0.35179   0.00000  Uiso   1.00
C526   C     0.31579   0.76895   0.34714   0.00000  Uiso   1.00
C527   C     0.31264   0.81407   0.36042   0.00000  Uiso   1.00
C528   C     0.27546   0.83006   0.37848   0.00000  Uiso   1.00
H529   H     0.21864   0.73237   0.37460   0.00000  Uiso   1.00
H530   H     0.28427   0.70479   0.34162   0.00000  Uiso   1.00
H531   H     0.01129   0.75664   0.33322   0.00000  Uiso   1.00
H532   H     0.00576   0.83660   0.35688   0.00000  Uiso   1.00
H533   H     0.27355   0.86488   0.38936   0.00000  Uiso   1.00
C534   C     0.09201   0.86589   0.11626   0.00000  Uiso   1.00
C535   C     0.05789   0.83652   0.12149   0.00000  Uiso   1.00
C536   C     0.02068   0.85246   0.13954   0.00000  Uiso   1.00
C537   C     0.01748   0.89756   0.15285   0.00000  Uiso   1.00
C538   C     0.05153   0.92679   0.14824   0.00000  Uiso   1.00
C539   C     0.08871   0.91110   0.12986   0.00000  Uiso   1.00
H540   H     0.05983   0.80171   0.11059   0.00000  Uiso   1.00
H541   H     0.32758   0.82990   0.14307   0.00000  Uiso   1.00
H542   H     0.32196   0.90984   0.16677   0.00000  Uiso   1.00
H543   H     0.04894   0.96175   0.15844   0.00000  Uiso   1.00
H544   H     0.11461   0.93426   0.12545   0.00000  Uiso   1.00
Br545  Br    0.04841   0.88907   0.44273   0.00000  Uiso   1.00
Br546  Br    0.28494   0.77762   0.05727   0.00000  Uiso   1.00
C547   C     0.41998   0.83329   0.25018   0.00000  Uiso   1.00
C548   C     0.58002   0.83338   0.24982   0.00000  Uiso   1.00
C549   C     0.42974   0.86657   0.02001   0.00000  Uiso   1.00
C550   C     0.57028   0.80012   0.47999   0.00000  Uiso   1.00
C551   C     0.35449   0.79404   0.23760   0.00000  Uiso   1.00
C552   C     0.64551   0.87262   0.26243   0.00000  Uiso   1.00
C553   C     0.64510   0.79423   0.23703   0.00000  Uiso   1.00
C554   C     0.35490   0.87243   0.26300   0.00000  Uiso   1.00
C555   C     0.62415   0.83348   0.24955   0.00000  Uiso   1.00
C556   C     0.37585   0.83318   0.25047   0.00000  Uiso   1.00
C557   C     0.53266   0.69058   0.26820   0.00000  Uiso   1.00
C558   C     0.46735   0.97608   0.23179   0.00000  Uiso   1.00
C559   C     0.46736   0.69067   0.23171   0.00000  Uiso   1.00
C560   C     0.53264   0.97599   0.26829   0.00000  Uiso   1.00
C561   C     0.49875   0.83349   0.16358   0.00000  Uiso   1.00
C562   C     0.50125   0.83318   0.33642   0.00000  Uiso   1.00
C563   C     0.53705   0.81630   0.40775   0.00000  Uiso   1.00
C564   C     0.46296   0.85037   0.09225   0.00000  Uiso   1.00
C565   C     0.50220   0.83282   0.38408   0.00000  Uiso   1.00
C566   C     0.49780   0.83385   0.11592   0.00000  Uiso   1.00
C567   C     0.46736   0.84958   0.40547   0.00000  Uiso   1.00
C568   C     0.53265   0.81711   0.09453   0.00000  Uiso   1.00
C569   C     0.46583   0.84989   0.45175   0.00000  Uiso   1.00
C570   C     0.53418   0.81680   0.04825   0.00000  Uiso   1.00
C571   C     0.50052   0.83325   0.47659   0.00000  Uiso   1.00
C572   C     0.49950   0.83345   0.02341   0.00000  Uiso   1.00
C573   C     0.53624   0.81643   0.45464   0.00000  Uiso   1.00
C574   C     0.46377   0.85026   0.04536   0.00000  Uiso   1.00
C575   C     0.43046   0.86638   0.47371   0.00000  Uiso   1.00
C576   C     0.56956   0.80031   0.02629   0.00000  Uiso   1.00
H577   H     0.44143   0.86192   0.38533   0.00000  Uiso   1.00
H578   H     0.55859   0.80477   0.11468   0.00000  Uiso   1.00
H579   H     0.40213   0.87974   0.03584   0.00000  Uiso   1.00
H580   H     0.59788   0.78695   0.46416   0.00000  Uiso   1.00
H581   H     0.37068   0.76369   0.22743   0.00000  Uiso   1.00
H582   H     0.62932   0.90297   0.27259   0.00000  Uiso   1.00
H583   H     0.62858   0.76392   0.22672   0.00000  Uiso   1.00
H584   H     0.37142   0.90274   0.27331   0.00000  Uiso   1.00
H585   H     0.55883   0.70865   0.28257   0.00000  Uiso   1.00
H586   H     0.44118   0.95802   0.21741   0.00000  Uiso   1.00
H587   H     0.44126   0.70879   0.21700   0.00000  Uiso   1.00
H588   H     0.55874   0.95788   0.28300   0.00000  Uiso   1.00
N589   N     0.50000   0.95240   0.25000   0.00000  Uiso   1.00
N590   N     0.50000   0.71427   0.25000   0.00000  Uiso   1.00
O591   O     0.43892   0.87154   0.24999   0.00000  Uiso   1.00
O592   O     0.56108   0.79513   0.25001   0.00000  Uiso   1.00
O593   O     0.56108   0.87154   0.25001   0.00000  Uiso   1.00
O594   O     0.43892   0.79513   0.24999   0.00000  Uiso   1.00
O595   O     0.49999   0.87156   0.18393   0.00000  Uiso   1.00
O596   O     0.50001   0.79511   0.31607   0.00000  Uiso   1.00
O597   O     0.50001   0.87156   0.31607   0.00000  Uiso   1.00
O598   O     0.49999   0.79511   0.18393   0.00000  Uiso   1.00
Zn599  Zn    0.50000   0.88437   0.25000   0.00000  Uiso   1.00
Zn600  Zn    0.50000   0.78229   0.25000   0.00000  Uiso   1.00
C601   C     0.57464   0.80073   0.38374   0.00000  Uiso   1.00
C602   C     0.57789   0.75551   0.37017   0.00000  Uiso   1.00
C603   C     0.61505   0.73976   0.35179   0.00000  Uiso   1.00
C604   C     0.64913   0.76895   0.34714   0.00000  Uiso   1.00
C605   C     0.64598   0.81407   0.36042   0.00000  Uiso   1.00
C606   C     0.60879   0.83006   0.37848   0.00000  Uiso   1.00
H607   H     0.55198   0.73237   0.37460   0.00000  Uiso   1.00
H608   H     0.61761   0.70479   0.34162   0.00000  Uiso   1.00
H609   H     0.34463   0.75664   0.33322   0.00000  Uiso   1.00
H610   H     0.33909   0.83660   0.35688   0.00000  Uiso   1.00
H611   H     0.60689   0.86488   0.38936   0.00000  Uiso   1.00
C612   C     0.42534   0.86589   0.11626   0.00000  Uiso   1.00
C613   C     0.39122   0.83652   0.12149   0.00000  Uiso   1.00
C614   C     0.35401   0.85246   0.13954   0.00000  Uiso   1.00
C615   C     0.35081   0.89756   0.15285   0.00000  Uiso   1.00
C616   C     0.38486   0.92679   0.14824   0.00000  Uiso   1.00
C617   C     0.42205   0.91110   0.12986   0.00000  Uiso   1.00
H618   H     0.39316   0.80171   0.11059   0.00000  Uiso   1.00
H619   H     0.66092   0.82990   0.14307   0.00000  Uiso   1.00
H620   H     0.65529   0.90984   0.16677   0.00000  Uiso   1.00
H621   H     0.38227   0.96175   0.15844   0.00000  Uiso   1.00
H622   H     0.44794   0.93426   0.12545   0.00000  Uiso   1.00
Br623  Br    0.38174   0.88907   0.44273   0.00000  Uiso   1.00
Br624  Br    0.61827   0.77762   0.05727   0.00000  Uiso   1.00
C625   C     0.75332   0.83329   0.25018   0.00000  Uiso   1.00
C626   C     0.91335   0.83338   0.24982   0.00000  Uiso   1.00
C627   C     0.76307   0.86657   0.02001   0.00000  Uiso   1.00
C628   C     0.90361   0.80012   0.47999   0.00000  Uiso   1.00
C629   C     0.68783   0.79404   0.23760   0.00000  Uiso   1.00
C630   C     0.97884   0.87262   0.26243   0.00000  Uiso   1.00
C631   C     0.97843   0.79423   0.23703   0.00000  Uiso   1.00
C632   C     0.68823   0.87243   0.26300   0.00000  Uiso   1.00
C633   C     0.95748   0.83348   0.24955   0.00000  Uiso   1.00
C634   C     0.70918   0.83318   0.25047   0.00000  Uiso   1.00
C635   C     0.86599   0.69058   0.26820   0.00000  Uiso   1.00
C636   C     0.80068   0.97608   0.23179   0.00000  Uiso   1.00
C637   C     0.80070   0.69067   0.23171   0.00000  Uiso   1.00
C638   C     0.86597   0.97599   0.26829   0.00000  Uiso   1.00
C639   C     0.83208   0.83349   0.16358   0.00000  Uiso   1.00
C640   C     0.83459   0.83318   0.33642   0.00000  Uiso   1.00
C641   C     0.87038   0.81630   0.40775   0.00000  Uiso   1.00
C642   C     0.79629   0.85037   0.09225   0.00000  Uiso   1.00
C643   C     0.83554   0.83282   0.38408   0.00000  Uiso   1.00
C644   C     0.83114   0.83385   0.11592   0.00000  Uiso   1.00
C645   C     0.80070   0.84958   0.40547   0.00000  Uiso   1.00
C646   C     0.86598   0.81711   0.09453   0.00000  Uiso   1.00
C647   C     0.79917   0.84989   0.45175   0.00000  Uiso   1.00
C648   C     0.86752   0.81680   0.04825   0.00000  Uiso   1.00
C649   C     0.83385   0.83325   0.47659   0.00000  Uiso   1.00
C650   C     0.83284   0.83345   0.02341   0.00000  Uiso   1.00
C651   C     0.86957   0.81643   0.45464   0.00000  Uiso   1.00
C652   C     0.79711   0.85026   0.04536   0.00000  Uiso   1.00
C653   C     0.76379   0.86638   0.47371   0.00000  Uiso   1.00
C654   C     0.90289   0.80031   0.02629   0.00000  Uiso   1.00
H655   H     0.77476   0.86192   0.38533   0.00000  Uiso   1.00
H656   H     0.89192   0.80477   0.11468   0.00000  Uiso   1.00
H657   H     0.73547   0.87974   0.03584   0.00000  Uiso   1.00
H658   H     0.93122   0.78695   0.46416   0.00000  Uiso   1.00
H659   H     0.70401   0.76369   0.22743   0.00000  Uiso   1.00
H660   H     0.96265   0.90297   0.27259   0.00000  Uiso   1.00
H661   H     0.96192   0.76392   0.22672   0.00000  Uiso   1.00
H662   H     0.70475   0.90274   0.27331   0.00000  Uiso   1.00
H663   H     0.89216   0.70865   0.28257   0.00000  Uiso   1.00
H664   H     0.77451   0.95802   0.21741   0.00000  Uiso   1.00
H665   H     0.77460   0.70879   0.21700   0.00000  Uiso   1.00
H666   H     0.89207   0.95788   0.28300   0.00000  Uiso   1.00
N667   N     0.83333   0.95240   0.25000   0.00000  Uiso   1.00
N668   N     0.83333   0.71427   0.25000   0.00000  Uiso   1.00
O669   O     0.77226   0.87154   0.24999   0.00000  Uiso   1.00
O670   O     0.89441   0.79513   0.25001   0.00000  Uiso   1.00
O671   O     0.89441   0.87154   0.25001   0.00000  Uiso   1.00
O672   O     0.77226   0.79513   0.24999   0.00000  Uiso   1.00
O673   O     0.83333   0.87156   0.18393   0.00000  Uiso   1.00
O674   O     0.83334   0.79511   0.31607   0.00000  Uiso   1.00
O675   O     0.83334   0.87156   0.31607   0.00000  Uiso   1.00
O676   O     0.83333   0.79511   0.18393   0.00000  Uiso   1.00
Zn677  Zn    0.83333   0.88437   0.25000   0.00000  Uiso   1.00
Zn678  Zn    0.83333   0.78229   0.25000   0.00000  Uiso   1.00
C679   C     0.90798   0.80073   0.38374   0.00000  Uiso   1.00
C680   C     0.91123   0.75551   0.37017   0.00000  Uiso   1.00
C681   C     0.94838   0.73976   0.35179   0.00000  Uiso   1.00
C682   C     0.98246   0.76895   0.34714   0.00000  Uiso   1.00
C683   C     0.97931   0.81407   0.36042   0.00000  Uiso   1.00
C684   C     0.94212   0.83006   0.37848   0.00000  Uiso   1.00
H685   H     0.88531   0.73237   0.37460   0.00000  Uiso   1.00
H686   H     0.95094   0.70479   0.34162   0.00000  Uiso   1.00
H687   H     0.67796   0.75664   0.33322   0.00000  Uiso   1.00
H688   H     0.67242   0.83660   0.35688   0.00000  Uiso   1.00
H689   H     0.94022   0.86488   0.38936   0.00000  Uiso   1.00
C690   C     0.75868   0.86589   0.11626   0.00000  Uiso   1.00
C691   C     0.72455   0.83652   0.12149   0.00000  Uiso   1.00
C692   C     0.68734   0.85246   0.13954   0.00000  Uiso   1.00
C693   C     0.68415   0.89756   0.15285   0.00000  Uiso   1.00
C694   C     0.71820   0.92679   0.14824   0.00000  Uiso   1.00
C695   C     0.75538   0.91110   0.12986   0.00000  Uiso   1.00
H696   H     0.72650   0.80171   0.11059   0.00000  Uiso   1.00
H697   H     0.99425   0.82990   0.14307   0.00000  Uiso   1.00
H698   H     0.98862   0.90984   0.16677   0.00000  Uiso   1.00
H699   H     0.71561   0.96175   0.15844   0.00000  Uiso   1.00
H700   H     0.78128   0.93426   0.12545   0.00000  Uiso   1.00
Br701  Br    0.71508   0.88907   0.44273   0.00000  Uiso   1.00
Br702  Br    0.95161   0.77762   0.05727   0.00000  Uiso   1.00
C703   C     0.08665   0.16662   0.75018   0.00000  Uiso   1.00
C704   C     0.24668   0.16671   0.74982   0.00000  Uiso   1.00
C705   C     0.09640   0.19990   0.52001   0.00000  Uiso   1.00
C706   C     0.23695   0.13346   0.97999   0.00000  Uiso   1.00
C707   C     0.02116   0.12738   0.73760   0.00000  Uiso   1.00
C708   C     0.31217   0.20595   0.76243   0.00000  Uiso   1.00
C709   C     0.31177   0.12756   0.73703   0.00000  Uiso   1.00
C710   C     0.02157   0.20576   0.76300   0.00000  Uiso   1.00
C711   C     0.29082   0.16681   0.74955   0.00000  Uiso   1.00
C712   C     0.04252   0.16652   0.75047   0.00000  Uiso   1.00
C713   C     0.19932   0.02392   0.76820   0.00000  Uiso   1.00
C714   C     0.13401   0.30942   0.73179   0.00000  Uiso   1.00
C715   C     0.13403   0.02401   0.73171   0.00000  Uiso   1.00
C716   C     0.19930   0.30933   0.76829   0.00000  Uiso   1.00
C717   C     0.16542   0.16682   0.66358   0.00000  Uiso   1.00
C718   C     0.16792   0.16651   0.83642   0.00000  Uiso   1.00
C719   C     0.20371   0.14963   0.90775   0.00000  Uiso   1.00
C720   C     0.12963   0.18371   0.59225   0.00000  Uiso   1.00
C721   C     0.16887   0.16616   0.88408   0.00000  Uiso   1.00
C722   C     0.16447   0.16718   0.61592   0.00000  Uiso   1.00
C723   C     0.13403   0.18291   0.90547   0.00000  Uiso   1.00
C724   C     0.19932   0.15044   0.59453   0.00000  Uiso   1.00
C725   C     0.13250   0.18323   0.95175   0.00000  Uiso   1.00
C726   C     0.20085   0.15013   0.54825   0.00000  Uiso   1.00
C727   C     0.16718   0.16658   0.97659   0.00000  Uiso   1.00
C728   C     0.16617   0.16678   0.52341   0.00000  Uiso   1.00
C729   C     0.20291   0.14976   0.95464   0.00000  Uiso   1.00
C730   C     0.13044   0.18359   0.54536   0.00000  Uiso   1.00
C731   C     0.09713   0.19972   0.97371   0.00000  Uiso   1.00
C732   C     0.23623   0.13365   0.52629   0.00000  Uiso   1.00
H733   H     0.10810   0.19525   0.88533   0.00000  Uiso   1.00
H734   H     0.22525   0.13810   0.61468   0.00000  Uiso   1.00
H735   H     0.06880   0.21308   0.53584   0.00000  Uiso   1.00
H736   H     0.26455   0.12028   0.96416   0.00000  Uiso   1.00
H737   H     0.03735   0.09702   0.72743   0.00000  Uiso   1.00
H738   H     0.29599   0.23630   0.77259   0.00000  Uiso   1.00
H739   H     0.29525   0.09726   0.72672   0.00000  Uiso   1.00
H740   H     0.03808   0.23607   0.77331   0.00000  Uiso   1.00
H741   H     0.22550   0.04198   0.78257   0.00000  Uiso   1.00
H742   H     0.10784   0.29135   0.71741   0.00000  Uiso   1.00
H743   H     0.10793   0.04212   0.71700   0.00000  Uiso   1.00
H744   H     0.22541   0.29121   0.78300   0.00000  Uiso   1.00
N745   N     0.16667   0.28573   0.75000   0.00000  Uiso   1.00
N746   N     0.16667   0.04760   0.75000   0.00000  Uiso   1.00
O747   O     0.10559   0.20487   0.74999   0.00000  Uiso   1.00
O748   O     0.22774   0.12846   0.75001   0.00000  Uiso   1.00
O749   O     0.22774   0.20487   0.75001   0.00000  Uiso   1.00
O750   O     0.10559   0.12846   0.74999   0.00000  Uiso   1.00
O751   O     0.16666   0.20489   0.68393   0.00000  Uiso   1.00
O752   O     0.16667   0.12844   0.81607   0.00000  Uiso   1.00
O753   O     0.16667   0.20489   0.81607   0.00000  Uiso   1.00
O754   O     0.16666   0.12844   0.68393   0.00000  Uiso   1.00
Zn755  Zn    0.16667   0.21771   0.75000   0.00000  Uiso   1.00
Zn756  Zn    0.16667   0.11563   0.75000   0.00000  Uiso   1.00
C757   C     0.24131   0.13406   0.88374   0.00000  Uiso   1.00
C758   C     0.24456   0.08884   0.87017   0.00000  Uiso   1.00
C759   C     0.28172   0.07309   0.85179   0.00000  Uiso   1.00
C760   C     0.31579   0.10229   0.84714   0.00000  Uiso   1.00
C761   C     0.31264   0.14741   0.86042   0.00000  Uiso   1.00
C762   C     0.27546   0.16339   0.87848   0.00000  Uiso   1.00
H763   H     0.21864   0.06571   0.87460   0.00000  Uiso   1.00
H764   H     0.28427   0.03813   0.84162   0.00000  Uiso   1.00
H765   H     0.01129   0.08997   0.83322   0.00000  Uiso   1.00
H766   H     0.00576   0.16993   0.85688   0.00000  Uiso   1.00
H767   H     0.27355   0.19821   0.88936   0.00000  Uiso   1.00
C768   C     0.09201   0.19923   0.61626   0.00000  Uiso   1.00
C769   C     0.05789   0.16986   0.62149   0.00000  Uiso   1.00
C770   C     0.02068   0.18579   0.63954   0.00000  Uiso   1.00
C771   C     0.01748   0.23090   0.65285   0.00000  Uiso   1.00
C772   C     0.05153   0.26013   0.64824   0.00000  Uiso   1.00
C773   C     0.08871   0.24443   0.62986   0.00000  Uiso   1.00
H774   H     0.05983   0.13504   0.61059   0.00000  Uiso   1.00
H775   H     0.32758   0.16324   0.64307   0.00000  Uiso   1.00
H776   H     0.32196   0.24317   0.66677   0.00000  Uiso   1.00
H777   H     0.04894   0.29508   0.65844   0.00000  Uiso   1.00
H778   H     0.11461   0.26760   0.62545   0.00000  Uiso   1.00
Br779  Br    0.04841   0.22241   0.94273   0.00000  Uiso   1.00
Br780  Br    0.28494   0.11096   0.55727   0.00000  Uiso   1.00
C781   C     0.41998   0.16662   0.75018   0.00000  Uiso   1.00
C782   C     0.58002   0.16671   0.74982   0.00000  Uiso   1.00
C783   C     0.42974   0.19990   0.52001   0.00000  Uiso   1.00
C784   C     0.57028   0.13346   0.97999   0.00000  Uiso   1.00
C785   C     0.35449   0.12738   0.73760   0.00000  Uiso   1.00
C786   C     0.64551   0.20595   0.76243   0.00000  Uiso   1.00
C787   C     0.64510   0.12756   0.73703   0.00000  Uiso   1.00
C788   C     0.35490   0.20576   0.76300   0.00000  Uiso   1.00
C789   C     0.62415   0.16681   0.74955   0.00000  Uiso   1.00
C790   C     0.37585   0.16652   0.75047   0.00000  Uiso   1.00
C791   C     0.53266   0.02392   0.76820   0.00000  Uiso   1.00
C792   C     0.46735   0.30942   0.73179   0.00000  Uiso   1.00
C793   C     0.46736   0.02401   0.73171   0.00000  Uiso   1.00
C794   C     0.53264   0.30933   0.76829   0.00000  Uiso   1.00
C795   C     0.49875   0.16682   0.66358   0.00000  Uiso   1.00
C796   C     0.50125   0.16651   0.83642   0.00000  Uiso   1.00
C797   C     0.53705   0.14963   0.90775   0.00000  Uiso   1.00
C798   C     0.46296   0.18371   0.59225   0.00000  Uiso   1.00
C799   C     0.50220   0.16616   0.88408   0.00000  Uiso   1.00
C800   C     0.49780   0.16718   0.61592   0.00000  Uiso   1.00
C801   C     0.46736   0.18291   0.90547   0.00000  Uiso   1.00
C802   C     0.53265   0.15044   0.59453   0.00000  Uiso   1.00
C803   C     0.46583   0.18323   0.95175   0.00000  Uiso   1.00
C804   C     0.53418   0.15013   0.54825   0.00000  Uiso   1.00
C805   C     0.50052   0.16658   0.97659   0.00000  Uiso   1.00
C806   C     0.49950   0.16678   0.52341   0.00000  Uiso   1.00
C807   C     0.53624   0.14976   0.95464   0.00000  Uiso   1.00
C808   C     0.46377   0.18359   0.54536   0.00000  Uiso   1.00
C809   C     0.43046   0.19972   0.97371   0.00000  Uiso   1.00
C810   C     0.56956   0.13365   0.52629   0.00000  Uiso   1.00
H811   H     0.44143   0.19525   0.88533   0.00000  Uiso   1.00
H812   H     0.55859   0.13810   0.61468   0.00000  Uiso   1.00
H813   H     0.40213   0.21308   0.53584   0.00000  Uiso   1.00
H814   H     0.59788   0.12028   0.96416   0.00000  Uiso   1.00
H815   H     0.37068   0.09702   0.72743   0.00000  Uiso   1.00
H816   H     0.62932   0.23630   0.77259   0.00000  Uiso   1.00
H817   H     0.62858   0.09726   0.72672   0.00000  Uiso   1.00
H818   H     0.37142   0.23607   0.77331   0.00000  Uiso   1.00
H819   H     0.55883   0.04198   0.78257   0.00000  Uiso   1.00
H820   H     0.44118   0.29135   0.71741   0.00000  Uiso   1.00
H821   H     0.44126   0.04212   0.71700   0.00000  Uiso   1.00
H822   H     0.55874   0.29121   0.78300   0.00000  Uiso   1.00
N823   N     0.50000   0.28573   0.75000   0.00000  Uiso   1.00
N824   N     0.50000   0.04760   0.75000   0.00000  Uiso   1.00
O825   O     0.43892   0.20487   0.74999   0.00000  Uiso   1.00
O826   O     0.56108   0.12846   0.75001   0.00000  Uiso   1.00
O827   O     0.56108   0.20487   0.75001   0.00000  Uiso   1.00
O828   O     0.43892   0.12846   0.74999   0.00000  Uiso   1.00
O829   O     0.49999   0.20489   0.68393   0.00000  Uiso   1.00
O830   O     0.50001   0.12844   0.81607   0.00000  Uiso   1.00
O831   O     0.50001   0.20489   0.81607   0.00000  Uiso   1.00
O832   O     0.49999   0.12844   0.68393   0.00000  Uiso   1.00
Zn833  Zn    0.50000   0.21771   0.75000   0.00000  Uiso   1.00
Zn834  Zn    0.50000   0.11563   0.75000   0.00000  Uiso   1.00
C835   C     0.57464   0.13406   0.88374   0.00000  Uiso   1.00
C836   C     0.57789   0.08884   0.87017   0.00000  Uiso   1.00
C837   C     0.61505   0.07309   0.85179   0.00000  Uiso   1.00
C838   C     0.64913   0.10229   0.84714   0.00000  Uiso   1.00
C839   C     0.64598   0.14741   0.86042   0.00000  Uiso   1.00
C840   C     0.60879   0.16339   0.87848   0.00000  Uiso   1.00
H841   H     0.55198   0.06571   0.87460   0.00000  Uiso   1.00
H842   H     0.61761   0.03813   0.84162   0.00000  Uiso   1.00
H843   H     0.34463   0.08997   0.83322   0.00000  Uiso   1.00
H844   H     0.33909   0.16993   0.85688   0.00000  Uiso   1.00
H845   H     0.60689   0.19821   0.88936   0.00000  Uiso   1.00
C846   C     0.42534   0.19923   0.61626   0.00000  Uiso   1.00
C847   C     0.39122   0.16986   0.62149   0.00000  Uiso   1.00
C848   C     0.35401   0.18579   0.63954   0.00000  Uiso   1.00
C849   C     0.35081   0.23090   0.65285   0.00000  Uiso   1.00
C850   C     0.38486   0.26013   0.64824   0.00000  Uiso   1.00
C851   C     0.42205   0.24443   0.62986   0.00000  Uiso   1.00
H852   H     0.39316   0.13504   0.61059   0.00000  Uiso   1.00
H853   H     0.66092   0.16324   0.64307   0.00000  Uiso   1.00
H854   H     0.65529   0.24317   0.66677   0.00000  Uiso   1.00
H855   H     0.38227   0.29508   0.65844   0.00000  Uiso   1.00
H856   H     0.44794   0.26760   0.62545   0.00000  Uiso   1.00
Br857  Br    0.38174   0.22241   0.94273   0.00000  Uiso   1.00
Br858  Br    0.61827   0.11096   0.55727   0.00000  Uiso   1.00
C859   C     0.75332   0.16662   0.75018   0.00000  Uiso   1.00
C860   C     0.91335   0.16671   0.74982   0.00000  Uiso   1.00
C861   C     0.76307   0.19990   0.52001   0.00000  Uiso   1.00
C862   C     0.90361   0.13346   0.97999   0.00000  Uiso   1.00
C863   C     0.68783   0.12738   0.73760   0.00000  Uiso   1.00
C864   C     0.97884   0.20595   0.76243   0.00000  Uiso   1.00
C865   C     0.97843   0.12756   0.73703   0.00000  Uiso   1.00
C866   C     0.68823   0.20576   0.76300   0.00000  Uiso   1.00
C867   C     0.95748   0.16681   0.74955   0.00000  Uiso   1.00
C868   C     0.70918   0.16652   0.75047   0.00000  Uiso   1.00
C869   C     0.86599   0.02392   0.76820   0.00000  Uiso   1.00
C870   C     0.80068   0.30942   0.73179   0.00000  Uiso   1.00
C871   C     0.80070   0.02401   0.73171   0.00000  Uiso   1.00
C872   C     0.86597   0.30933   0.76829   0.00000  Uiso   1.00
C873   C     0.83208   0.16682   0.66358   0.00000  Uiso   1.00
C874   C     0.83459   0.16651   0.83642   0.00000  Uiso   1.00
C875   C     0.87038   0.14963   0.90775   0.00000  Uiso   1.00
C876   C     0.79629   0.18371   0.59225   0.00000  Uiso   1.00
C877   C     0.83554   0.16616   0.88408   0.00000  Uiso   1.00
C878   C     0.83114   0.16718   0.61592   0.00000  Uiso   1.00
C879   C     0.80070   0.18291   0.90547   0.00000  Uiso   1.00
C880   C     0.86598   0.15044   0.59453   0.00000  Uiso   1.00
C881   C     0.79917   0.18323   0.95175   0.00000  Uiso   1.00
C882   C     0.86752   0.15013   0.54825   0.00000  Uiso   1.00
C883   C     0.83385   0.16658   0.97659   0.00000  Uiso   1.00
C884   C     0.83284   0.16678   0.52341   0.00000  Uiso   1.00
C885   C     0.86957   0.14976   0.95464   0.00000  Uiso   1.00
C886   C     0.79711   0.18359   0.54536   0.00000  Uiso   1.00
C887   C     0.76379   0.19972   0.97371   0.00000  Uiso   1.00
C888   C     0.90289   0.13365   0.52629   0.00000  Uiso   1.00
H889   H     0.77476   0.19525   0.88533   0.00000  Uiso   1.00
H890   H     0.89192   0.13810   0.61468   0.00000  Uiso   1.00
H891   H     0.73547   0.21308   0.53584   0.00000  Uiso   1.00
H892   H     0.93122   0.12028   0.96416   0.00000  Uiso   1.00
H893   H     0.70401   0.09702   0.72743   0.00000  Uiso   1.00
H894   H     0.96265   0.23630   0.77259   0.00000  Uiso   1.00
H895   H     0.96192   0.09726   0.72672   0.00000  Uiso   1.00
H896   H     0.70475   0.23607   0.77331   0.00000  Uiso   1.00
H897   H     0.89216   0.04198   0.78257   0.00000  Uiso   1.00
H898   H     0.77451   0.29135   0.71741   0.00000  Uiso   1.00
H899   H     0.77460   0.04212   0.71700   0.00000  Uiso   1.00
H900   H     0.89207   0.29121   0.78300   0.00000  Uiso   1.00
N901   N     0.83333   0.28573   0.75000   0.00000  Uiso   1.00
N902   N     0.83333   0.04760   0.75000   0.00000  Uiso   1.00
O903   O     0.77226   0.20487   0.74999   0.00000  Uiso   1.00
O904   O     0.89441   0.12846   0.75001   0.00000  Uiso   1.00
O905   O     0.89441   0.20487   0.75001   0.00000  Uiso   1.00
O906   O     0.77226   0.12846   0.74999   0.00000  Uiso   1.00
O907   O     0.83333   0.20489   0.68393   0.00000  Uiso   1.00
O908   O     0.83334   0.12844   0.81607   0.00000  Uiso   1.00
O909   O     0.83334   0.20489   0.81607   0.00000  Uiso   1.00
O910   O     0.83333   0.12844   0.68393   0.00000  Uiso   1.00
Zn911  Zn    0.83333   0.21771   0.75000   0.00000  Uiso   1.00
Zn912  Zn    0.83333   0.11563   0.75000   0.00000  Uiso   1.00
C913   C     0.90798   0.13406   0.88374   0.00000  Uiso   1.00
C914   C     0.91123   0.08884   0.87017   0.00000  Uiso   1.00
C915   C     0.94838   0.07309   0.85179   0.00000  Uiso   1.00
C916   C     0.98246   0.10229   0.84714   0.00000  Uiso   1.00
C917   C     0.97931   0.14741   0.86042   0.00000  Uiso   1.00
C918   C     0.94212   0.16339   0.87848   0.00000  Uiso   1.00
H919   H     0.88531   0.06571   0.87460   0.00000  Uiso   1.00
H920   H     0.95094   0.03813   0.84162   0.00000  Uiso   1.00
H921   H     0.67796   0.08997   0.83322   0.00000  Uiso   1.00
H922   H     0.67242   0.16993   0.85688   0.00000  Uiso   1.00
H923   H     0.94022   0.19821   0.88936   0.00000  Uiso   1.00
C924   C     0.75868   0.19923   0.61626   0.00000  Uiso   1.00
C925   C     0.72455   0.16986   0.62149   0.00000  Uiso   1.00
C926   C     0.68734   0.18579   0.63954   0.00000  Uiso   1.00
C927   C     0.68415   0.23090   0.65285   0.00000  Uiso   1.00
C928   C     0.71820   0.26013   0.64824   0.00000  Uiso   1.00
C929   C     0.75538   0.24443   0.62986   0.00000  Uiso   1.00
H930   H     0.72650   0.13504   0.61059   0.00000  Uiso   1.00
H931   H     0.99425   0.16324   0.64307   0.00000  Uiso   1.00
H932   H     0.98862   0.24317   0.66677   0.00000  Uiso   1.00
H933   H     0.71561   0.29508   0.65844   0.00000  Uiso   1.00
H934   H     0.78128   0.26760   0.62545   0.00000  Uiso   1.00
Br935  Br    0.71508   0.22241   0.94273   0.00000  Uiso   1.00
Br936  Br    0.95161   0.11096   0.55727   0.00000  Uiso   1.00
C937   C     0.08665   0.49995   0.75018   0.00000  Uiso   1.00
C938   C     0.24668   0.50005   0.74982   0.00000  Uiso   1.00
C939   C     0.09640   0.53323   0.52001   0.00000  Uiso   1.00
C940   C     0.23695   0.46679   0.97999   0.00000  Uiso   1.00
C941   C     0.02116   0.46071   0.73760   0.00000  Uiso   1.00
C942   C     0.31217   0.53928   0.76243   0.00000  Uiso   1.00
C943   C     0.31177   0.46090   0.73703   0.00000  Uiso   1.00
C944   C     0.02157   0.53910   0.76300   0.00000  Uiso   1.00
C945   C     0.29082   0.50015   0.74955   0.00000  Uiso   1.00
C946   C     0.04252   0.49985   0.75047   0.00000  Uiso   1.00
C947   C     0.19932   0.35725   0.76820   0.00000  Uiso   1.00
C948   C     0.13401   0.64275   0.73179   0.00000  Uiso   1.00
C949   C     0.13403   0.35734   0.73171   0.00000  Uiso   1.00
C950   C     0.19930   0.64266   0.76829   0.00000  Uiso   1.00
C951   C     0.16542   0.50015   0.66358   0.00000  Uiso   1.00
C952   C     0.16792   0.49985   0.83642   0.00000  Uiso   1.00
C953   C     0.20371   0.48296   0.90775   0.00000  Uiso   1.00
C954   C     0.12963   0.51704   0.59225   0.00000  Uiso   1.00
C955   C     0.16887   0.49949   0.88408   0.00000  Uiso   1.00
C956   C     0.16447   0.50051   0.61592   0.00000  Uiso   1.00
C957   C     0.13403   0.51624   0.90547   0.00000  Uiso   1.00
C958   C     0.19932   0.48378   0.59453   0.00000  Uiso   1.00
C959   C     0.13250   0.51656   0.95175   0.00000  Uiso   1.00
C960   C     0.20085   0.48347   0.54825   0.00000  Uiso   1.00
C961   C     0.16718   0.49991   0.97659   0.00000  Uiso   1.00
C962   C     0.16617   0.50012   0.52341   0.00000  Uiso   1.00
C963   C     0.20291   0.48310   0.95464   0.00000  Uiso   1.00
C964   C     0.13044   0.51692   0.54536   0.00000  Uiso   1.00
C965   C     0.09713   0.53305   0.97371   0.00000  Uiso   1.00
C966   C     0.23623   0.46698   0.52629   0.00000  Uiso   1.00
H967   H     0.10810   0.52859   0.88533   0.00000  Uiso   1.00
H968   H     0.22525   0.47143   0.61468   0.00000  Uiso   1.00
H969   H     0.06880   0.54641   0.53584   0.00000  Uiso   1.00
H970   H     0.26455   0.45362   0.96416   0.00000  Uiso   1.00
H971   H     0.03735   0.43036   0.72743   0.00000  Uiso   1.00
H972   H     0.29599   0.56964   0.77259   0.00000  Uiso   1.00
H973   H     0.29525   0.43059   0.72672   0.00000  Uiso   1.00
H974   H     0.03808   0.56940   0.77331   0.00000  Uiso   1.00
H975   H     0.22550   0.37532   0.78257   0.00000  Uiso   1.00
H976   H     0.10784   0.62468   0.71741   0.00000  Uiso   1.00
H977   H     0.10793   0.37546   0.71700   0.00000  Uiso   1.00
H978   H     0.22541   0.62454   0.78300   0.00000  Uiso   1.00
N979   N     0.16667   0.61907   0.75000   0.00000  Uiso   1.00
N980   N     0.16667   0.38093   0.75000   0.00000  Uiso   1.00
O981   O     0.10559   0.53821   0.74999   0.00000  Uiso   1.00
O982   O     0.22774   0.46179   0.75001   0.00000  Uiso   1.00
O983   O     0.22774   0.53821   0.75001   0.00000  Uiso   1.00
O984   O     0.10559   0.46179   0.74999   0.00000  Uiso   1.00
O985   O     0.16666   0.53823   0.68393   0.00000  Uiso   1.00
O986   O     0.16667   0.46177   0.81607   0.00000  Uiso   1.00
O987   O     0.16667   0.53823   0.81607   0.00000  Uiso   1.00
O988   O     0.16666   0.46177   0.68393   0.00000  Uiso   1.00
Zn989  Zn    0.16667   0.55104   0.75000   0.00000  Uiso   1.00
Zn990  Zn    0.16667   0.44896   0.75000   0.00000  Uiso   1.00
C991   C     0.24131   0.46739   0.88374   0.00000  Uiso   1.00
C992   C     0.24456   0.42217   0.87017   0.00000  Uiso   1.00
C993   C     0.28172   0.40643   0.85179   0.00000  Uiso   1.00
C994   C     0.31579   0.43562   0.84714   0.00000  Uiso   1.00
C995   C     0.31264   0.48074   0.86042   0.00000  Uiso   1.00
C996   C     0.27546   0.49672   0.87848   0.00000  Uiso   1.00
H997   H     0.21864   0.39904   0.87460   0.00000  Uiso   1.00
H998   H     0.28427   0.37146   0.84162   0.00000  Uiso   1.00
H999   H     0.01129   0.42330   0.83322   0.00000  Uiso   1.00
H1000  H     0.00576   0.50326   0.85688   0.00000  Uiso   1.00
H1001  H     0.27355   0.53155   0.88936   0.00000  Uiso   1.00
C1002  C     0.09201   0.53256   0.61626   0.00000  Uiso   1.00
C1003  C     0.05789   0.50319   0.62149   0.00000  Uiso   1.00
C1004  C     0.02068   0.51912   0.63954   0.00000  Uiso   1.00
C1005  C     0.01748   0.56423   0.65285   0.00000  Uiso   1.00
C1006  C     0.05153   0.59346   0.64824   0.00000  Uiso   1.00
C1007  C     0.08871   0.57777   0.62986   0.00000  Uiso   1.00
H1008  H     0.05983   0.46838   0.61059   0.00000  Uiso   1.00
H1009  H     0.32758   0.49657   0.64307   0.00000  Uiso   1.00
H1010  H     0.32196   0.57651   0.66677   0.00000  Uiso   1.00
H1011  H     0.04894   0.62842   0.65844   0.00000  Uiso   1.00
H1012  H     0.11461   0.60093   0.62545   0.00000  Uiso   1.00
Br1013 Br    0.04841   0.55574   0.94273   0.00000  Uiso   1.00
Br1014 Br    0.28494   0.44429   0.55727   0.00000  Uiso   1.00
C1015  C     0.41998   0.49995   0.75018   0.00000  Uiso   1.00
C1016  C     0.58002   0.50005   0.74982   0.00000  Uiso   1.00
C1017  C     0.42974   0.53323   0.52001   0.00000  Uiso   1.00
C1018  C     0.57028   0.46679   0.97999   0.00000  Uiso   1.00
C1019  C     0.35449   0.46071   0.73760   0.00000  Uiso   1.00
C1020  C     0.64551   0.53928   0.76243   0.00000  Uiso   1.00
C1021  C     0.64510   0.46090   0.73703   0.00000  Uiso   1.00
C1022  C     0.35490   0.53910   0.76300   0.00000  Uiso   1.00
C1023  C     0.62415   0.50015   0.74955   0.00000  Uiso   1.00
C1024  C     0.37585   0.49985   0.75047   0.00000  Uiso   1.00
C1025  C     0.53266   0.35725   0.76820   0.00000  Uiso   1.00
C1026  C     0.46735   0.64275   0.73179   0.00000  Uiso   1.00
C1027  C     0.46736   0.35734   0.73171   0.00000  Uiso   1.00
C1028  C     0.53264   0.64266   0.76829   0.00000  Uiso   1.00
C1029  C     0.49875   0.50015   0.66358   0.00000  Uiso   1.00
C1030  C     0.50125   0.49985   0.83642   0.00000  Uiso   1.00
C1031  C     0.53705   0.48296   0.90775   0.00000  Uiso   1.00
C1032  C     0.46296   0.51704   0.59225   0.00000  Uiso   1.00
C1033  C     0.50220   0.49949   0.88408   0.00000  Uiso   1.00
C1034  C     0.49780   0.50051   0.61592   0.00000  Uiso   1.00
C1035  C     0.46736   0.51624   0.90547   0.00000  Uiso   1.00
C1036  C     0.53265   0.48378   0.59453   0.00000  Uiso   1.00
C1037  C     0.46583   0.51656   0.95175   0.00000  Uiso   1.00
C1038  C     0.53418   0.48347   0.54825   0.00000  Uiso   1.00
C1039  C     0.50052   0.49991   0.97659   0.00000  Uiso   1.00
C1040  C     0.49950   0.50012   0.52341   0.00000  Uiso   1.00
C1041  C     0.53624   0.48310   0.95464   0.00000  Uiso   1.00
C1042  C     0.46377   0.51692   0.54536   0.00000  Uiso   1.00
C1043  C     0.43046   0.53305   0.97371   0.00000  Uiso   1.00
C1044  C     0.56956   0.46698   0.52629   0.00000  Uiso   1.00
H1045  H     0.44143   0.52859   0.88533   0.00000  Uiso   1.00
H1046  H     0.55859   0.47143   0.61468   0.00000  Uiso   1.00
H1047  H     0.40213   0.54641   0.53584   0.00000  Uiso   1.00
H1048  H     0.59788   0.45362   0.96416   0.00000  Uiso   1.00
H1049  H     0.37068   0.43036   0.72743   0.00000  Uiso   1.00
H1050  H     0.62932   0.56964   0.77259   0.00000  Uiso   1.00
H1051  H     0.62858   0.43059   0.72672   0.00000  Uiso   1.00
H1052  H     0.37142   0.56940   0.77331   0.00000  Uiso   1.00
H1053  H     0.55883   0.37532   0.78257   0.00000  Uiso   1.00
H1054  H     0.44118   0.62468   0.71741   0.00000  Uiso   1.00
H1055  H     0.44126   0.37546   0.71700   0.00000  Uiso   1.00
H1056  H     0.55874   0.62454   0.78300   0.00000  Uiso   1.00
N1057  N     0.50000   0.61907   0.75000   0.00000  Uiso   1.00
N1058  N     0.50000   0.38093   0.75000   0.00000  Uiso   1.00
O1059  O     0.43892   0.53821   0.74999   0.00000  Uiso   1.00
O1060  O     0.56108   0.46179   0.75001   0.00000  Uiso   1.00
O1061  O     0.56108   0.53821   0.75001   0.00000  Uiso   1.00
O1062  O     0.43892   0.46179   0.74999   0.00000  Uiso   1.00
O1063  O     0.49999   0.53823   0.68393   0.00000  Uiso   1.00
O1064  O     0.50001   0.46177   0.81607   0.00000  Uiso   1.00
O1065  O     0.50001   0.53823   0.81607   0.00000  Uiso   1.00
O1066  O     0.49999   0.46177   0.68393   0.00000  Uiso   1.00
Zn1067 Zn    0.50000   0.55104   0.75000   0.00000  Uiso   1.00
Zn1068 Zn    0.50000   0.44896   0.75000   0.00000  Uiso   1.00
C1069  C     0.57464   0.46739   0.88374   0.00000  Uiso   1.00
C1070  C     0.57789   0.42217   0.87017   0.00000  Uiso   1.00
C1071  C     0.61505   0.40643   0.85179   0.00000  Uiso   1.00
C1072  C     0.64913   0.43562   0.84714   0.00000  Uiso   1.00
C1073  C     0.64598   0.48074   0.86042   0.00000  Uiso   1.00
C1074  C     0.60879   0.49672   0.87848   0.00000  Uiso   1.00
H1075  H     0.55198   0.39904   0.87460   0.00000  Uiso   1.00
H1076  H     0.61761   0.37146   0.84162   0.00000  Uiso   1.00
H1077  H     0.34463   0.42330   0.83322   0.00000  Uiso   1.00
H1078  H     0.33909   0.50326   0.85688   0.00000  Uiso   1.00
H1079  H     0.60689   0.53155   0.88936   0.00000  Uiso   1.00
C1080  C     0.42534   0.53256   0.61626   0.00000  Uiso   1.00
C1081  C     0.39122   0.50319   0.62149   0.00000  Uiso   1.00
C1082  C     0.35401   0.51912   0.63954   0.00000  Uiso   1.00
C1083  C     0.35081   0.56423   0.65285   0.00000  Uiso   1.00
C1084  C     0.38486   0.59346   0.64824   0.00000  Uiso   1.00
C1085  C     0.42205   0.57777   0.62986   0.00000  Uiso   1.00
H1086  H     0.39316   0.46838   0.61059   0.00000  Uiso   1.00
H1087  H     0.66092   0.49657   0.64307   0.00000  Uiso   1.00
H1088  H     0.65529   0.57651   0.66677   0.00000  Uiso   1.00
H1089  H     0.38227   0.62842   0.65844   0.00000  Uiso   1.00
H1090  H     0.44794   0.60093   0.62545   0.00000  Uiso   1.00
Br1091 Br    0.38174   0.55574   0.94273   0.00000  Uiso   1.00
Br1092 Br    0.61827   0.44429   0.55727   0.00000  Uiso   1.00
C1093  C     0.75332   0.49995   0.75018   0.00000  Uiso   1.00
C1094  C     0.91335   0.50005   0.74982   0.00000  Uiso   1.00
C1095  C     0.76307   0.53323   0.52001   0.00000  Uiso   1.00
C1096  C     0.90361   0.46679   0.97999   0.00000  Uiso   1.00
C1097  C     0.68783   0.46071   0.73760   0.00000  Uiso   1.00
C1098  C     0.97884   0.53928   0.76243   0.00000  Uiso   1.00
C1099  C     0.97843   0.46090   0.73703   0.00000  Uiso   1.00
C1100  C     0.68823   0.53910   0.76300   0.00000  Uiso   1.00
C1101  C     0.95748   0.50015   0.74955   0.00000  Uiso   1.00
C1102  C     0.70918   0.49985   0.75047   0.00000  Uiso   1.00
C1103  C     0.86599   0.35725   0.76820   0.00000  Uiso   1.00
C1104  C     0.80068   0.64275   0.73179   0.00000  Uiso   1.00
C1105  C     0.80070   0.35734   0.73171   0.00000  Uiso   1.00
C1106  C     0.86597   0.64266   0.76829   0.00000  Uiso   1.00
C1107  C     0.83208   0.50015   0.66358   0.00000  Uiso   1.00
C1108  C     0.83459   0.49985   0.83642   0.00000  Uiso   1.00
C1109  C     0.87038   0.48296   0.90775   0.00000  Uiso   1.00
C1110  C     0.79629   0.51704   0.59225   0.00000  Uiso   1.00
C1111  C     0.83554   0.49949   0.88408   0.00000  Uiso   1.00
C1112  C     0.83114   0.50051   0.61592   0.00000  Uiso   1.00
C1113  C     0.80070   0.51624   0.90547   0.00000  Uiso   1.00
C1114  C     0.86598   0.48378   0.59453   0.00000  Uiso   1.00
C1115  C     0.79917   0.51656   0.95175   0.00000  Uiso   1.00
C1116  C     0.86752   0.48347   0.54825   0.00000  Uiso   1.00
C1117  C     0.83385   0.49991   0.97659   0.00000  Uiso   1.00
C1118  C     0.83284   0.50012   0.52341   0.00000  Uiso   1.00
C1119  C     0.86957   0.48310   0.95464   0.00000  Uiso   1.00
C1120  C     0.79711   0.51692   0.54536   0.00000  Uiso   1.00
C1121  C     0.76379   0.53305   0.97371   0.00000  Uiso   1.00
C1122  C     0.90289   0.46698   0.52629   0.00000  Uiso   1.00
H1123  H     0.77476   0.52859   0.88533   0.00000  Uiso   1.00
H1124  H     0.89192   0.47143   0.61468   0.00000  Uiso   1.00
H1125  H     0.73547   0.54641   0.53584   0.00000  Uiso   1.00
H1126  H     0.93122   0.45362   0.96416   0.00000  Uiso   1.00
H1127  H     0.70401   0.43036   0.72743   0.00000  Uiso   1.00
H1128  H     0.96265   0.56964   0.77259   0.00000  Uiso   1.00
H1129  H     0.96192   0.43059   0.72672   0.00000  Uiso   1.00
H1130  H     0.70475   0.56940   0.77331   0.00000  Uiso   1.00
H1131  H     0.89216   0.37532   0.78257   0.00000  Uiso   1.00
H1132  H     0.77451   0.62468   0.71741   0.00000  Uiso   1.00
H1133  H     0.77460   0.37546   0.71700   0.00000  Uiso   1.00
H1134  H     0.89207   0.62454   0.78300   0.00000  Uiso   1.00
N1135  N     0.83333   0.61907   0.75000   0.00000  Uiso   1.00
N1136  N     0.83333   0.38093   0.75000   0.00000  Uiso   1.00
O1137  O     0.77226   0.53821   0.74999   0.00000  Uiso   1.00
O1138  O     0.89441   0.46179   0.75001   0.00000  Uiso   1.00
O1139  O     0.89441   0.53821   0.75001   0.00000  Uiso   1.00
O1140  O     0.77226   0.46179   0.74999   0.00000  Uiso   1.00
O1141  O     0.83333   0.53823   0.68393   0.00000  Uiso   1.00
O1142  O     0.83334   0.46177   0.81607   0.00000  Uiso   1.00
O1143  O     0.83334   0.53823   0.81607   0.00000  Uiso   1.00
O1144  O     0.83333   0.46177   0.68393   0.00000  Uiso   1.00
Zn1145 Zn    0.83333   0.55104   0.75000   0.00000  Uiso   1.00
Zn1146 Zn    0.83333   0.44896   0.75000   0.00000  Uiso   1.00
C1147  C     0.90798   0.46739   0.88374   0.00000  Uiso   1.00
C1148  C     0.91123   0.42217   0.87017   0.00000  Uiso   1.00
C1149  C     0.94838   0.40643   0.85179   0.00000  Uiso   1.00
C1150  C     0.98246   0.43562   0.84714   0.00000  Uiso   1.00
C1151  C     0.97931   0.48074   0.86042   0.00000  Uiso   1.00
C1152  C     0.94212   0.49672   0.87848   0.00000  Uiso   1.00
H1153  H     0.88531   0.39904   0.87460   0.00000  Uiso   1.00
H1154  H     0.95094   0.37146   0.84162   0.00000  Uiso   1.00
H1155  H     0.67796   0.42330   0.83322   0.00000  Uiso   1.00
H1156  H     0.67242   0.50326   0.85688   0.00000  Uiso   1.00
H1157  H     0.94022   0.53155   0.88936   0.00000  Uiso   1.00
C1158  C     0.75868   0.53256   0.61626   0.00000  Uiso   1.00
C1159  C     0.72455   0.50319   0.62149   0.00000  Uiso   1.00
C1160  C     0.68734   0.51912   0.63954   0.00000  Uiso   1.00
C1161  C     0.68415   0.56423   0.65285   0.00000  Uiso   1.00
C1162  C     0.71820   0.59346   0.64824   0.00000  Uiso   1.00
C1163  C     0.75538   0.57777   0.62986   0.00000  Uiso   1.00
H1164  H     0.72650   0.46838   0.61059   0.00000  Uiso   1.00
H1165  H     0.99425   0.49657   0.64307   0.00000  Uiso   1.00
H1166  H     0.98862   0.57651   0.66677   0.00000  Uiso   1.00
H1167  H     0.71561   0.62842   0.65844   0.00000  Uiso   1.00
H1168  H     0.78128   0.60093   0.62545   0.00000  Uiso   1.00
Br1169 Br    0.71508   0.55574   0.94273   0.00000  Uiso   1.00
Br1170 Br    0.95161   0.44429   0.55727   0.00000  Uiso   1.00
C1171  C     0.08665   0.83329   0.75018   0.00000  Uiso   1.00
C1172  C     0.24668   0.83338   0.74982   0.00000  Uiso   1.00
C1173  C     0.09640   0.86657   0.52001   0.00000  Uiso   1.00
C1174  C     0.23695   0.80012   0.97999   0.00000  Uiso   1.00
C1175  C     0.02116   0.79404   0.73760   0.00000  Uiso   1.00
C1176  C     0.31217   0.87262   0.76243   0.00000  Uiso   1.00
C1177  C     0.31177   0.79423   0.73703   0.00000  Uiso   1.00
C1178  C     0.02157   0.87243   0.76300   0.00000  Uiso   1.00
C1179  C     0.29082   0.83348   0.74955   0.00000  Uiso   1.00
C1180  C     0.04252   0.83318   0.75047   0.00000  Uiso   1.00
C1181  C     0.19932   0.69058   0.76820   0.00000  Uiso   1.00
C1182  C     0.13401   0.97608   0.73179   0.00000  Uiso   1.00
C1183  C     0.13403   0.69067   0.73171   0.00000  Uiso   1.00
C1184  C     0.19930   0.97599   0.76829   0.00000  Uiso   1.00
C1185  C     0.16542   0.83349   0.66358   0.00000  Uiso   1.00
C1186  C     0.16792   0.83318   0.83642   0.00000  Uiso   1.00
C1187  C     0.20371   0.81630   0.90775   0.00000  Uiso   1.00
C1188  C     0.12963   0.85037   0.59225   0.00000  Uiso   1.00
C1189  C     0.16887   0.83282   0.88408   0.00000  Uiso   1.00
C1190  C     0.16447   0.83385   0.61592   0.00000  Uiso   1.00
C1191  C     0.13403   0.84958   0.90547   0.00000  Uiso   1.00
C1192  C     0.19932   0.81711   0.59453   0.00000  Uiso   1.00
C1193  C     0.13250   0.84989   0.95175   0.00000  Uiso   1.00
C1194  C     0.20085   0.81680   0.54825   0.00000  Uiso   1.00
C1195  C     0.16718   0.83325   0.97659   0.00000  Uiso   1.00
C1196  C     0.16617   0.83345   0.52341   0.00000  Uiso   1.00
C1197  C     0.20291   0.81643   0.95464   0.00000  Uiso   1.00
C1198  C     0.13044   0.85026   0.54536   0.00000  Uiso   1.00
C1199  C     0.09713   0.86638   0.97371   0.00000  Uiso   1.00
C1200  C     0.23623   0.80031   0.52629   0.00000  Uiso   1.00
H1201  H     0.10810   0.86192   0.88533   0.00000  Uiso   1.00
H1202  H     0.22525   0.80477   0.61468   0.00000  Uiso   1.00
H1203  H     0.06880   0.87974   0.53584   0.00000  Uiso   1.00
H1204  H     0.26455   0.78695   0.96416   0.00000  Uiso   1.00
H1205  H     0.03735   0.76369   0.72743   0.00000  Uiso   1.00
H1206  H     0.29599   0.90297   0.77259   0.00000  Uiso   1.00
H1207  H     0.29525   0.76392   0.72672   0.00000  Uiso   1.00
H1208  H     0.03808   0.90274   0.77331   0.00000  Uiso   1.00
H1209  H     0.22550   0.70865   0.78257   0.00000  Uiso   1.00
H1210  H     0.10784   0.95802   0.71741   0.00000  Uiso   1.00
H1211  H     0.10793   0.70879   0.71700   0.00000  Uiso   1.00
H1212  H     0.22541   0.95788   0.78300   0.00000  Uiso   1.00
N1213  N     0.16667   0.95240   0.75000   0.00000  Uiso   1.00
N1214  N     0.16667   0.71427   0.75000   0.00000  Uiso   1.00
O1215  O     0.10559   0.87154   0.74999   0.00000  Uiso   1.00
O1216  O     0.22774   0.79513   0.75001   0.00000  Uiso   1.00
O1217  O     0.22774   0.87154   0.75001   0.00000  Uiso   1.00
O1218  O     0.10559   0.79513   0.74999   0.00000  Uiso   1.00
O1219  O     0.16666   0.87156   0.68393   0.00000  Uiso   1.00
O1220  O     0.16667   0.79511   0.81607   0.00000  Uiso   1.00
O1221  O     0.16667   0.87156   0.81607   0.00000  Uiso   1.00
O1222  O     0.16666   0.79511   0.68393   0.00000  Uiso   1.00
Zn1223 Zn    0.16667   0.88437   0.75000   0.00000  Uiso   1.00
Zn1224 Zn    0.16667   0.78229   0.75000   0.00000  Uiso   1.00
C1225  C     0.24131   0.80073   0.88374   0.00000  Uiso   1.00
C1226  C     0.24456   0.75551   0.87017   0.00000  Uiso   1.00
C1227  C     0.28172   0.73976   0.85179   0.00000  Uiso   1.00
C1228  C     0.31579   0.76895   0.84714   0.00000  Uiso   1.00
C1229  C     0.31264   0.81407   0.86042   0.00000  Uiso   1.00
C1230  C     0.27546   0.83006   0.87848   0.00000  Uiso   1.00
H1231  H     0.21864   0.73237   0.87460   0.00000  Uiso   1.00
H1232  H     0.28427   0.70479   0.84162   0.00000  Uiso   1.00
H1233  H     0.01129   0.75664   0.83322   0.00000  Uiso   1.00
H1234  H     0.00576   0.83660   0.85688   0.00000  Uiso   1.00
H1235  H     0.27355   0.86488   0.88936   0.00000  Uiso   1.00
C1236  C     0.09201   0.86589   0.61626   0.00000  Uiso   1.00
C1237  C     0.05789   0.83652   0.62149   0.00000  Uiso   1.00
C1238  C     0.02068   0.85246   0.63954   0.00000  Uiso   1.00
C1239  C     0.01748   0.89756   0.65285   0.00000  Uiso   1.00
C1240  C     0.05153   0.92679   0.64824   0.00000  Uiso   1.00
C1241  C     0.08871   0.91110   0.62986   0.00000  Uiso   1.00
H1242  H     0.05983   0.80171   0.61059   0.00000  Uiso   1.00
H1243  H     0.32758   0.82990   0.64307   0.00000  Uiso   1.00
H1244  H     0.32196   0.90984   0.66677   0.00000  Uiso   1.00
H1245  H     0.04894   0.96175   0.65844   0.00000  Uiso   1.00
H1246  H     0.11461   0.93426   0.62545   0.00000  Uiso   1.00
Br1247 Br    0.04841   0.88907   0.94273   0.00000  Uiso   1.00
Br1248 Br    0.28494   0.77762   0.55727   0.00000  Uiso   1.00
C1249  C     0.41998   0.83329   0.75018   0.00000  Uiso   1.00
C1250  C     0.58002   0.83338   0.74982   0.00000  Uiso   1.00
C1251  C     0.42974   0.86657   0.52001   0.00000  Uiso   1.00
C1252  C     0.57028   0.80012   0.97999   0.00000  Uiso   1.00
C1253  C     0.35449   0.79404   0.73760   0.00000  Uiso   1.00
C1254  C     0.64551   0.87262   0.76243   0.00000  Uiso   1.00
C1255  C     0.64510   0.79423   0.73703   0.00000  Uiso   1.00
C1256  C     0.35490   0.87243   0.76300   0.00000  Uiso   1.00
C1257  C     0.62415   0.83348   0.74955   0.00000  Uiso   1.00
C1258  C     0.37585   0.83318   0.75047   0.00000  Uiso   1.00
C1259  C     0.53266   0.69058   0.76820   0.00000  Uiso   1.00
C1260  C     0.46735   0.97608   0.73179   0.00000  Uiso   1.00
C1261  C     0.46736   0.69067   0.73171   0.00000  Uiso   1.00
C1262  C     0.53264   0.97599   0.76829   0.00000  Uiso   1.00
C1263  C     0.49875   0.83349   0.66358   0.00000  Uiso   1.00
C1264  C     0.50125   0.83318   0.83642   0.00000  Uiso   1.00
C1265  C     0.53705   0.81630   0.90775   0.00000  Uiso   1.00
C1266  C     0.46296   0.85037   0.59225   0.00000  Uiso   1.00
C1267  C     0.50220   0.83282   0.88408   0.00000  Uiso   1.00
C1268  C     0.49780   0.83385   0.61592   0.00000  Uiso   1.00
C1269  C     0.46736   0.84958   0.90547   0.00000  Uiso   1.00
C1270  C     0.53265   0.81711   0.59453   0.00000  Uiso   1.00
C1271  C     0.46583   0.84989   0.95175   0.00000  Uiso   1.00
C1272  C     0.53418   0.81680   0.54825   0.00000  Uiso   1.00
C1273  C     0.50052   0.83325   0.97659   0.00000  Uiso   1.00
C1274  C     0.49950   0.83345   0.52341   0.00000  Uiso   1.00
C1275  C     0.53624   0.81643   0.95464   0.00000  Uiso   1.00
C1276  C     0.46377   0.85026   0.54536   0.00000  Uiso   1.00
C1277  C     0.43046   0.86638   0.97371   0.00000  Uiso   1.00
C1278  C     0.56956   0.80031   0.52629   0.00000  Uiso   1.00
H1279  H     0.44143   0.86192   0.88533   0.00000  Uiso   1.00
H1280  H     0.55859   0.80477   0.61468   0.00000  Uiso   1.00
H1281  H     0.40213   0.87974   0.53584   0.00000  Uiso   1.00
H1282  H     0.59788   0.78695   0.96416   0.00000  Uiso   1.00
H1283  H     0.37068   0.76369   0.72743   0.00000  Uiso   1.00
H1284  H     0.62932   0.90297   0.77259   0.00000  Uiso   1.00
H1285  H     0.62858   0.76392   0.72672   0.00000  Uiso   1.00
H1286  H     0.37142   0.90274   0.77331   0.00000  Uiso   1.00
H1287  H     0.55883   0.70865   0.78257   0.00000  Uiso   1.00
H1288  H     0.44118   0.95802   0.71741   0.00000  Uiso   1.00
H1289  H     0.44126   0.70879   0.71700   0.00000  Uiso   1.00
H1290  H     0.55874   0.95788   0.78300   0.00000  Uiso   1.00
N1291  N     0.50000   0.95240   0.75000   0.00000  Uiso   1.00
N1292  N     0.50000   0.71427   0.75000   0.00000  Uiso   1.00
O1293  O     0.43892   0.87154   0.74999   0.00000  Uiso   1.00
O1294  O     0.56108   0.79513   0.75001   0.00000  Uiso   1.00
O1295  O     0.56108   0.87154   0.75001   0.00000  Uiso   1.00
O1296  O     0.43892   0.79513   0.74999   0.00000  Uiso   1.00
O1297  O     0.49999   0.87156   0.68393   0.00000  Uiso   1.00
O1298  O     0.50001   0.79511   0.81607   0.00000  Uiso   1.00
O1299  O     0.50001   0.87156   0.81607   0.00000  Uiso   1.00
O1300  O     0.49999   0.79511   0.68393   0.00000  Uiso   1.00
Zn1301 Zn    0.50000   0.88437   0.75000   0.00000  Uiso   1.00
Zn1302 Zn    0.50000   0.78229   0.75000   0.00000  Uiso   1.00
C1303  C     0.57464   0.80073   0.88374   0.00000  Uiso   1.00
C1304  C     0.57789   0.75551   0.87017   0.00000  Uiso   1.00
C1305  C     0.61505   0.73976   0.85179   0.00000  Uiso   1.00
C1306  C     0.64913   0.76895   0.84714   0.00000  Uiso   1.00
C1307  C     0.64598   0.81407   0.86042   0.00000  Uiso   1.00
C1308  C     0.60879   0.83006   0.87848   0.00000  Uiso   1.00
H1309  H     0.55198   0.73237   0.87460   0.00000  Uiso   1.00
H1310  H     0.61761   0.70479   0.84162   0.00000  Uiso   1.00
H1311  H     0.34463   0.75664   0.83322   0.00000  Uiso   1.00
H1312  H     0.33909   0.83660   0.85688   0.00000  Uiso   1.00
H1313  H     0.60689   0.86488   0.88936   0.00000  Uiso   1.00
C1314  C     0.42534   0.86589   0.61626   0.00000  Uiso   1.00
C1315  C     0.39122   0.83652   0.62149   0.00000  Uiso   1.00
C1316  C     0.35401   0.85246   0.63954   0.00000  Uiso   1.00
C1317  C     0.35081   0.89756   0.65285   0.00000  Uiso   1.00
C1318  C     0.38486   0.92679   0.64824   0.00000  Uiso   1.00
C1319  C     0.42205   0.91110   0.62986   0.00000  Uiso   1.00
H1320  H     0.39316   0.80171   0.61059   0.00000  Uiso   1.00
H1321  H     0.66092   0.82990   0.64307   0.00000  Uiso   1.00
H1322  H     0.65529   0.90984   0.66677   0.00000  Uiso   1.00
H1323  H     0.38227   0.96175   0.65844   0.00000  Uiso   1.00
H1324  H     0.44794   0.93426   0.62545   0.00000  Uiso   1.00
Br1325 Br    0.38174   0.88907   0.94273   0.00000  Uiso   1.00
Br1326 Br    0.61827   0.77762   0.55727   0.00000  Uiso   1.00
C1327  C     0.75332   0.83329   0.75018   0.00000  Uiso   1.00
C1328  C     0.91335   0.83338   0.74982   0.00000  Uiso   1.00
C1329  C     0.76307   0.86657   0.52001   0.00000  Uiso   1.00
C1330  C     0.90361   0.80012   0.97999   0.00000  Uiso   1.00
C1331  C     0.68783   0.79404   0.73760   0.00000  Uiso   1.00
C1332  C     0.97884   0.87262   0.76243   0.00000  Uiso   1.00
C1333  C     0.97843   0.79423   0.73703   0.00000  Uiso   1.00
C1334  C     0.68823   0.87243   0.76300   0.00000  Uiso   1.00
C1335  C     0.95748   0.83348   0.74955   0.00000  Uiso   1.00
C1336  C     0.70918   0.83318   0.75047   0.00000  Uiso   1.00
C1337  C     0.86599   0.69058   0.76820   0.00000  Uiso   1.00
C1338  C     0.80068   0.97608   0.73179   0.00000  Uiso   1.00
C1339  C     0.80070   0.69067   0.73171   0.00000  Uiso   1.00
C1340  C     0.86597   0.97599   0.76829   0.00000  Uiso   1.00
C1341  C     0.83208   0.83349   0.66358   0.00000  Uiso   1.00
C1342  C     0.83459   0.83318   0.83642   0.00000  Uiso   1.00
C1343  C     0.87038   0.81630   0.90775   0.00000  Uiso   1.00
C1344  C     0.79629   0.85037   0.59225   0.00000  Uiso   1.00
C1345  C     0.83554   0.83282   0.88408   0.00000  Uiso   1.00
C1346  C     0.83114   0.83385   0.61592   0.00000  Uiso   1.00
C1347  C     0.80070   0.84958   0.90547   0.00000  Uiso   1.00
C1348  C     0.86598   0.81711   0.59453   0.00000  Uiso   1.00
C1349  C     0.79917   0.84989   0.95175   0.00000  Uiso   1.00
C1350  C     0.86752   0.81680   0.54825   0.00000  Uiso   1.00
C1351  C     0.83385   0.83325   0.97659   0.00000  Uiso   1.00
C1352  C     0.83284   0.83345   0.52341   0.00000  Uiso   1.00
C1353  C     0.86957   0.81643   0.95464   0.00000  Uiso   1.00
C1354  C     0.79711   0.85026   0.54536   0.00000  Uiso   1.00
C1355  C     0.76379   0.86638   0.97371   0.00000  Uiso   1.00
C1356  C     0.90289   0.80031   0.52629   0.00000  Uiso   1.00
H1357  H     0.77476   0.86192   0.88533   0.00000  Uiso   1.00
H1358  H     0.89192   0.80477   0.61468   0.00000  Uiso   1.00
H1359  H     0.73547   0.87974   0.53584   0.00000  Uiso   1.00
H1360  H     0.93122   0.78695   0.96416   0.00000  Uiso   1.00
H1361  H     0.70401   0.76369   0.72743   0.00000  Uiso   1.00
H1362  H     0.96265   0.90297   0.77259   0.00000  Uiso   1.00
H1363  H     0.96192   0.76392   0.72672   0.00000  Uiso   1.00
H1364  H     0.70475   0.90274   0.77331   0.00000  Uiso   1.00
H1365  H     0.89216   0.70865   0.78257   0.00000  Uiso   1.00
H1366  H     0.77451   0.95802   0.71741   0.00000  Uiso   1.00
H1367  H     0.77460   0.70879   0.71700   0.00000  Uiso   1.00
H1368  H     0.89207   0.95788   0.78300   0.00000  Uiso   1.00
N1369  N     0.83333   0.95240   0.75000   0.00000  Uiso   1.00
N1370  N     0.83333   0.71427   0.75000   0.00000  Uiso   1.00
O1371  O     0.77226   0.87154   0.74999   0.00000  Uiso   1.00
O1372  O     0.89441   0.79513   0.75001   0.00000  Uiso   1.00
O1373  O     0.89441   0.87154   0.75001   0.00000  Uiso   1.00
O1374  O     0.77226   0.79513   0.74999   0.00000  Uiso   1.00
O1375  O     0.83333   0.87156   0.68393   0.00000  Uiso   1.00
O1376  O     0.83334   0.79511   0.81607   0.00000  Uiso   1.00
O1377  O     0.83334   0.87156   0.81607   0.00000  Uiso   1.00
O1378  O     0.83333   0.79511   0.68393   0.00000  Uiso   1.00
Zn1379 Zn    0.83333   0.88437   0.75000   0.00000  Uiso   1.00
Zn1380 Zn    0.83333   0.78229   0.75000   0.00000  Uiso   1.00
C1381  C     0.90798   0.80073   0.88374   0.00000  Uiso   1.00
C1382  C     0.91123   0.75551   0.87017   0.00000  Uiso   1.00
C1383  C     0.94838   0.73976   0.85179   0.00000  Uiso   1.00
C1384  C     0.98246   0.76895   0.84714   0.00000  Uiso   1.00
C1385  C     0.97931   0.81407   0.86042   0.00000  Uiso   1.00
C1386  C     0.94212   0.83006   0.87848   0.00000  Uiso   1.00
H1387  H     0.88531   0.73237   0.87460   0.00000  Uiso   1.00
H1388  H     0.95094   0.70479   0.84162   0.00000  Uiso   1.00
H1389  H     0.67796   0.75664   0.83322   0.00000  Uiso   1.00
H1390  H     0.67242   0.83660   0.85688   0.00000  Uiso   1.00
H1391  H     0.94022   0.86488   0.88936   0.00000  Uiso   1.00
C1392  C     0.75868   0.86589   0.61626   0.00000  Uiso   1.00
C1393  C     0.72455   0.83652   0.62149   0.00000  Uiso   1.00
C1394  C     0.68734   0.85246   0.63954   0.00000  Uiso   1.00
C1395  C     0.68415   0.89756   0.65285   0.00000  Uiso   1.00
C1396  C     0.71820   0.92679   0.64824   0.00000  Uiso   1.00
C1397  C     0.75538   0.91110   0.62986   0.00000  Uiso   1.00
H1398  H     0.72650   0.80171   0.61059   0.00000  Uiso   1.00
H1399  H     0.99425   0.82990   0.64307   0.00000  Uiso   1.00
H1400  H     0.98862   0.90984   0.66677   0.00000  Uiso   1.00
H1401  H     0.71561   0.96175   0.65844   0.00000  Uiso   1.00
H1402  H     0.78128   0.93426   0.62545   0.00000  Uiso   1.00
Br1403 Br    0.71508   0.88907   0.94273   0.00000  Uiso   1.00
Br1404 Br    0.95161   0.77762   0.55727   0.00000  Uiso   1.00
loop_
_geom_bond_atom_site_label_1
_geom_bond_atom_site_label_2
_geom_bond_distance
_geom_bond_site_symmetry_2
_ccdc_geom_bond_type
C1     C10     1.414   .     S
C1     O48     1.281   .     A
C1     O45     1.282   .     A
C2     O46     1.282   .     A
C2     O47     1.281   .     A
C2     C9      1.414   .     S
C3     C28     1.405   .     A
C3     H33     1.082   .     S
C3     C731    1.385   1_554 S
C4     H34     1.082   .     S
C4     C27     1.405   .     A
C4     C732    1.385   .     S
C5     C10     1.396   .     A
C5     H35     1.084   .     S
C5     C163    1.369   1_455 S
C6     C9      1.396   .     A
C6     H36     1.084   .     S
C6     C86     1.369   .     S
C7     H37     1.084   .     S
C7     C9      1.396   .     A
C7     C83     1.369   .     S
C8     H38     1.084   .     S
C8     C10     1.396   .     A
C8     C162    1.369   1_455 S
C11    N44     1.366   .     A
C11    H39     1.080   .     S
C11    C482    1.416   1_545 S
C12    N43     1.366   .     A
C12    H40     1.080   .     S
C12    C247    1.416   .     S
C13    H41     1.082   .     S
C13    N44     1.366   .     A
C13    C480    1.416   1_545 S
C14    H42     1.082   .     S
C14    N43     1.366   .     A
C14    C245    1.416   .     S
C15    C20     1.425   .     S
C15    O52     1.284   .     A
C15    O49     1.282   .     A
C16    O51     1.284   .     A
C16    O50     1.282   .     A
C16    C19     1.425   .     S
C17    C55     1.485   .     S
C17    C27     1.402   .     A
C17    C19     1.402   .     A
C18    C28     1.402   .     A
C18    C66     1.485   .     S
C18    C20     1.402   .     A
C19    C21     1.387   .     A
C20    C22     1.387   .     A
C21    H31     1.083   .     S
C21    C23     1.385   .     A
C22    H32     1.083   .     S
C22    C24     1.385   .     A
C23    C29     1.406   .     A
C23    C25     1.417   .     A
C24    C26     1.417   .     A
C24    C30     1.406   .     A
C25    C27     1.418   .     A
C25    C728    1.401   .     S
C26    C28     1.418   .     A
C26    C727    1.401   1_554 S
C29    Br77    1.925   .     S
C29    C705    1.385   .     S
C30    Br78    1.925   .     S
C30    C706    1.385   1_554 S
N43    Zn53    2.010   .     S
N44    Zn54    2.010   .     S
O45    Zn53    1.992   .     S
O46    Zn54    1.992   .     S
O47    Zn53    1.994   .     S
O48    Zn54    1.994   .     S
O49    Zn53    2.014   .     S
O50    Zn54    2.014   .     S
O51    Zn53    2.009   .     S
O52    Zn54    2.009   .     S
C55    C56     1.403   .     A
C55    C60     1.404   .     A
C56    C57     1.399   .     A
C56    H61     1.083   .     S
C57    H62     1.082   .     S
C57    C58     1.397   .     A
C58    C59     1.397   .     A
C58    H141    1.082   .     S
C59    C60     1.398   .     A
C59    H142    1.082   .     S
C60    H65     1.083   .     S
H63    C214    1.082   1_455 S
H64    C215    1.082   1_455 S
C66    C67     1.404   .     A
C66    C71     1.403   .     A
C67    H72     1.083   .     S
C67    C68     1.398   .     A
C68    C69     1.397   .     A
C68    H229    1.082   1_455 S
C69    C70     1.397   .     A
C69    H230    1.082   1_455 S
C70    C71     1.399   .     A
C70    H75     1.082   .     S
C71    H76     1.083   .     S
H73    C146    1.082   .     S
H74    C147    1.082   .     S
C79    C88     1.414   .     S
C79    O126    1.281   .     A
C79    O123    1.282   .     A
C80    O124    1.282   .     A
C80    O125    1.281   .     A
C80    C87     1.414   .     S
C81    C106    1.405   .     A
C81    H111    1.082   .     S
C81    C809    1.385   1_554 S
C82    H112    1.082   .     S
C82    C105    1.405   .     A
C82    C810    1.385   .     S
C83    C88     1.396   .     A
C83    H113    1.084   .     S
C84    C87     1.396   .     A
C84    H114    1.084   .     S
C84    C164    1.369   .     S
C85    H115    1.084   .     S
C85    C87     1.396   .     A
C85    C161    1.369   .     S
C86    H116    1.084   .     S
C86    C88     1.396   .     A
C89    N122    1.366   .     A
C89    H117    1.080   .     S
C89    C560    1.416   1_545 S
C90    N121    1.366   .     A
C90    H118    1.080   .     S
C90    C325    1.416   .     S
C91    H119    1.082   .     S
C91    N122    1.366   .     A
C91    C558    1.416   1_545 S
C92    H120    1.082   .     S
C92    N121    1.366   .     A
C92    C323    1.416   .     S
C93    C98     1.425   .     S
C93    O130    1.284   .     A
C93    O127    1.282   .     A
C94    O129    1.284   .     A
C94    O128    1.282   .     A
C94    C97     1.425   .     S
C95    C133    1.485   .     S
C95    C105    1.402   .     A
C95    C97     1.402   .     A
C96    C106    1.402   .     A
C96    C144    1.485   .     S
C96    C98     1.402   .     A
C97    C99     1.387   .     A
C98    C100    1.387   .     A
C99    H109    1.083   .     S
C99    C101    1.385   .     A
C100   H110    1.083   .     S
C100   C102    1.385   .     A
C101   C107    1.406   .     A
C101   C103    1.417   .     A
C102   C104    1.417   .     A
C102   C108    1.406   .     A
C103   C105    1.418   .     A
C103   C806    1.401   .     S
C104   C106    1.418   .     A
C104   C805    1.401   1_554 S
C107   Br155   1.925   .     S
C107   C783    1.385   .     S
C108   Br156   1.925   .     S
C108   C784    1.385   1_554 S
N121   Zn131   2.010   .     S
N122   Zn132   2.010   .     S
O123   Zn131   1.992   .     S
O124   Zn132   1.992   .     S
O125   Zn131   1.994   .     S
O126   Zn132   1.994   .     S
O127   Zn131   2.014   .     S
O128   Zn132   2.014   .     S
O129   Zn131   2.009   .     S
O130   Zn132   2.009   .     S
C133   C134    1.403   .     A
C133   C138    1.404   .     A
C134   C135    1.399   .     A
C134   H139    1.083   .     S
C135   H140    1.082   .     S
C135   C136    1.397   .     A
C136   C137    1.397   .     A
C136   H219    1.082   .     S
C137   C138    1.398   .     A
C137   H220    1.082   .     S
C138   H143    1.083   .     S
C144   C145    1.404   .     A
C144   C149    1.403   .     A
C145   H150    1.083   .     S
C145   C146    1.398   .     A
C146   C147    1.397   .     A
C147   C148    1.397   .     A
C148   C149    1.399   .     A
C148   H153    1.082   .     S
C149   H154    1.083   .     S
H151   C224    1.082   .     S
H152   C225    1.082   .     S
C157   C166    1.414   .     S
C157   O204    1.281   .     A
C157   O201    1.282   .     A
C158   O202    1.282   .     A
C158   O203    1.281   .     A
C158   C165    1.414   .     S
C159   C184    1.405   .     A
C159   H189    1.082   .     S
C159   C887    1.385   1_554 S
C160   H190    1.082   .     S
C160   C183    1.405   .     A
C160   C888    1.385   .     S
C161   C166    1.396   .     A
C161   H191    1.084   .     S
C162   C165    1.396   .     A
C162   H192    1.084   .     S
C162   C8      1.369   1_655 S
C163   H193    1.084   .     S
C163   C165    1.396   .     A
C163   C5      1.369   1_655 S
C164   H194    1.084   .     S
C164   C166    1.396   .     A
C167   N200    1.366   .     A
C167   H195    1.080   .     S
C167   C638    1.416   1_545 S
C168   N199    1.366   .     A
C168   H196    1.080   .     S
C168   C403    1.416   .     S
C169   H197    1.082   .     S
C169   N200    1.366   .     A
C169   C636    1.416   1_545 S
C170   H198    1.082   .     S
C170   N199    1.366   .     A
C170   C401    1.416   .     S
C171   C176    1.425   .     S
C171   O208    1.284   .     A
C171   O205    1.282   .     A
C172   O207    1.284   .     A
C172   O206    1.282   .     A
C172   C175    1.425   .     S
C173   C211    1.485   .     S
C173   C183    1.402   .     A
C173   C175    1.402   .     A
C174   C184    1.402   .     A
C174   C222    1.485   .     S
C174   C176    1.402   .     A
C175   C177    1.387   .     A
C176   C178    1.387   .     A
C177   H187    1.083   .     S
C177   C179    1.385   .     A
C178   H188    1.083   .     S
C178   C180    1.385   .     A
C179   C185    1.406   .     A
C179   C181    1.417   .     A
C180   C182    1.417   .     A
C180   C186    1.406   .     A
C181   C183    1.418   .     A
C181   C884    1.401   .     S
C182   C184    1.418   .     A
C182   C883    1.401   1_554 S
C185   Br233   1.925   .     S
C185   C861    1.385   .     S
C186   Br234   1.925   .     S
C186   C862    1.385   1_554 S
N199   Zn209   2.010   .     S
N200   Zn210   2.010   .     S
O201   Zn209   1.992   .     S
O202   Zn210   1.992   .     S
O203   Zn209   1.994   .     S
O204   Zn210   1.994   .     S
O205   Zn209   2.014   .     S
O206   Zn210   2.014   .     S
O207   Zn209   2.009   .     S
O208   Zn210   2.009   .     S
C211   C212    1.403   .     A
C211   C216    1.404   .     A
C212   C213    1.399   .     A
C212   H217    1.083   .     S
C213   H218    1.082   .     S
C213   C214    1.397   .     A
C214   C215    1.397   .     A
C214   H63     1.082   1_655 S
C215   C216    1.398   .     A
C215   H64     1.082   1_655 S
C216   H221    1.083   .     S
C222   C223    1.404   .     A
C222   C227    1.403   .     A
C223   H228    1.083   .     S
C223   C224    1.398   .     A
C224   C225    1.397   .     A
C225   C226    1.397   .     A
C226   C227    1.399   .     A
C226   H231    1.082   .     S
C227   H232    1.083   .     S
H229   C68     1.082   1_655 S
H230   C69     1.082   1_655 S
C235   C244    1.414   .     S
C235   O282    1.281   .     A
C235   O279    1.282   .     A
C236   O280    1.282   .     A
C236   O281    1.281   .     A
C236   C243    1.414   .     S
C237   C262    1.405   .     A
C237   H267    1.082   .     S
C237   C965    1.385   1_554 S
C238   H268    1.082   .     S
C238   C261    1.405   .     A
C238   C966    1.385   .     S
C239   C244    1.396   .     A
C239   H269    1.084   .     S
C239   C397    1.369   1_455 S
C240   C243    1.396   .     A
C240   H270    1.084   .     S
C240   C320    1.369   .     S
C241   H271    1.084   .     S
C241   C243    1.396   .     A
C241   C317    1.369   .     S
C242   H272    1.084   .     S
C242   C244    1.396   .     A
C242   C396    1.369   1_455 S
C245   N278    1.366   .     A
C245   H273    1.080   .     S
C246   N277    1.366   .     A
C246   H274    1.080   .     S
C246   C481    1.416   .     S
C247   H275    1.082   .     S
C247   N278    1.366   .     A
C248   H276    1.082   .     S
C248   N277    1.366   .     A
C248   C479    1.416   .     S
C249   C254    1.425   .     S
C249   O286    1.284   .     A
C249   O283    1.282   .     A
C250   O285    1.284   .     A
C250   O284    1.282   .     A
C250   C253    1.425   .     S
C251   C289    1.485   .     S
C251   C261    1.402   .     A
C251   C253    1.402   .     A
C252   C262    1.402   .     A
C252   C300    1.485   .     S
C252   C254    1.402   .     A
C253   C255    1.387   .     A
C254   C256    1.387   .     A
C255   H265    1.083   .     S
C255   C257    1.385   .     A
C256   H266    1.083   .     S
C256   C258    1.385   .     A
C257   C263    1.406   .     A
C257   C259    1.417   .     A
C258   C260    1.417   .     A
C258   C264    1.406   .     A
C259   C261    1.418   .     A
C259   C962    1.401   .     S
C260   C262    1.418   .     A
C260   C961    1.401   1_554 S
C263   Br311   1.925   .     S
C263   C939    1.385   .     S
C264   Br312   1.925   .     S
C264   C940    1.385   1_554 S
N277   Zn287   2.010   .     S
N278   Zn288   2.010   .     S
O279   Zn287   1.992   .     S
O280   Zn288   1.992   .     S
O281   Zn287   1.994   .     S
O282   Zn288   1.994   .     S
O283   Zn287   2.014   .     S
O284   Zn288   2.014   .     S
O285   Zn287   2.009   .     S
O286   Zn288   2.009   .     S
C289   C290    1.403   .     A
C289   C294    1.404   .     A
C290   C291    1.399   .     A
C290   H295    1.083   .     S
C291   H296    1.082   .     S
C291   C292    1.397   .     A
C292   C293    1.397   .     A
C292   H375    1.082   .     S
C293   C294    1.398   .     A
C293   H376    1.082   .     S
C294   H299    1.083   .     S
H297   C448    1.082   1_455 S
H298   C449    1.082   1_455 S
C300   C301    1.404   .     A
C300   C305    1.403   .     A
C301   H306    1.083   .     S
C301   C302    1.398   .     A
C302   C303    1.397   .     A
C302   H463    1.082   1_455 S
C303   C304    1.397   .     A
C303   H464    1.082   1_455 S
C304   C305    1.399   .     A
C304   H309    1.082   .     S
C305   H310    1.083   .     S
H307   C380    1.082   .     S
H308   C381    1.082   .     S
C313   C322    1.414   .     S
C313   O360    1.281   .     A
C313   O357    1.282   .     A
C314   O358    1.282   .     A
C314   O359    1.281   .     A
C314   C321    1.414   .     S
C315   C340    1.405   .     A
C315   H345    1.082   .     S
C315   C1043   1.385   1_554 S
C316   H346    1.082   .     S
C316   C339    1.405   .     A
C316   C1044   1.385   .     S
C317   C322    1.396   .     A
C317   H347    1.084   .     S
C318   C321    1.396   .     A
C318   H348    1.084   .     S
C318   C398    1.369   .     S
C319   H349    1.084   .     S
C319   C321    1.396   .     A
C319   C395    1.369   .     S
C320   H350    1.084   .     S
C320   C322    1.396   .     A
C323   N356    1.366   .     A
C323   H351    1.080   .     S
C324   N355    1.366   .     A
C324   H352    1.080   .     S
C324   C559    1.416   .     S
C325   H353    1.082   .     S
C325   N356    1.366   .     A
C326   H354    1.082   .     S
C326   N355    1.366   .     A
C326   C557    1.416   .     S
C327   C332    1.425   .     S
C327   O364    1.284   .     A
C327   O361    1.282   .     A
C328   O363    1.284   .     A
C328   O362    1.282   .     A
C328   C331    1.425   .     S
C329   C367    1.485   .     S
C329   C339    1.402   .     A
C329   C331    1.402   .     A
C330   C340    1.402   .     A
C330   C378    1.485   .     S
C330   C332    1.402   .     A
C331   C333    1.387   .     A
C332   C334    1.387   .     A
C333   H343    1.083   .     S
C333   C335    1.385   .     A
C334   H344    1.083   .     S
C334   C336    1.385   .     A
C335   C341    1.406   .     A
C335   C337    1.417   .     A
C336   C338    1.417   .     A
C336   C342    1.406   .     A
C337   C339    1.418   .     A
C337   C1040   1.401   .     S
C338   C340    1.418   .     A
C338   C1039   1.401   1_554 S
C341   Br389   1.925   .     S
C341   C1017   1.385   .     S
C342   Br390   1.925   .     S
C342   C1018   1.385   1_554 S
N355   Zn365   2.010   .     S
N356   Zn366   2.010   .     S
O357   Zn365   1.992   .     S
O358   Zn366   1.992   .     S
O359   Zn365   1.994   .     S
O360   Zn366   1.994   .     S
O361   Zn365   2.014   .     S
O362   Zn366   2.014   .     S
O363   Zn365   2.009   .     S
O364   Zn366   2.009   .     S
C367   C368    1.403   .     A
C367   C372    1.404   .     A
C368   C369    1.399   .     A
C368   H373    1.083   .     S
C369   H374    1.082   .     S
C369   C370    1.397   .     A
C370   C371    1.397   .     A
C370   H453    1.082   .     S
C371   C372    1.398   .     A
C371   H454    1.082   .     S
C372   H377    1.083   .     S
C378   C379    1.404   .     A
C378   C383    1.403   .     A
C379   H384    1.083   .     S
C379   C380    1.398   .     A
C380   C381    1.397   .     A
C381   C382    1.397   .     A
C382   C383    1.399   .     A
C382   H387    1.082   .     S
C383   H388    1.083   .     S
H385   C458    1.082   .     S
H386   C459    1.082   .     S
C391   C400    1.414   .     S
C391   O438    1.281   .     A
C391   O435    1.282   .     A
C392   O436    1.282   .     A
C392   O437    1.281   .     A
C392   C399    1.414   .     S
C393   C418    1.405   .     A
C393   H423    1.082   .     S
C393   C1121   1.385   1_554 S
C394   H424    1.082   .     S
C394   C417    1.405   .     A
C394   C1122   1.385   .     S
C395   C400    1.396   .     A
C395   H425    1.084   .     S
C396   C399    1.396   .     A
C396   H426    1.084   .     S
C396   C242    1.369   1_655 S
C397   H427    1.084   .     S
C397   C399    1.396   .     A
C397   C239    1.369   1_655 S
C398   H428    1.084   .     S
C398   C400    1.396   .     A
C401   N434    1.366   .     A
C401   H429    1.080   .     S
C402   N433    1.366   .     A
C402   H430    1.080   .     S
C402   C637    1.416   .     S
C403   H431    1.082   .     S
C403   N434    1.366   .     A
C404   H432    1.082   .     S
C404   N433    1.366   .     A
C404   C635    1.416   .     S
C405   C410    1.425   .     S
C405   O442    1.284   .     A
C405   O439    1.282   .     A
C406   O441    1.284   .     A
C406   O440    1.282   .     A
C406   C409    1.425   .     S
C407   C445    1.485   .     S
C407   C417    1.402   .     A
C407   C409    1.402   .     A
C408   C418    1.402   .     A
C408   C456    1.485   .     S
C408   C410    1.402   .     A
C409   C411    1.387   .     A
C410   C412    1.387   .     A
C411   H421    1.083   .     S
C411   C413    1.385   .     A
C412   H422    1.083   .     S
C412   C414    1.385   .     A
C413   C419    1.406   .     A
C413   C415    1.417   .     A
C414   C416    1.417   .     A
C414   C420    1.406   .     A
C415   C417    1.418   .     A
C415   C1118   1.401   .     S
C416   C418    1.418   .     A
C416   C1117   1.401   1_554 S
C419   Br467   1.925   .     S
C419   C1095   1.385   .     S
C420   Br468   1.925   .     S
C420   C1096   1.385   1_554 S
N433   Zn443   2.010   .     S
N434   Zn444   2.010   .     S
O435   Zn443   1.992   .     S
O436   Zn444   1.992   .     S
O437   Zn443   1.994   .     S
O438   Zn444   1.994   .     S
O439   Zn443   2.014   .     S
O440   Zn444   2.014   .     S
O441   Zn443   2.009   .     S
O442   Zn444   2.009   .     S
C445   C446    1.403   .     A
C445   C450    1.404   .     A
C446   C447    1.399   .     A
C446   H451    1.083   .     S
C447   H452    1.082   .     S
C447   C448    1.397   .     A
C448   C449    1.397   .     A
C448   H297    1.082   1_655 S
C449   C450    1.398   .     A
C449   H298    1.082   1_655 S
C450   H455    1.083   .     S
C456   C457    1.404   .     A
C456   C461    1.403   .     A
C457   H462    1.083   .     S
C457   C458    1.398   .     A
C458   C459    1.397   .     A
C459   C460    1.397   .     A
C460   C461    1.399   .     A
C460   H465    1.082   .     S
C461   H466    1.083   .     S
H463   C302    1.082   1_655 S
H464   C303    1.082   1_655 S
C469   C478    1.414   .     S
C469   O516    1.281   .     A
C469   O513    1.282   .     A
C470   O514    1.282   .     A
C470   O515    1.281   .     A
C470   C477    1.414   .     S
C471   C496    1.405   .     A
C471   H501    1.082   .     S
C471   C1199   1.385   1_554 S
C472   H502    1.082   .     S
C472   C495    1.405   .     A
C472   C1200   1.385   .     S
C473   C478    1.396   .     A
C473   H503    1.084   .     S
C473   C631    1.369   1_455 S
C474   C477    1.396   .     A
C474   H504    1.084   .     S
C474   C554    1.369   .     S
C475   H505    1.084   .     S
C475   C477    1.396   .     A
C475   C551    1.369   .     S
C476   H506    1.084   .     S
C476   C478    1.396   .     A
C476   C630    1.369   1_455 S
C479   N512    1.366   .     A
C479   H507    1.080   .     S
C480   N511    1.366   .     A
C480   H508    1.080   .     S
C480   C13     1.416   1_565 S
C481   H509    1.082   .     S
C481   N512    1.366   .     A
C482   H510    1.082   .     S
C482   N511    1.366   .     A
C482   C11     1.416   1_565 S
C483   C488    1.425   .     S
C483   O520    1.284   .     A
C483   O517    1.282   .     A
C484   O519    1.284   .     A
C484   O518    1.282   .     A
C484   C487    1.425   .     S
C485   C523    1.485   .     S
C485   C495    1.402   .     A
C485   C487    1.402   .     A
C486   C496    1.402   .     A
C486   C534    1.485   .     S
C486   C488    1.402   .     A
C487   C489    1.387   .     A
C488   C490    1.387   .     A
C489   H499    1.083   .     S
C489   C491    1.385   .     A
C490   H500    1.083   .     S
C490   C492    1.385   .     A
C491   C497    1.406   .     A
C491   C493    1.417   .     A
C492   C494    1.417   .     A
C492   C498    1.406   .     A
C493   C495    1.418   .     A
C493   C1196   1.401   .     S
C494   C496    1.418   .     A
C494   C1195   1.401   1_554 S
C497   Br545   1.925   .     S
C497   C1173   1.385   .     S
C498   Br546   1.925   .     S
C498   C1174   1.385   1_554 S
N511   Zn521   2.010   .     S
N512   Zn522   2.010   .     S
O513   Zn521   1.992   .     S
O514   Zn522   1.992   .     S
O515   Zn521   1.994   .     S
O516   Zn522   1.994   .     S
O517   Zn521   2.014   .     S
O518   Zn522   2.014   .     S
O519   Zn521   2.009   .     S
O520   Zn522   2.009   .     S
C523   C524    1.403   .     A
C523   C528    1.404   .     A
C524   C525    1.399   .     A
C524   H529    1.083   .     S
C525   H530    1.082   .     S
C525   C526    1.397   .     A
C526   C527    1.397   .     A
C526   H609    1.082   .     S
C527   C528    1.398   .     A
C527   H610    1.082   .     S
C528   H533    1.083   .     S
H531   C682    1.082   1_455 S
H532   C683    1.082   1_455 S
C534   C535    1.404   .     A
C534   C539    1.403   .     A
C535   H540    1.083   .     S
C535   C536    1.398   .     A
C536   C537    1.397   .     A
C536   H697    1.082   1_455 S
C537   C538    1.397   .     A
C537   H698    1.082   1_455 S
C538   C539    1.399   .     A
C538   H543    1.082   .     S
C539   H544    1.083   .     S
H541   C614    1.082   .     S
H542   C615    1.082   .     S
C547   C556    1.414   .     S
C547   O594    1.281   .     A
C547   O591    1.282   .     A
C548   O592    1.282   .     A
C548   O593    1.281   .     A
C548   C555    1.414   .     S
C549   C574    1.405   .     A
C549   H579    1.082   .     S
C549   C1277   1.385   1_554 S
C550   H580    1.082   .     S
C550   C573    1.405   .     A
C550   C1278   1.385   .     S
C551   C556    1.396   .     A
C551   H581    1.084   .     S
C552   C555    1.396   .     A
C552   H582    1.084   .     S
C552   C632    1.369   .     S
C553   H583    1.084   .     S
C553   C555    1.396   .     A
C553   C629    1.369   .     S
C554   H584    1.084   .     S
C554   C556    1.396   .     A
C557   N590    1.366   .     A
C557   H585    1.080   .     S
C558   N589    1.366   .     A
C558   H586    1.080   .     S
C558   C91     1.416   1_565 S
C559   H587    1.082   .     S
C559   N590    1.366   .     A
C560   H588    1.082   .     S
C560   N589    1.366   .     A
C560   C89     1.416   1_565 S
C561   C566    1.425   .     S
C561   O598    1.284   .     A
C561   O595    1.282   .     A
C562   O597    1.284   .     A
C562   O596    1.282   .     A
C562   C565    1.425   .     S
C563   C601    1.485   .     S
C563   C573    1.402   .     A
C563   C565    1.402   .     A
C564   C574    1.402   .     A
C564   C612    1.485   .     S
C564   C566    1.402   .     A
C565   C567    1.387   .     A
C566   C568    1.387   .     A
C567   H577    1.083   .     S
C567   C569    1.385   .     A
C568   H578    1.083   .     S
C568   C570    1.385   .     A
C569   C575    1.406   .     A
C569   C571    1.417   .     A
C570   C572    1.417   .     A
C570   C576    1.406   .     A
C571   C573    1.418   .     A
C571   C1274   1.401   .     S
C572   C574    1.418   .     A
C572   C1273   1.401   1_554 S
C575   Br623   1.925   .     S
C575   C1251   1.385   .     S
C576   Br624   1.925   .     S
C576   C1252   1.385   1_554 S
N589   Zn599   2.010   .     S
N590   Zn600   2.010   .     S
O591   Zn599   1.992   .     S
O592   Zn600   1.992   .     S
O593   Zn599   1.994   .     S
O594   Zn600   1.994   .     S
O595   Zn599   2.014   .     S
O596   Zn600   2.014   .     S
O597   Zn599   2.009   .     S
O598   Zn600   2.009   .     S
C601   C602    1.403   .     A
C601   C606    1.404   .     A
C602   C603    1.399   .     A
C602   H607    1.083   .     S
C603   H608    1.082   .     S
C603   C604    1.397   .     A
C604   C605    1.397   .     A
C604   H687    1.082   .     S
C605   C606    1.398   .     A
C605   H688    1.082   .     S
C606   H611    1.083   .     S
C612   C613    1.404   .     A
C612   C617    1.403   .     A
C613   H618    1.083   .     S
C613   C614    1.398   .     A
C614   C615    1.397   .     A
C615   C616    1.397   .     A
C616   C617    1.399   .     A
C616   H621    1.082   .     S
C617   H622    1.083   .     S
H619   C692    1.082   .     S
H620   C693    1.082   .     S
C625   C634    1.414   .     S
C625   O672    1.281   .     A
C625   O669    1.282   .     A
C626   O670    1.282   .     A
C626   O671    1.281   .     A
C626   C633    1.414   .     S
C627   C652    1.405   .     A
C627   H657    1.082   .     S
C627   C1355   1.385   1_554 S
C628   H658    1.082   .     S
C628   C651    1.405   .     A
C628   C1356   1.385   .     S
C629   C634    1.396   .     A
C629   H659    1.084   .     S
C630   C633    1.396   .     A
C630   H660    1.084   .     S
C630   C476    1.369   1_655 S
C631   H661    1.084   .     S
C631   C633    1.396   .     A
C631   C473    1.369   1_655 S
C632   H662    1.084   .     S
C632   C634    1.396   .     A
C635   N668    1.366   .     A
C635   H663    1.080   .     S
C636   N667    1.366   .     A
C636   H664    1.080   .     S
C636   C169    1.416   1_565 S
C637   H665    1.082   .     S
C637   N668    1.366   .     A
C638   H666    1.082   .     S
C638   N667    1.366   .     A
C638   C167    1.416   1_565 S
C639   C644    1.425   .     S
C639   O676    1.284   .     A
C639   O673    1.282   .     A
C640   O675    1.284   .     A
C640   O674    1.282   .     A
C640   C643    1.425   .     S
C641   C679    1.485   .     S
C641   C651    1.402   .     A
C641   C643    1.402   .     A
C642   C652    1.402   .     A
C642   C690    1.485   .     S
C642   C644    1.402   .     A
C643   C645    1.387   .     A
C644   C646    1.387   .     A
C645   H655    1.083   .     S
C645   C647    1.385   .     A
C646   H656    1.083   .     S
C646   C648    1.385   .     A
C647   C653    1.406   .     A
C647   C649    1.417   .     A
C648   C650    1.417   .     A
C648   C654    1.406   .     A
C649   C651    1.418   .     A
C649   C1352   1.401   .     S
C650   C652    1.418   .     A
C650   C1351   1.401   1_554 S
C653   Br701   1.925   .     S
C653   C1329   1.385   .     S
C654   Br702   1.925   .     S
C654   C1330   1.385   1_554 S
N667   Zn677   2.010   .     S
N668   Zn678   2.010   .     S
O669   Zn677   1.992   .     S
O670   Zn678   1.992   .     S
O671   Zn677   1.994   .     S
O672   Zn678   1.994   .     S
O673   Zn677   2.014   .     S
O674   Zn678   2.014   .     S
O675   Zn677   2.009   .     S
O676   Zn678   2.009   .     S
C679   C680    1.403   .     A
C679   C684    1.404   .     A
C680   C681    1.399   .     A
C680   H685    1.083   .     S
C681   H686    1.082   .     S
C681   C682    1.397   .     A
C682   C683    1.397   .     A
C682   H531    1.082   1_655 S
C683   C684    1.398   .     A
C683   H532    1.082   1_655 S
C684   H689    1.083   .     S
C690   C691    1.404   .     A
C690   C695    1.403   .     A
C691   H696    1.083   .     S
C691   C692    1.398   .     A
C692   C693    1.397   .     A
C693   C694    1.397   .     A
C694   C695    1.399   .     A
C694   H699    1.082   .     S
C695   H700    1.083   .     S
H697   C536    1.082   1_655 S
H698   C537    1.082   1_655 S
C703   C712    1.414   .     S
C703   O750    1.281   .     A
C703   O747    1.282   .     A
C704   O748    1.282   .     A
C704   O749    1.281   .     A
C704   C711    1.414   .     S
C705   C730    1.405   .     A
C705   H735    1.082   .     S
C706   H736    1.082   .     S
C706   C729    1.405   .     A
C706   C30     1.385   1_556 S
C707   C712    1.396   .     A
C707   H737    1.084   .     S
C707   C865    1.369   1_455 S
C708   C711    1.396   .     A
C708   H738    1.084   .     S
C708   C788    1.369   .     S
C709   H739    1.084   .     S
C709   C711    1.396   .     A
C709   C785    1.369   .     S
C710   H740    1.084   .     S
C710   C712    1.396   .     A
C710   C864    1.369   1_455 S
C713   N746    1.366   .     A
C713   H741    1.080   .     S
C713   C1184   1.416   1_545 S
C714   N745    1.366   .     A
C714   H742    1.080   .     S
C714   C949    1.416   .     S
C715   H743    1.082   .     S
C715   N746    1.366   .     A
C715   C1182   1.416   1_545 S
C716   H744    1.082   .     S
C716   N745    1.366   .     A
C716   C947    1.416   .     S
C717   C722    1.425   .     S
C717   O754    1.284   .     A
C717   O751    1.282   .     A
C718   O753    1.284   .     A
C718   O752    1.282   .     A
C718   C721    1.425   .     S
C719   C757    1.485   .     S
C719   C729    1.402   .     A
C719   C721    1.402   .     A
C720   C730    1.402   .     A
C720   C768    1.485   .     S
C720   C722    1.402   .     A
C721   C723    1.387   .     A
C722   C724    1.387   .     A
C723   H733    1.083   .     S
C723   C725    1.385   .     A
C724   H734    1.083   .     S
C724   C726    1.385   .     A
C725   C731    1.406   .     A
C725   C727    1.417   .     A
C726   C728    1.417   .     A
C726   C732    1.406   .     A
C727   C729    1.418   .     A
C727   C26     1.401   1_556 S
C728   C730    1.418   .     A
C731   Br779   1.925   .     S
C731   C3      1.385   1_556 S
C732   Br780   1.925   .     S
N745   Zn755   2.010   .     S
N746   Zn756   2.010   .     S
O747   Zn755   1.992   .     S
O748   Zn756   1.992   .     S
O749   Zn755   1.994   .     S
O750   Zn756   1.994   .     S
O751   Zn755   2.014   .     S
O752   Zn756   2.014   .     S
O753   Zn755   2.009   .     S
O754   Zn756   2.009   .     S
C757   C758    1.403   .     A
C757   C762    1.404   .     A
C758   C759    1.399   .     A
C758   H763    1.083   .     S
C759   H764    1.082   .     S
C759   C760    1.397   .     A
C760   C761    1.397   .     A
C760   H843    1.082   .     S
C761   C762    1.398   .     A
C761   H844    1.082   .     S
C762   H767    1.083   .     S
H765   C916    1.082   1_455 S
H766   C917    1.082   1_455 S
C768   C769    1.404   .     A
C768   C773    1.403   .     A
C769   H774    1.083   .     S
C769   C770    1.398   .     A
C770   C771    1.397   .     A
C770   H931    1.082   1_455 S
C771   C772    1.397   .     A
C771   H932    1.082   1_455 S
C772   C773    1.399   .     A
C772   H777    1.082   .     S
C773   H778    1.083   .     S
H775   C848    1.082   .     S
H776   C849    1.082   .     S
C781   C790    1.414   .     S
C781   O828    1.281   .     A
C781   O825    1.282   .     A
C782   O826    1.282   .     A
C782   O827    1.281   .     A
C782   C789    1.414   .     S
C783   C808    1.405   .     A
C783   H813    1.082   .     S
C784   H814    1.082   .     S
C784   C807    1.405   .     A
C784   C108    1.385   1_556 S
C785   C790    1.396   .     A
C785   H815    1.084   .     S
C786   C789    1.396   .     A
C786   H816    1.084   .     S
C786   C866    1.369   .     S
C787   H817    1.084   .     S
C787   C789    1.396   .     A
C787   C863    1.369   .     S
C788   H818    1.084   .     S
C788   C790    1.396   .     A
C791   N824    1.366   .     A
C791   H819    1.080   .     S
C791   C1262   1.416   1_545 S
C792   N823    1.366   .     A
C792   H820    1.080   .     S
C792   C1027   1.416   .     S
C793   H821    1.082   .     S
C793   N824    1.366   .     A
C793   C1260   1.416   1_545 S
C794   H822    1.082   .     S
C794   N823    1.366   .     A
C794   C1025   1.416   .     S
C795   C800    1.425   .     S
C795   O832    1.284   .     A
C795   O829    1.282   .     A
C796   O831    1.284   .     A
C796   O830    1.282   .     A
C796   C799    1.425   .     S
C797   C835    1.485   .     S
C797   C807    1.402   .     A
C797   C799    1.402   .     A
C798   C808    1.402   .     A
C798   C846    1.485   .     S
C798   C800    1.402   .     A
C799   C801    1.387   .     A
C800   C802    1.387   .     A
C801   H811    1.083   .     S
C801   C803    1.385   .     A
C802   H812    1.083   .     S
C802   C804    1.385   .     A
C803   C809    1.406   .     A
C803   C805    1.417   .     A
C804   C806    1.417   .     A
C804   C810    1.406   .     A
C805   C807    1.418   .     A
C805   C104    1.401   1_556 S
C806   C808    1.418   .     A
C809   Br857   1.925   .     S
C809   C81     1.385   1_556 S
C810   Br858   1.925   .     S
N823   Zn833   2.010   .     S
N824   Zn834   2.010   .     S
O825   Zn833   1.992   .     S
O826   Zn834   1.992   .     S
O827   Zn833   1.994   .     S
O828   Zn834   1.994   .     S
O829   Zn833   2.014   .     S
O830   Zn834   2.014   .     S
O831   Zn833   2.009   .     S
O832   Zn834   2.009   .     S
C835   C836    1.403   .     A
C835   C840    1.404   .     A
C836   C837    1.399   .     A
C836   H841    1.083   .     S
C837   H842    1.082   .     S
C837   C838    1.397   .     A
C838   C839    1.397   .     A
C838   H921    1.082   .     S
C839   C840    1.398   .     A
C839   H922    1.082   .     S
C840   H845    1.083   .     S
C846   C847    1.404   .     A
C846   C851    1.403   .     A
C847   H852    1.083   .     S
C847   C848    1.398   .     A
C848   C849    1.397   .     A
C849   C850    1.397   .     A
C850   C851    1.399   .     A
C850   H855    1.082   .     S
C851   H856    1.083   .     S
H853   C926    1.082   .     S
H854   C927    1.082   .     S
C859   C868    1.414   .     S
C859   O906    1.281   .     A
C859   O903    1.282   .     A
C860   O904    1.282   .     A
C860   O905    1.281   .     A
C860   C867    1.414   .     S
C861   C886    1.405   .     A
C861   H891    1.082   .     S
C862   H892    1.082   .     S
C862   C885    1.405   .     A
C862   C186    1.385   1_556 S
C863   C868    1.396   .     A
C863   H893    1.084   .     S
C864   C867    1.396   .     A
C864   H894    1.084   .     S
C864   C710    1.369   1_655 S
C865   H895    1.084   .     S
C865   C867    1.396   .     A
C865   C707    1.369   1_655 S
C866   H896    1.084   .     S
C866   C868    1.396   .     A
C869   N902    1.366   .     A
C869   H897    1.080   .     S
C869   C1340   1.416   1_545 S
C870   N901    1.366   .     A
C870   H898    1.080   .     S
C870   C1105   1.416   .     S
C871   H899    1.082   .     S
C871   N902    1.366   .     A
C871   C1338   1.416   1_545 S
C872   H900    1.082   .     S
C872   N901    1.366   .     A
C872   C1103   1.416   .     S
C873   C878    1.425   .     S
C873   O910    1.284   .     A
C873   O907    1.282   .     A
C874   O909    1.284   .     A
C874   O908    1.282   .     A
C874   C877    1.425   .     S
C875   C913    1.485   .     S
C875   C885    1.402   .     A
C875   C877    1.402   .     A
C876   C886    1.402   .     A
C876   C924    1.485   .     S
C876   C878    1.402   .     A
C877   C879    1.387   .     A
C878   C880    1.387   .     A
C879   H889    1.083   .     S
C879   C881    1.385   .     A
C880   H890    1.083   .     S
C880   C882    1.385   .     A
C881   C887    1.406   .     A
C881   C883    1.417   .     A
C882   C884    1.417   .     A
C882   C888    1.406   .     A
C883   C885    1.418   .     A
C883   C182    1.401   1_556 S
C884   C886    1.418   .     A
C887   Br935   1.925   .     S
C887   C159    1.385   1_556 S
C888   Br936   1.925   .     S
N901   Zn911   2.010   .     S
N902   Zn912   2.010   .     S
O903   Zn911   1.992   .     S
O904   Zn912   1.992   .     S
O905   Zn911   1.994   .     S
O906   Zn912   1.994   .     S
O907   Zn911   2.014   .     S
O908   Zn912   2.014   .     S
O909   Zn911   2.009   .     S
O910   Zn912   2.009   .     S
C913   C914    1.403   .     A
C913   C918    1.404   .     A
C914   C915    1.399   .     A
C914   H919    1.083   .     S
C915   H920    1.082   .     S
C915   C916    1.397   .     A
C916   C917    1.397   .     A
C916   H765    1.082   1_655 S
C917   C918    1.398   .     A
C917   H766    1.082   1_655 S
C918   H923    1.083   .     S
C924   C925    1.404   .     A
C924   C929    1.403   .     A
C925   H930    1.083   .     S
C925   C926    1.398   .     A
C926   C927    1.397   .     A
C927   C928    1.397   .     A
C928   C929    1.399   .     A
C928   H933    1.082   .     S
C929   H934    1.083   .     S
H931   C770    1.082   1_655 S
H932   C771    1.082   1_655 S
C937   C946    1.414   .     S
C937   O984    1.281   .     A
C937   O981    1.282   .     A
C938   O982    1.282   .     A
C938   O983    1.281   .     A
C938   C945    1.414   .     S
C939   C964    1.405   .     A
C939   H969    1.082   .     S
C940   H970    1.082   .     S
C940   C963    1.405   .     A
C940   C264    1.385   1_556 S
C941   C946    1.396   .     A
C941   H971    1.084   .     S
C941   C1099   1.369   1_455 S
C942   C945    1.396   .     A
C942   H972    1.084   .     S
C942   C1022   1.369   .     S
C943   H973    1.084   .     S
C943   C945    1.396   .     A
C943   C1019   1.369   .     S
C944   H974    1.084   .     S
C944   C946    1.396   .     A
C944   C1098   1.369   1_455 S
C947   N980    1.366   .     A
C947   H975    1.080   .     S
C948   N979    1.366   .     A
C948   H976    1.080   .     S
C948   C1183   1.416   .     S
C949   H977    1.082   .     S
C949   N980    1.366   .     A
C950   H978    1.082   .     S
C950   N979    1.366   .     A
C950   C1181   1.416   .     S
C951   C956    1.425   .     S
C951   O988    1.284   .     A
C951   O985    1.282   .     A
C952   O987    1.284   .     A
C952   O986    1.282   .     A
C952   C955    1.425   .     S
C953   C991    1.485   .     S
C953   C963    1.402   .     A
C953   C955    1.402   .     A
C954   C964    1.402   .     A
C954   C1002   1.485   .     S
C954   C956    1.402   .     A
C955   C957    1.387   .     A
C956   C958    1.387   .     A
C957   H967    1.083   .     S
C957   C959    1.385   .     A
C958   H968    1.083   .     S
C958   C960    1.385   .     A
C959   C965    1.406   .     A
C959   C961    1.417   .     A
C960   C962    1.417   .     A
C960   C966    1.406   .     A
C961   C963    1.418   .     A
C961   C260    1.401   1_556 S
C962   C964    1.418   .     A
C965   Br1013  1.925   .     S
C965   C237    1.385   1_556 S
C966   Br1014  1.925   .     S
N979   Zn989   2.010   .     S
N980   Zn990   2.010   .     S
O981   Zn989   1.992   .     S
O982   Zn990   1.992   .     S
O983   Zn989   1.994   .     S
O984   Zn990   1.994   .     S
O985   Zn989   2.014   .     S
O986   Zn990   2.014   .     S
O987   Zn989   2.009   .     S
O988   Zn990   2.009   .     S
C991   C992    1.403   .     A
C991   C996    1.404   .     A
C992   C993    1.399   .     A
C992   H997    1.083   .     S
C993   H998    1.082   .     S
C993   C994    1.397   .     A
C994   C995    1.397   .     A
C994   H1077   1.082   .     S
C995   C996    1.398   .     A
C995   H1078   1.082   .     S
C996   H1001   1.083   .     S
H999   C1150   1.082   1_455 S
H1000  C1151   1.082   1_455 S
C1002  C1003   1.404   .     A
C1002  C1007   1.403   .     A
C1003  H1008   1.083   .     S
C1003  C1004   1.398   .     A
C1004  C1005   1.397   .     A
C1004  H1165   1.082   1_455 S
C1005  C1006   1.397   .     A
C1005  H1166   1.082   1_455 S
C1006  C1007   1.399   .     A
C1006  H1011   1.082   .     S
C1007  H1012   1.083   .     S
H1009  C1082   1.082   .     S
H1010  C1083   1.082   .     S
C1015  C1024   1.414   .     S
C1015  O1062   1.281   .     A
C1015  O1059   1.282   .     A
C1016  O1060   1.282   .     A
C1016  O1061   1.281   .     A
C1016  C1023   1.414   .     S
C1017  C1042   1.405   .     A
C1017  H1047   1.082   .     S
C1018  H1048   1.082   .     S
C1018  C1041   1.405   .     A
C1018  C342    1.385   1_556 S
C1019  C1024   1.396   .     A
C1019  H1049   1.084   .     S
C1020  C1023   1.396   .     A
C1020  H1050   1.084   .     S
C1020  C1100   1.369   .     S
C1021  H1051   1.084   .     S
C1021  C1023   1.396   .     A
C1021  C1097   1.369   .     S
C1022  H1052   1.084   .     S
C1022  C1024   1.396   .     A
C1025  N1058   1.366   .     A
C1025  H1053   1.080   .     S
C1026  N1057   1.366   .     A
C1026  H1054   1.080   .     S
C1026  C1261   1.416   .     S
C1027  H1055   1.082   .     S
C1027  N1058   1.366   .     A
C1028  H1056   1.082   .     S
C1028  N1057   1.366   .     A
C1028  C1259   1.416   .     S
C1029  C1034   1.425   .     S
C1029  O1066   1.284   .     A
C1029  O1063   1.282   .     A
C1030  O1065   1.284   .     A
C1030  O1064   1.282   .     A
C1030  C1033   1.425   .     S
C1031  C1069   1.485   .     S
C1031  C1041   1.402   .     A
C1031  C1033   1.402   .     A
C1032  C1042   1.402   .     A
C1032  C1080   1.485   .     S
C1032  C1034   1.402   .     A
C1033  C1035   1.387   .     A
C1034  C1036   1.387   .     A
C1035  H1045   1.083   .     S
C1035  C1037   1.385   .     A
C1036  H1046   1.083   .     S
C1036  C1038   1.385   .     A
C1037  C1043   1.406   .     A
C1037  C1039   1.417   .     A
C1038  C1040   1.417   .     A
C1038  C1044   1.406   .     A
C1039  C1041   1.418   .     A
C1039  C338    1.401   1_556 S
C1040  C1042   1.418   .     A
C1043  Br1091  1.925   .     S
C1043  C315    1.385   1_556 S
C1044  Br1092  1.925   .     S
N1057  Zn1067  2.010   .     S
N1058  Zn1068  2.010   .     S
O1059  Zn1067  1.992   .     S
O1060  Zn1068  1.992   .     S
O1061  Zn1067  1.994   .     S
O1062  Zn1068  1.994   .     S
O1063  Zn1067  2.014   .     S
O1064  Zn1068  2.014   .     S
O1065  Zn1067  2.009   .     S
O1066  Zn1068  2.009   .     S
C1069  C1070   1.403   .     A
C1069  C1074   1.404   .     A
C1070  C1071   1.399   .     A
C1070  H1075   1.083   .     S
C1071  H1076   1.082   .     S
C1071  C1072   1.397   .     A
C1072  C1073   1.397   .     A
C1072  H1155   1.082   .     S
C1073  C1074   1.398   .     A
C1073  H1156   1.082   .     S
C1074  H1079   1.083   .     S
C1080  C1081   1.404   .     A
C1080  C1085   1.403   .     A
C1081  H1086   1.083   .     S
C1081  C1082   1.398   .     A
C1082  C1083   1.397   .     A
C1083  C1084   1.397   .     A
C1084  C1085   1.399   .     A
C1084  H1089   1.082   .     S
C1085  H1090   1.083   .     S
H1087  C1160   1.082   .     S
H1088  C1161   1.082   .     S
C1093  C1102   1.414   .     S
C1093  O1140   1.281   .     A
C1093  O1137   1.282   .     A
C1094  O1138   1.282   .     A
C1094  O1139   1.281   .     A
C1094  C1101   1.414   .     S
C1095  C1120   1.405   .     A
C1095  H1125   1.082   .     S
C1096  H1126   1.082   .     S
C1096  C1119   1.405   .     A
C1096  C420    1.385   1_556 S
C1097  C1102   1.396   .     A
C1097  H1127   1.084   .     S
C1098  C1101   1.396   .     A
C1098  H1128   1.084   .     S
C1098  C944    1.369   1_655 S
C1099  H1129   1.084   .     S
C1099  C1101   1.396   .     A
C1099  C941    1.369   1_655 S
C1100  H1130   1.084   .     S
C1100  C1102   1.396   .     A
C1103  N1136   1.366   .     A
C1103  H1131   1.080   .     S
C1104  N1135   1.366   .     A
C1104  H1132   1.080   .     S
C1104  C1339   1.416   .     S
C1105  H1133   1.082   .     S
C1105  N1136   1.366   .     A
C1106  H1134   1.082   .     S
C1106  N1135   1.366   .     A
C1106  C1337   1.416   .     S
C1107  C1112   1.425   .     S
C1107  O1144   1.284   .     A
C1107  O1141   1.282   .     A
C1108  O1143   1.284   .     A
C1108  O1142   1.282   .     A
C1108  C1111   1.425   .     S
C1109  C1147   1.485   .     S
C1109  C1119   1.402   .     A
C1109  C1111   1.402   .     A
C1110  C1120   1.402   .     A
C1110  C1158   1.485   .     S
C1110  C1112   1.402   .     A
C1111  C1113   1.387   .     A
C1112  C1114   1.387   .     A
C1113  H1123   1.083   .     S
C1113  C1115   1.385   .     A
C1114  H1124   1.083   .     S
C1114  C1116   1.385   .     A
C1115  C1121   1.406   .     A
C1115  C1117   1.417   .     A
C1116  C1118   1.417   .     A
C1116  C1122   1.406   .     A
C1117  C1119   1.418   .     A
C1117  C416    1.401   1_556 S
C1118  C1120   1.418   .     A
C1121  Br1169  1.925   .     S
C1121  C393    1.385   1_556 S
C1122  Br1170  1.925   .     S
N1135  Zn1145  2.010   .     S
N1136  Zn1146  2.010   .     S
O1137  Zn1145  1.992   .     S
O1138  Zn1146  1.992   .     S
O1139  Zn1145  1.994   .     S
O1140  Zn1146  1.994   .     S
O1141  Zn1145  2.014   .     S
O1142  Zn1146  2.014   .     S
O1143  Zn1145  2.009   .     S
O1144  Zn1146  2.009   .     S
C1147  C1148   1.403   .     A
C1147  C1152   1.404   .     A
C1148  C1149   1.399   .     A
C1148  H1153   1.083   .     S
C1149  H1154   1.082   .     S
C1149  C1150   1.397   .     A
C1150  C1151   1.397   .     A
C1150  H999    1.082   1_655 S
C1151  C1152   1.398   .     A
C1151  H1000   1.082   1_655 S
C1152  H1157   1.083   .     S
C1158  C1159   1.404   .     A
C1158  C1163   1.403   .     A
C1159  H1164   1.083   .     S
C1159  C1160   1.398   .     A
C1160  C1161   1.397   .     A
C1161  C1162   1.397   .     A
C1162  C1163   1.399   .     A
C1162  H1167   1.082   .     S
C1163  H1168   1.083   .     S
H1165  C1004   1.082   1_655 S
H1166  C1005   1.082   1_655 S
C1171  C1180   1.414   .     S
C1171  O1218   1.281   .     A
C1171  O1215   1.282   .     A
C1172  O1216   1.282   .     A
C1172  O1217   1.281   .     A
C1172  C1179   1.414   .     S
C1173  C1198   1.405   .     A
C1173  H1203   1.082   .     S
C1174  H1204   1.082   .     S
C1174  C1197   1.405   .     A
C1174  C498    1.385   1_556 S
C1175  C1180   1.396   .     A
C1175  H1205   1.084   .     S
C1175  C1333   1.369   1_455 S
C1176  C1179   1.396   .     A
C1176  H1206   1.084   .     S
C1176  C1256   1.369   .     S
C1177  H1207   1.084   .     S
C1177  C1179   1.396   .     A
C1177  C1253   1.369   .     S
C1178  H1208   1.084   .     S
C1178  C1180   1.396   .     A
C1178  C1332   1.369   1_455 S
C1181  N1214   1.366   .     A
C1181  H1209   1.080   .     S
C1182  N1213   1.366   .     A
C1182  H1210   1.080   .     S
C1182  C715    1.416   1_565 S
C1183  H1211   1.082   .     S
C1183  N1214   1.366   .     A
C1184  H1212   1.082   .     S
C1184  N1213   1.366   .     A
C1184  C713    1.416   1_565 S
C1185  C1190   1.425   .     S
C1185  O1222   1.284   .     A
C1185  O1219   1.282   .     A
C1186  O1221   1.284   .     A
C1186  O1220   1.282   .     A
C1186  C1189   1.425   .     S
C1187  C1225   1.485   .     S
C1187  C1197   1.402   .     A
C1187  C1189   1.402   .     A
C1188  C1198   1.402   .     A
C1188  C1236   1.485   .     S
C1188  C1190   1.402   .     A
C1189  C1191   1.387   .     A
C1190  C1192   1.387   .     A
C1191  H1201   1.083   .     S
C1191  C1193   1.385   .     A
C1192  H1202   1.083   .     S
C1192  C1194   1.385   .     A
C1193  C1199   1.406   .     A
C1193  C1195   1.417   .     A
C1194  C1196   1.417   .     A
C1194  C1200   1.406   .     A
C1195  C1197   1.418   .     A
C1195  C494    1.401   1_556 S
C1196  C1198   1.418   .     A
C1199  Br1247  1.925   .     S
C1199  C471    1.385   1_556 S
C1200  Br1248  1.925   .     S
N1213  Zn1223  2.010   .     S
N1214  Zn1224  2.010   .     S
O1215  Zn1223  1.992   .     S
O1216  Zn1224  1.992   .     S
O1217  Zn1223  1.994   .     S
O1218  Zn1224  1.994   .     S
O1219  Zn1223  2.014   .     S
O1220  Zn1224  2.014   .     S
O1221  Zn1223  2.009   .     S
O1222  Zn1224  2.009   .     S
C1225  C1226   1.403   .     A
C1225  C1230   1.404   .     A
C1226  C1227   1.399   .     A
C1226  H1231   1.083   .     S
C1227  H1232   1.082   .     S
C1227  C1228   1.397   .     A
C1228  C1229   1.397   .     A
C1228  H1311   1.082   .     S
C1229  C1230   1.398   .     A
C1229  H1312   1.082   .     S
C1230  H1235   1.083   .     S
H1233  C1384   1.082   1_455 S
H1234  C1385   1.082   1_455 S
C1236  C1237   1.404   .     A
C1236  C1241   1.403   .     A
C1237  H1242   1.083   .     S
C1237  C1238   1.398   .     A
C1238  C1239   1.397   .     A
C1238  H1399   1.082   1_455 S
C1239  C1240   1.397   .     A
C1239  H1400   1.082   1_455 S
C1240  C1241   1.399   .     A
C1240  H1245   1.082   .     S
C1241  H1246   1.083   .     S
H1243  C1316   1.082   .     S
H1244  C1317   1.082   .     S
C1249  C1258   1.414   .     S
C1249  O1296   1.281   .     A
C1249  O1293   1.282   .     A
C1250  O1294   1.282   .     A
C1250  O1295   1.281   .     A
C1250  C1257   1.414   .     S
C1251  C1276   1.405   .     A
C1251  H1281   1.082   .     S
C1252  H1282   1.082   .     S
C1252  C1275   1.405   .     A
C1252  C576    1.385   1_556 S
C1253  C1258   1.396   .     A
C1253  H1283   1.084   .     S
C1254  C1257   1.396   .     A
C1254  H1284   1.084   .     S
C1254  C1334   1.369   .     S
C1255  H1285   1.084   .     S
C1255  C1257   1.396   .     A
C1255  C1331   1.369   .     S
C1256  H1286   1.084   .     S
C1256  C1258   1.396   .     A
C1259  N1292   1.366   .     A
C1259  H1287   1.080   .     S
C1260  N1291   1.366   .     A
C1260  H1288   1.080   .     S
C1260  C793    1.416   1_565 S
C1261  H1289   1.082   .     S
C1261  N1292   1.366   .     A
C1262  H1290   1.082   .     S
C1262  N1291   1.366   .     A
C1262  C791    1.416   1_565 S
C1263  C1268   1.425   .     S
C1263  O1300   1.284   .     A
C1263  O1297   1.282   .     A
C1264  O1299   1.284   .     A
C1264  O1298   1.282   .     A
C1264  C1267   1.425   .     S
C1265  C1303   1.485   .     S
C1265  C1275   1.402   .     A
C1265  C1267   1.402   .     A
C1266  C1276   1.402   .     A
C1266  C1314   1.485   .     S
C1266  C1268   1.402   .     A
C1267  C1269   1.387   .     A
C1268  C1270   1.387   .     A
C1269  H1279   1.083   .     S
C1269  C1271   1.385   .     A
C1270  H1280   1.083   .     S
C1270  C1272   1.385   .     A
C1271  C1277   1.406   .     A
C1271  C1273   1.417   .     A
C1272  C1274   1.417   .     A
C1272  C1278   1.406   .     A
C1273  C1275   1.418   .     A
C1273  C572    1.401   1_556 S
C1274  C1276   1.418   .     A
C1277  Br1325  1.925   .     S
C1277  C549    1.385   1_556 S
C1278  Br1326  1.925   .     S
N1291  Zn1301  2.010   .     S
N1292  Zn1302  2.010   .     S
O1293  Zn1301  1.992   .     S
O1294  Zn1302  1.992   .     S
O1295  Zn1301  1.994   .     S
O1296  Zn1302  1.994   .     S
O1297  Zn1301  2.014   .     S
O1298  Zn1302  2.014   .     S
O1299  Zn1301  2.009   .     S
O1300  Zn1302  2.009   .     S
C1303  C1304   1.403   .     A
C1303  C1308   1.404   .     A
C1304  C1305   1.399   .     A
C1304  H1309   1.083   .     S
C1305  H1310   1.082   .     S
C1305  C1306   1.397   .     A
C1306  C1307   1.397   .     A
C1306  H1389   1.082   .     S
C1307  C1308   1.398   .     A
C1307  H1390   1.082   .     S
C1308  H1313   1.083   .     S
C1314  C1315   1.404   .     A
C1314  C1319   1.403   .     A
C1315  H1320   1.083   .     S
C1315  C1316   1.398   .     A
C1316  C1317   1.397   .     A
C1317  C1318   1.397   .     A
C1318  C1319   1.399   .     A
C1318  H1323   1.082   .     S
C1319  H1324   1.083   .     S
H1321  C1394   1.082   .     S
H1322  C1395   1.082   .     S
C1327  C1336   1.414   .     S
C1327  O1374   1.281   .     A
C1327  O1371   1.282   .     A
C1328  O1372   1.282   .     A
C1328  O1373   1.281   .     A
C1328  C1335   1.414   .     S
C1329  C1354   1.405   .     A
C1329  H1359   1.082   .     S
C1330  H1360   1.082   .     S
C1330  C1353   1.405   .     A
C1330  C654    1.385   1_556 S
C1331  C1336   1.396   .     A
C1331  H1361   1.084   .     S
C1332  C1335   1.396   .     A
C1332  H1362   1.084   .     S
C1332  C1178   1.369   1_655 S
C1333  H1363   1.084   .     S
C1333  C1335   1.396   .     A
C1333  C1175   1.369   1_655 S
C1334  H1364   1.084   .     S
C1334  C1336   1.396   .     A
C1337  N1370   1.366   .     A
C1337  H1365   1.080   .     S
C1338  N1369   1.366   .     A
C1338  H1366   1.080   .     S
C1338  C871    1.416   1_565 S
C1339  H1367   1.082   .     S
C1339  N1370   1.366   .     A
C1340  H1368   1.082   .     S
C1340  N1369   1.366   .     A
C1340  C869    1.416   1_565 S
C1341  C1346   1.425   .     S
C1341  O1378   1.284   .     A
C1341  O1375   1.282   .     A
C1342  O1377   1.284   .     A
C1342  O1376   1.282   .     A
C1342  C1345   1.425   .     S
C1343  C1381   1.485   .     S
C1343  C1353   1.402   .     A
C1343  C1345   1.402   .     A
C1344  C1354   1.402   .     A
C1344  C1392   1.485   .     S
C1344  C1346   1.402   .     A
C1345  C1347   1.387   .     A
C1346  C1348   1.387   .     A
C1347  H1357   1.083   .     S
C1347  C1349   1.385   .     A
C1348  H1358   1.083   .     S
C1348  C1350   1.385   .     A
C1349  C1355   1.406   .     A
C1349  C1351   1.417   .     A
C1350  C1352   1.417   .     A
C1350  C1356   1.406   .     A
C1351  C1353   1.418   .     A
C1351  C650    1.401   1_556 S
C1352  C1354   1.418   .     A
C1355  Br1403  1.925   .     S
C1355  C627    1.385   1_556 S
C1356  Br1404  1.925   .     S
N1369  Zn1379  2.010   .     S
N1370  Zn1380  2.010   .     S
O1371  Zn1379  1.992   .     S
O1372  Zn1380  1.992   .     S
O1373  Zn1379  1.994   .     S
O1374  Zn1380  1.994   .     S
O1375  Zn1379  2.014   .     S
O1376  Zn1380  2.014   .     S
O1377  Zn1379  2.009   .     S
O1378  Zn1380  2.009   .     S
C1381  C1382   1.403   .     A
C1381  C1386   1.404   .     A
C1382  C1383   1.399   .     A
C1382  H1387   1.083   .     S
C1383  H1388   1.082   .     S
C1383  C1384   1.397   .     A
C1384  C1385   1.397   .     A
C1384  H1233   1.082   1_655 S
C1385  C1386   1.398   .     A
C1385  H1234   1.082   1_655 S
C1386  H1391   1.083   .     S
C1392  C1393   1.404   .     A
C1392  C1397   1.403   .     A
C1393  H1398   1.083   .     S
C1393  C1394   1.398   .     A
C1394  C1395   1.397   .     A
C1395  C1396   1.397   .     A
C1396  C1397   1.399   .     A
C1396  H1401   1.082   .     S
C1397  H1402   1.083   .     S
H1399  C1238   1.082   1_655 S
H1400  C1239   1.082   1_655 S
