data_str_m2_o1_o17_pcu_sym.147
_audit_creation_date              2020-01-03
_audit_creation_method            'Materials Studio'
_symmetry_space_group_name_H-M    'P1'
_symmetry_Int_Tables_number       1
_symmetry_cell_setting            triclinic
loop_
_symmetry_equiv_pos_as_xyz
  x,y,z
_cell_length_a                    33.0865
_cell_length_b                    28.9178
_cell_length_c                    29.9260
_cell_angle_alpha                 89.8064
_cell_angle_beta                  92.6557
_cell_angle_gamma                 89.8798
loop_
_atom_site_label
_atom_site_type_symbol
_atom_site_fract_x
_atom_site_fract_y
_atom_site_fract_z
_atom_site_U_iso_or_equiv
_atom_site_adp_type
_atom_site_occupancy
C1     C     0.08757   0.16669   0.25251   0.00000  Uiso   1.00
C2     C     0.24583   0.16657   0.24793   0.00000  Uiso   1.00
C3     C     0.09534   0.13665   0.01934   0.00000  Uiso   1.00
C4     C     0.23973   0.14295   0.48112   0.00000  Uiso   1.00
C5     C     0.02134   0.12440   0.25622   0.00000  Uiso   1.00
C6     C     0.31230   0.20844   0.24540   0.00000  Uiso   1.00
C7     C     0.31259   0.12404   0.24944   0.00000  Uiso   1.00
C8     C     0.02088   0.20874   0.25335   0.00000  Uiso   1.00
C9     C     0.29063   0.16626   0.24643   0.00000  Uiso   1.00
C10    C     0.04288   0.16666   0.25507   0.00000  Uiso   1.00
C11    C     0.14727   0.02472   0.21605   0.00000  Uiso   1.00
C12    C     0.18633   0.30843   0.28380   0.00000  Uiso   1.00
C13    C     0.18563   0.02435   0.28422   0.00000  Uiso   1.00
C14    C     0.14708   0.30876   0.21612   0.00000  Uiso   1.00
C15    C     0.16612   0.16676   0.16457   0.00000  Uiso   1.00
C16    C     0.16775   0.16656   0.33542   0.00000  Uiso   1.00
C17    C     0.20430   0.16052   0.40856   0.00000  Uiso   1.00
C18    C     0.12974   0.15624   0.09191   0.00000  Uiso   1.00
C19    C     0.16761   0.16548   0.38386   0.00000  Uiso   1.00
C20    C     0.16577   0.16640   0.11603   0.00000  Uiso   1.00
C21    C     0.13044   0.16388   0.40429   0.00000  Uiso   1.00
C22    C     0.20219   0.17206   0.09483   0.00000  Uiso   1.00
C23    C     0.12960   0.15485   0.45084   0.00000  Uiso   1.00
C24    C     0.20390   0.16157   0.04869   0.00000  Uiso   1.00
C25    C     0.16686   0.15401   0.47640   0.00000  Uiso   1.00
C26    C     0.16697   0.15475   0.02354   0.00000  Uiso   1.00
C27    C     0.20406   0.15283   0.45506   0.00000  Uiso   1.00
C28    C     0.13018   0.14957   0.04521   0.00000  Uiso   1.00
C29    C     0.09367   0.14392   0.47276   0.00000  Uiso   1.00
C30    C     0.24075   0.15419   0.02718   0.00000  Uiso   1.00
Cu31   Cu    0.16667   0.21355   0.25000   0.00000  Uiso   1.00
Cu32   Cu    0.16667   0.11978   0.25000   0.00000  Uiso   1.00
N33    N     0.16667   0.28402   0.25000   0.00000  Uiso   1.00
N34    N     0.16667   0.04931   0.25000   0.00000  Uiso   1.00
O35    O     0.10655   0.20625   0.25000   0.00000  Uiso   1.00
O36    O     0.22679   0.12709   0.25001   0.00000  Uiso   1.00
O37    O     0.22679   0.20625   0.25001   0.00000  Uiso   1.00
O38    O     0.10655   0.12709   0.25000   0.00000  Uiso   1.00
O39    O     0.16666   0.20627   0.18513   0.00000  Uiso   1.00
O40    O     0.16668   0.12707   0.31487   0.00000  Uiso   1.00
O41    O     0.16668   0.20627   0.31487   0.00000  Uiso   1.00
O42    O     0.16666   0.12707   0.18513   0.00000  Uiso   1.00
Cl43   Cl    0.24996   0.17151   0.38136   0.00000  Uiso   1.00
Cl44   Cl    0.08407   0.15991   0.12073   0.00000  Uiso   1.00
Cl45   Cl    0.08669   0.17863   0.37039   0.00000  Uiso   1.00
Cl46   Cl    0.24297   0.19732   0.12693   0.00000  Uiso   1.00
C47    C     0.05495   0.13465   0.44766   0.00000  Uiso   1.00
O48    O     0.02789   0.16337   0.44804   0.00000  Uiso   1.00
O49    O     0.04913   0.09399   0.42311   0.00000  Uiso   1.00
H50    H     0.07367   0.07292   0.42522   0.00000  Uiso   1.00
C51    C     0.27986   0.15312   0.05299   0.00000  Uiso   1.00
O52    O     0.30448   0.18371   0.04722   0.00000  Uiso   1.00
O53    O     0.28878   0.11816   0.08435   0.00000  Uiso   1.00
H54    H     0.26628   0.09457   0.08595   0.00000  Uiso   1.00
C55    C     0.06501   0.10591   0.03856   0.00000  Uiso   1.00
O56    O     0.03132   0.12048   0.04520   0.00000  Uiso   1.00
O57    O     0.07502   0.05990   0.04819   0.00000  Uiso   1.00
H58    H     0.05185   0.04223   0.06120   0.00000  Uiso   1.00
C59    C     0.27082   0.11100   0.46305   0.00000  Uiso   1.00
O60    O     0.30444   0.10736   0.48113   0.00000  Uiso   1.00
O61    O     0.26049   0.08216   0.42695   0.00000  Uiso   1.00
H62    H     0.28370   0.06160   0.41824   0.00000  Uiso   1.00
Cl63   Cl    0.04522   0.07095   0.27089   0.00000  Uiso   1.00
Cl64   Cl    0.28906   0.26183   0.22948   0.00000  Uiso   1.00
Cl65   Cl    0.28945   0.06914   0.24087   0.00000  Uiso   1.00
Cl66   Cl    0.04364   0.26299   0.26613   0.00000  Uiso   1.00
C67    C     0.12642   0.04857   0.17807   0.00000  Uiso   1.00
O68    O     0.09304   0.06573   0.18208   0.00000  Uiso   1.00
O69    O     0.14427   0.04866   0.13668   0.00000  Uiso   1.00
H70    H     0.12669   0.06413   0.11249   0.00000  Uiso   1.00
C71    C     0.20863   0.28428   0.32095   0.00000  Uiso   1.00
O72    O     0.24226   0.26843   0.31559   0.00000  Uiso   1.00
O73    O     0.19208   0.28248   0.36308   0.00000  Uiso   1.00
H74    H     0.21066   0.26673   0.38635   0.00000  Uiso   1.00
C75    C     0.20288   0.04760   0.32430   0.00000  Uiso   1.00
O76    O     0.23573   0.06670   0.32379   0.00000  Uiso   1.00
O77    O     0.18128   0.04634   0.36336   0.00000  Uiso   1.00
H78    H     0.19505   0.06369   0.38901   0.00000  Uiso   1.00
C79    C     0.12573   0.28486   0.17839   0.00000  Uiso   1.00
O80    O     0.09241   0.26797   0.18300   0.00000  Uiso   1.00
O81    O     0.14304   0.28391   0.13664   0.00000  Uiso   1.00
H82    H     0.12542   0.26738   0.11316   0.00000  Uiso   1.00
C83    C     0.42090   0.16669   0.25251   0.00000  Uiso   1.00
C84    C     0.57917   0.16657   0.24793   0.00000  Uiso   1.00
C85    C     0.42868   0.13665   0.01934   0.00000  Uiso   1.00
C86    C     0.57306   0.14295   0.48112   0.00000  Uiso   1.00
C87    C     0.35467   0.12440   0.25622   0.00000  Uiso   1.00
C88    C     0.64563   0.20844   0.24540   0.00000  Uiso   1.00
C89    C     0.64592   0.12404   0.24944   0.00000  Uiso   1.00
C90    C     0.35421   0.20874   0.25335   0.00000  Uiso   1.00
C91    C     0.62396   0.16626   0.24643   0.00000  Uiso   1.00
C92    C     0.37621   0.16666   0.25507   0.00000  Uiso   1.00
C93    C     0.48061   0.02472   0.21605   0.00000  Uiso   1.00
C94    C     0.51966   0.30843   0.28380   0.00000  Uiso   1.00
C95    C     0.51896   0.02435   0.28422   0.00000  Uiso   1.00
C96    C     0.48041   0.30876   0.21612   0.00000  Uiso   1.00
C97    C     0.49945   0.16676   0.16457   0.00000  Uiso   1.00
C98    C     0.50109   0.16656   0.33542   0.00000  Uiso   1.00
C99    C     0.53763   0.16052   0.40856   0.00000  Uiso   1.00
C100   C     0.46307   0.15624   0.09191   0.00000  Uiso   1.00
C101   C     0.50094   0.16548   0.38386   0.00000  Uiso   1.00
C102   C     0.49911   0.16640   0.11603   0.00000  Uiso   1.00
C103   C     0.46377   0.16388   0.40429   0.00000  Uiso   1.00
C104   C     0.53552   0.17206   0.09483   0.00000  Uiso   1.00
C105   C     0.46293   0.15485   0.45084   0.00000  Uiso   1.00
C106   C     0.53723   0.16157   0.04869   0.00000  Uiso   1.00
C107   C     0.50019   0.15401   0.47640   0.00000  Uiso   1.00
C108   C     0.50030   0.15475   0.02354   0.00000  Uiso   1.00
C109   C     0.53739   0.15283   0.45506   0.00000  Uiso   1.00
C110   C     0.46351   0.14957   0.04521   0.00000  Uiso   1.00
C111   C     0.42700   0.14392   0.47276   0.00000  Uiso   1.00
C112   C     0.57409   0.15419   0.02718   0.00000  Uiso   1.00
Cu113  Cu    0.50000   0.21355   0.25000   0.00000  Uiso   1.00
Cu114  Cu    0.50000   0.11978   0.25000   0.00000  Uiso   1.00
N115   N     0.50000   0.28402   0.25000   0.00000  Uiso   1.00
N116   N     0.50000   0.04931   0.25000   0.00000  Uiso   1.00
O117   O     0.43988   0.20625   0.25000   0.00000  Uiso   1.00
O118   O     0.56012   0.12709   0.25001   0.00000  Uiso   1.00
O119   O     0.56012   0.20625   0.25001   0.00000  Uiso   1.00
O120   O     0.43988   0.12709   0.25000   0.00000  Uiso   1.00
O121   O     0.49999   0.20627   0.18513   0.00000  Uiso   1.00
O122   O     0.50001   0.12707   0.31487   0.00000  Uiso   1.00
O123   O     0.50001   0.20627   0.31487   0.00000  Uiso   1.00
O124   O     0.49999   0.12707   0.18513   0.00000  Uiso   1.00
Cl125  Cl    0.58329   0.17151   0.38136   0.00000  Uiso   1.00
Cl126  Cl    0.41741   0.15991   0.12073   0.00000  Uiso   1.00
Cl127  Cl    0.42003   0.17863   0.37039   0.00000  Uiso   1.00
Cl128  Cl    0.57630   0.19732   0.12693   0.00000  Uiso   1.00
C129   C     0.38828   0.13465   0.44766   0.00000  Uiso   1.00
O130   O     0.36122   0.16337   0.44804   0.00000  Uiso   1.00
O131   O     0.38246   0.09399   0.42311   0.00000  Uiso   1.00
H132   H     0.40700   0.07292   0.42522   0.00000  Uiso   1.00
C133   C     0.61319   0.15312   0.05299   0.00000  Uiso   1.00
O134   O     0.63781   0.18371   0.04722   0.00000  Uiso   1.00
O135   O     0.62212   0.11816   0.08435   0.00000  Uiso   1.00
H136   H     0.59961   0.09457   0.08595   0.00000  Uiso   1.00
C137   C     0.39835   0.10591   0.03856   0.00000  Uiso   1.00
O138   O     0.36465   0.12048   0.04520   0.00000  Uiso   1.00
O139   O     0.40835   0.05990   0.04819   0.00000  Uiso   1.00
H140   H     0.38518   0.04223   0.06120   0.00000  Uiso   1.00
C141   C     0.60415   0.11100   0.46305   0.00000  Uiso   1.00
O142   O     0.63777   0.10736   0.48113   0.00000  Uiso   1.00
O143   O     0.59383   0.08216   0.42695   0.00000  Uiso   1.00
H144   H     0.61703   0.06160   0.41824   0.00000  Uiso   1.00
Cl145  Cl    0.37855   0.07095   0.27089   0.00000  Uiso   1.00
Cl146  Cl    0.62239   0.26183   0.22948   0.00000  Uiso   1.00
Cl147  Cl    0.62279   0.06914   0.24087   0.00000  Uiso   1.00
Cl148  Cl    0.37697   0.26299   0.26613   0.00000  Uiso   1.00
C149   C     0.45975   0.04857   0.17807   0.00000  Uiso   1.00
O150   O     0.42638   0.06573   0.18208   0.00000  Uiso   1.00
O151   O     0.47760   0.04866   0.13668   0.00000  Uiso   1.00
H152   H     0.46003   0.06413   0.11249   0.00000  Uiso   1.00
C153   C     0.54196   0.28428   0.32095   0.00000  Uiso   1.00
O154   O     0.57559   0.26843   0.31559   0.00000  Uiso   1.00
O155   O     0.52541   0.28248   0.36308   0.00000  Uiso   1.00
H156   H     0.54399   0.26673   0.38635   0.00000  Uiso   1.00
C157   C     0.53621   0.04760   0.32430   0.00000  Uiso   1.00
O158   O     0.56907   0.06670   0.32379   0.00000  Uiso   1.00
O159   O     0.51461   0.04634   0.36336   0.00000  Uiso   1.00
H160   H     0.52838   0.06369   0.38901   0.00000  Uiso   1.00
C161   C     0.45906   0.28486   0.17839   0.00000  Uiso   1.00
O162   O     0.42574   0.26797   0.18300   0.00000  Uiso   1.00
O163   O     0.47638   0.28391   0.13664   0.00000  Uiso   1.00
H164   H     0.45875   0.26738   0.11316   0.00000  Uiso   1.00
C165   C     0.75424   0.16669   0.25251   0.00000  Uiso   1.00
C166   C     0.91250   0.16657   0.24793   0.00000  Uiso   1.00
C167   C     0.76201   0.13665   0.01934   0.00000  Uiso   1.00
C168   C     0.90640   0.14295   0.48112   0.00000  Uiso   1.00
C169   C     0.68801   0.12440   0.25622   0.00000  Uiso   1.00
C170   C     0.97897   0.20844   0.24540   0.00000  Uiso   1.00
C171   C     0.97926   0.12404   0.24944   0.00000  Uiso   1.00
C172   C     0.68754   0.20874   0.25335   0.00000  Uiso   1.00
C173   C     0.95730   0.16626   0.24643   0.00000  Uiso   1.00
C174   C     0.70955   0.16666   0.25507   0.00000  Uiso   1.00
C175   C     0.81394   0.02472   0.21605   0.00000  Uiso   1.00
C176   C     0.85300   0.30843   0.28380   0.00000  Uiso   1.00
C177   C     0.85230   0.02435   0.28422   0.00000  Uiso   1.00
C178   C     0.81374   0.30876   0.21612   0.00000  Uiso   1.00
C179   C     0.83279   0.16676   0.16457   0.00000  Uiso   1.00
C180   C     0.83442   0.16656   0.33542   0.00000  Uiso   1.00
C181   C     0.87097   0.16052   0.40856   0.00000  Uiso   1.00
C182   C     0.79641   0.15624   0.09191   0.00000  Uiso   1.00
C183   C     0.83427   0.16548   0.38386   0.00000  Uiso   1.00
C184   C     0.83244   0.16640   0.11603   0.00000  Uiso   1.00
C185   C     0.79710   0.16388   0.40429   0.00000  Uiso   1.00
C186   C     0.86885   0.17206   0.09483   0.00000  Uiso   1.00
C187   C     0.79626   0.15485   0.45084   0.00000  Uiso   1.00
C188   C     0.87057   0.16157   0.04869   0.00000  Uiso   1.00
C189   C     0.83353   0.15401   0.47640   0.00000  Uiso   1.00
C190   C     0.83364   0.15475   0.02354   0.00000  Uiso   1.00
C191   C     0.87073   0.15283   0.45506   0.00000  Uiso   1.00
C192   C     0.79684   0.14957   0.04521   0.00000  Uiso   1.00
C193   C     0.76034   0.14392   0.47276   0.00000  Uiso   1.00
C194   C     0.90742   0.15419   0.02718   0.00000  Uiso   1.00
Cu195  Cu    0.83333   0.21355   0.25000   0.00000  Uiso   1.00
Cu196  Cu    0.83333   0.11978   0.25000   0.00000  Uiso   1.00
N197   N     0.83333   0.28402   0.25000   0.00000  Uiso   1.00
N198   N     0.83333   0.04931   0.25000   0.00000  Uiso   1.00
O199   O     0.77321   0.20625   0.25000   0.00000  Uiso   1.00
O200   O     0.89345   0.12709   0.25001   0.00000  Uiso   1.00
O201   O     0.89345   0.20625   0.25001   0.00000  Uiso   1.00
O202   O     0.77321   0.12709   0.25000   0.00000  Uiso   1.00
O203   O     0.83332   0.20627   0.18513   0.00000  Uiso   1.00
O204   O     0.83334   0.12707   0.31487   0.00000  Uiso   1.00
O205   O     0.83334   0.20627   0.31487   0.00000  Uiso   1.00
O206   O     0.83332   0.12707   0.18513   0.00000  Uiso   1.00
Cl207  Cl    0.91663   0.17151   0.38136   0.00000  Uiso   1.00
Cl208  Cl    0.75074   0.15991   0.12073   0.00000  Uiso   1.00
Cl209  Cl    0.75336   0.17863   0.37039   0.00000  Uiso   1.00
Cl210  Cl    0.90964   0.19732   0.12693   0.00000  Uiso   1.00
C211   C     0.72162   0.13465   0.44766   0.00000  Uiso   1.00
O212   O     0.69456   0.16337   0.44804   0.00000  Uiso   1.00
O213   O     0.71580   0.09399   0.42311   0.00000  Uiso   1.00
H214   H     0.74033   0.07292   0.42522   0.00000  Uiso   1.00
C215   C     0.94653   0.15312   0.05299   0.00000  Uiso   1.00
O216   O     0.97114   0.18371   0.04722   0.00000  Uiso   1.00
O217   O     0.95545   0.11816   0.08435   0.00000  Uiso   1.00
H218   H     0.93294   0.09457   0.08595   0.00000  Uiso   1.00
C219   C     0.73168   0.10591   0.03856   0.00000  Uiso   1.00
O220   O     0.69798   0.12048   0.04520   0.00000  Uiso   1.00
O221   O     0.74168   0.05990   0.04819   0.00000  Uiso   1.00
H222   H     0.71852   0.04223   0.06120   0.00000  Uiso   1.00
C223   C     0.93749   0.11100   0.46305   0.00000  Uiso   1.00
O224   O     0.97110   0.10736   0.48113   0.00000  Uiso   1.00
O225   O     0.92716   0.08216   0.42695   0.00000  Uiso   1.00
H226   H     0.95036   0.06160   0.41824   0.00000  Uiso   1.00
Cl227  Cl    0.71189   0.07095   0.27089   0.00000  Uiso   1.00
Cl228  Cl    0.95572   0.26183   0.22948   0.00000  Uiso   1.00
Cl229  Cl    0.95612   0.06914   0.24087   0.00000  Uiso   1.00
Cl230  Cl    0.71031   0.26299   0.26613   0.00000  Uiso   1.00
C231   C     0.79308   0.04857   0.17807   0.00000  Uiso   1.00
O232   O     0.75971   0.06573   0.18208   0.00000  Uiso   1.00
O233   O     0.81093   0.04866   0.13668   0.00000  Uiso   1.00
H234   H     0.79336   0.06413   0.11249   0.00000  Uiso   1.00
C235   C     0.87529   0.28428   0.32095   0.00000  Uiso   1.00
O236   O     0.90893   0.26843   0.31559   0.00000  Uiso   1.00
O237   O     0.85875   0.28248   0.36308   0.00000  Uiso   1.00
H238   H     0.87733   0.26673   0.38635   0.00000  Uiso   1.00
C239   C     0.86955   0.04760   0.32430   0.00000  Uiso   1.00
O240   O     0.90240   0.06670   0.32379   0.00000  Uiso   1.00
O241   O     0.84794   0.04634   0.36336   0.00000  Uiso   1.00
H242   H     0.86172   0.06369   0.38901   0.00000  Uiso   1.00
C243   C     0.79239   0.28486   0.17839   0.00000  Uiso   1.00
O244   O     0.75908   0.26797   0.18300   0.00000  Uiso   1.00
O245   O     0.80971   0.28391   0.13664   0.00000  Uiso   1.00
H246   H     0.79208   0.26738   0.11316   0.00000  Uiso   1.00
C247   C     0.08757   0.50002   0.25251   0.00000  Uiso   1.00
C248   C     0.24583   0.49990   0.24793   0.00000  Uiso   1.00
C249   C     0.09534   0.46999   0.01934   0.00000  Uiso   1.00
C250   C     0.23973   0.47629   0.48112   0.00000  Uiso   1.00
C251   C     0.02134   0.45774   0.25622   0.00000  Uiso   1.00
C252   C     0.31230   0.54177   0.24540   0.00000  Uiso   1.00
C253   C     0.31259   0.45737   0.24944   0.00000  Uiso   1.00
C254   C     0.02088   0.54208   0.25335   0.00000  Uiso   1.00
C255   C     0.29063   0.49960   0.24643   0.00000  Uiso   1.00
C256   C     0.04288   0.50000   0.25507   0.00000  Uiso   1.00
C257   C     0.14727   0.35805   0.21605   0.00000  Uiso   1.00
C258   C     0.18633   0.64176   0.28380   0.00000  Uiso   1.00
C259   C     0.18563   0.35768   0.28422   0.00000  Uiso   1.00
C260   C     0.14708   0.64209   0.21612   0.00000  Uiso   1.00
C261   C     0.16612   0.50009   0.16457   0.00000  Uiso   1.00
C262   C     0.16775   0.49989   0.33542   0.00000  Uiso   1.00
C263   C     0.20430   0.49385   0.40856   0.00000  Uiso   1.00
C264   C     0.12974   0.48958   0.09191   0.00000  Uiso   1.00
C265   C     0.16761   0.49882   0.38386   0.00000  Uiso   1.00
C266   C     0.16577   0.49974   0.11603   0.00000  Uiso   1.00
C267   C     0.13044   0.49721   0.40429   0.00000  Uiso   1.00
C268   C     0.20219   0.50539   0.09483   0.00000  Uiso   1.00
C269   C     0.12960   0.48818   0.45084   0.00000  Uiso   1.00
C270   C     0.20390   0.49490   0.04869   0.00000  Uiso   1.00
C271   C     0.16686   0.48734   0.47640   0.00000  Uiso   1.00
C272   C     0.16697   0.48808   0.02354   0.00000  Uiso   1.00
C273   C     0.20406   0.48616   0.45506   0.00000  Uiso   1.00
C274   C     0.13018   0.48290   0.04521   0.00000  Uiso   1.00
C275   C     0.09367   0.47725   0.47276   0.00000  Uiso   1.00
C276   C     0.24075   0.48753   0.02718   0.00000  Uiso   1.00
Cu277  Cu    0.16667   0.54689   0.25000   0.00000  Uiso   1.00
Cu278  Cu    0.16667   0.45311   0.25000   0.00000  Uiso   1.00
N279   N     0.16667   0.61736   0.25000   0.00000  Uiso   1.00
N280   N     0.16667   0.38264   0.25000   0.00000  Uiso   1.00
O281   O     0.10655   0.53958   0.25000   0.00000  Uiso   1.00
O282   O     0.22679   0.46042   0.25001   0.00000  Uiso   1.00
O283   O     0.22679   0.53958   0.25001   0.00000  Uiso   1.00
O284   O     0.10655   0.46042   0.25000   0.00000  Uiso   1.00
O285   O     0.16666   0.53960   0.18513   0.00000  Uiso   1.00
O286   O     0.16668   0.46040   0.31487   0.00000  Uiso   1.00
O287   O     0.16668   0.53960   0.31487   0.00000  Uiso   1.00
O288   O     0.16666   0.46040   0.18513   0.00000  Uiso   1.00
Cl289  Cl    0.24996   0.50484   0.38136   0.00000  Uiso   1.00
Cl290  Cl    0.08407   0.49324   0.12073   0.00000  Uiso   1.00
Cl291  Cl    0.08669   0.51197   0.37039   0.00000  Uiso   1.00
Cl292  Cl    0.24297   0.53065   0.12693   0.00000  Uiso   1.00
C293   C     0.05495   0.46798   0.44766   0.00000  Uiso   1.00
O294   O     0.02789   0.49671   0.44804   0.00000  Uiso   1.00
O295   O     0.04913   0.42732   0.42311   0.00000  Uiso   1.00
H296   H     0.07367   0.40625   0.42522   0.00000  Uiso   1.00
C297   C     0.27986   0.48646   0.05299   0.00000  Uiso   1.00
O298   O     0.30448   0.51705   0.04722   0.00000  Uiso   1.00
O299   O     0.28878   0.45149   0.08435   0.00000  Uiso   1.00
H300   H     0.26628   0.42791   0.08595   0.00000  Uiso   1.00
C301   C     0.06501   0.43924   0.03856   0.00000  Uiso   1.00
O302   O     0.03132   0.45381   0.04520   0.00000  Uiso   1.00
O303   O     0.07502   0.39323   0.04819   0.00000  Uiso   1.00
H304   H     0.05185   0.37557   0.06120   0.00000  Uiso   1.00
C305   C     0.27082   0.44433   0.46305   0.00000  Uiso   1.00
O306   O     0.30444   0.44069   0.48113   0.00000  Uiso   1.00
O307   O     0.26049   0.41549   0.42695   0.00000  Uiso   1.00
H308   H     0.28370   0.39494   0.41824   0.00000  Uiso   1.00
Cl309  Cl    0.04522   0.40428   0.27089   0.00000  Uiso   1.00
Cl310  Cl    0.28906   0.59517   0.22948   0.00000  Uiso   1.00
Cl311  Cl    0.28945   0.40247   0.24087   0.00000  Uiso   1.00
Cl312  Cl    0.04364   0.59632   0.26613   0.00000  Uiso   1.00
C313   C     0.12642   0.38190   0.17807   0.00000  Uiso   1.00
O314   O     0.09304   0.39906   0.18208   0.00000  Uiso   1.00
O315   O     0.14427   0.38200   0.13668   0.00000  Uiso   1.00
H316   H     0.12669   0.39746   0.11249   0.00000  Uiso   1.00
C317   C     0.20863   0.61762   0.32095   0.00000  Uiso   1.00
O318   O     0.24226   0.60176   0.31559   0.00000  Uiso   1.00
O319   O     0.19208   0.61581   0.36308   0.00000  Uiso   1.00
H320   H     0.21066   0.60006   0.38635   0.00000  Uiso   1.00
C321   C     0.20288   0.38093   0.32430   0.00000  Uiso   1.00
O322   O     0.23573   0.40003   0.32379   0.00000  Uiso   1.00
O323   O     0.18128   0.37967   0.36336   0.00000  Uiso   1.00
H324   H     0.19505   0.39702   0.38901   0.00000  Uiso   1.00
C325   C     0.12573   0.61820   0.17839   0.00000  Uiso   1.00
O326   O     0.09241   0.60131   0.18300   0.00000  Uiso   1.00
O327   O     0.14304   0.61724   0.13664   0.00000  Uiso   1.00
H328   H     0.12542   0.60071   0.11316   0.00000  Uiso   1.00
C329   C     0.42090   0.50002   0.25251   0.00000  Uiso   1.00
C330   C     0.57917   0.49990   0.24793   0.00000  Uiso   1.00
C331   C     0.42868   0.46999   0.01934   0.00000  Uiso   1.00
C332   C     0.57306   0.47629   0.48112   0.00000  Uiso   1.00
C333   C     0.35467   0.45774   0.25622   0.00000  Uiso   1.00
C334   C     0.64563   0.54177   0.24540   0.00000  Uiso   1.00
C335   C     0.64592   0.45737   0.24944   0.00000  Uiso   1.00
C336   C     0.35421   0.54208   0.25335   0.00000  Uiso   1.00
C337   C     0.62396   0.49960   0.24643   0.00000  Uiso   1.00
C338   C     0.37621   0.50000   0.25507   0.00000  Uiso   1.00
C339   C     0.48061   0.35805   0.21605   0.00000  Uiso   1.00
C340   C     0.51966   0.64176   0.28380   0.00000  Uiso   1.00
C341   C     0.51896   0.35768   0.28422   0.00000  Uiso   1.00
C342   C     0.48041   0.64209   0.21612   0.00000  Uiso   1.00
C343   C     0.49945   0.50009   0.16457   0.00000  Uiso   1.00
C344   C     0.50109   0.49989   0.33542   0.00000  Uiso   1.00
C345   C     0.53763   0.49385   0.40856   0.00000  Uiso   1.00
C346   C     0.46307   0.48958   0.09191   0.00000  Uiso   1.00
C347   C     0.50094   0.49882   0.38386   0.00000  Uiso   1.00
C348   C     0.49911   0.49974   0.11603   0.00000  Uiso   1.00
C349   C     0.46377   0.49721   0.40429   0.00000  Uiso   1.00
C350   C     0.53552   0.50539   0.09483   0.00000  Uiso   1.00
C351   C     0.46293   0.48818   0.45084   0.00000  Uiso   1.00
C352   C     0.53723   0.49490   0.04869   0.00000  Uiso   1.00
C353   C     0.50019   0.48734   0.47640   0.00000  Uiso   1.00
C354   C     0.50030   0.48808   0.02354   0.00000  Uiso   1.00
C355   C     0.53739   0.48616   0.45506   0.00000  Uiso   1.00
C356   C     0.46351   0.48290   0.04521   0.00000  Uiso   1.00
C357   C     0.42700   0.47725   0.47276   0.00000  Uiso   1.00
C358   C     0.57409   0.48753   0.02718   0.00000  Uiso   1.00
Cu359  Cu    0.50000   0.54689   0.25000   0.00000  Uiso   1.00
Cu360  Cu    0.50000   0.45311   0.25000   0.00000  Uiso   1.00
N361   N     0.50000   0.61736   0.25000   0.00000  Uiso   1.00
N362   N     0.50000   0.38264   0.25000   0.00000  Uiso   1.00
O363   O     0.43988   0.53958   0.25000   0.00000  Uiso   1.00
O364   O     0.56012   0.46042   0.25001   0.00000  Uiso   1.00
O365   O     0.56012   0.53958   0.25001   0.00000  Uiso   1.00
O366   O     0.43988   0.46042   0.25000   0.00000  Uiso   1.00
O367   O     0.49999   0.53960   0.18513   0.00000  Uiso   1.00
O368   O     0.50001   0.46040   0.31487   0.00000  Uiso   1.00
O369   O     0.50001   0.53960   0.31487   0.00000  Uiso   1.00
O370   O     0.49999   0.46040   0.18513   0.00000  Uiso   1.00
Cl371  Cl    0.58329   0.50484   0.38136   0.00000  Uiso   1.00
Cl372  Cl    0.41741   0.49324   0.12073   0.00000  Uiso   1.00
Cl373  Cl    0.42003   0.51197   0.37039   0.00000  Uiso   1.00
Cl374  Cl    0.57630   0.53065   0.12693   0.00000  Uiso   1.00
C375   C     0.38828   0.46798   0.44766   0.00000  Uiso   1.00
O376   O     0.36122   0.49671   0.44804   0.00000  Uiso   1.00
O377   O     0.38246   0.42732   0.42311   0.00000  Uiso   1.00
H378   H     0.40700   0.40625   0.42522   0.00000  Uiso   1.00
C379   C     0.61319   0.48646   0.05299   0.00000  Uiso   1.00
O380   O     0.63781   0.51705   0.04722   0.00000  Uiso   1.00
O381   O     0.62212   0.45149   0.08435   0.00000  Uiso   1.00
H382   H     0.59961   0.42791   0.08595   0.00000  Uiso   1.00
C383   C     0.39835   0.43924   0.03856   0.00000  Uiso   1.00
O384   O     0.36465   0.45381   0.04520   0.00000  Uiso   1.00
O385   O     0.40835   0.39323   0.04819   0.00000  Uiso   1.00
H386   H     0.38518   0.37557   0.06120   0.00000  Uiso   1.00
C387   C     0.60415   0.44433   0.46305   0.00000  Uiso   1.00
O388   O     0.63777   0.44069   0.48113   0.00000  Uiso   1.00
O389   O     0.59383   0.41549   0.42695   0.00000  Uiso   1.00
H390   H     0.61703   0.39494   0.41824   0.00000  Uiso   1.00
Cl391  Cl    0.37855   0.40428   0.27089   0.00000  Uiso   1.00
Cl392  Cl    0.62239   0.59517   0.22948   0.00000  Uiso   1.00
Cl393  Cl    0.62279   0.40247   0.24087   0.00000  Uiso   1.00
Cl394  Cl    0.37697   0.59632   0.26613   0.00000  Uiso   1.00
C395   C     0.45975   0.38190   0.17807   0.00000  Uiso   1.00
O396   O     0.42638   0.39906   0.18208   0.00000  Uiso   1.00
O397   O     0.47760   0.38200   0.13668   0.00000  Uiso   1.00
H398   H     0.46003   0.39746   0.11249   0.00000  Uiso   1.00
C399   C     0.54196   0.61762   0.32095   0.00000  Uiso   1.00
O400   O     0.57559   0.60176   0.31559   0.00000  Uiso   1.00
O401   O     0.52541   0.61581   0.36308   0.00000  Uiso   1.00
H402   H     0.54399   0.60006   0.38635   0.00000  Uiso   1.00
C403   C     0.53621   0.38093   0.32430   0.00000  Uiso   1.00
O404   O     0.56907   0.40003   0.32379   0.00000  Uiso   1.00
O405   O     0.51461   0.37967   0.36336   0.00000  Uiso   1.00
H406   H     0.52838   0.39702   0.38901   0.00000  Uiso   1.00
C407   C     0.45906   0.61820   0.17839   0.00000  Uiso   1.00
O408   O     0.42574   0.60131   0.18300   0.00000  Uiso   1.00
O409   O     0.47638   0.61724   0.13664   0.00000  Uiso   1.00
H410   H     0.45875   0.60071   0.11316   0.00000  Uiso   1.00
C411   C     0.75424   0.50002   0.25251   0.00000  Uiso   1.00
C412   C     0.91250   0.49990   0.24793   0.00000  Uiso   1.00
C413   C     0.76201   0.46999   0.01934   0.00000  Uiso   1.00
C414   C     0.90640   0.47629   0.48112   0.00000  Uiso   1.00
C415   C     0.68801   0.45774   0.25622   0.00000  Uiso   1.00
C416   C     0.97897   0.54177   0.24540   0.00000  Uiso   1.00
C417   C     0.97926   0.45737   0.24944   0.00000  Uiso   1.00
C418   C     0.68754   0.54208   0.25335   0.00000  Uiso   1.00
C419   C     0.95730   0.49960   0.24643   0.00000  Uiso   1.00
C420   C     0.70955   0.50000   0.25507   0.00000  Uiso   1.00
C421   C     0.81394   0.35805   0.21605   0.00000  Uiso   1.00
C422   C     0.85300   0.64176   0.28380   0.00000  Uiso   1.00
C423   C     0.85230   0.35768   0.28422   0.00000  Uiso   1.00
C424   C     0.81374   0.64209   0.21612   0.00000  Uiso   1.00
C425   C     0.83279   0.50009   0.16457   0.00000  Uiso   1.00
C426   C     0.83442   0.49989   0.33542   0.00000  Uiso   1.00
C427   C     0.87097   0.49385   0.40856   0.00000  Uiso   1.00
C428   C     0.79641   0.48958   0.09191   0.00000  Uiso   1.00
C429   C     0.83427   0.49882   0.38386   0.00000  Uiso   1.00
C430   C     0.83244   0.49974   0.11603   0.00000  Uiso   1.00
C431   C     0.79710   0.49721   0.40429   0.00000  Uiso   1.00
C432   C     0.86885   0.50539   0.09483   0.00000  Uiso   1.00
C433   C     0.79626   0.48818   0.45084   0.00000  Uiso   1.00
C434   C     0.87057   0.49490   0.04869   0.00000  Uiso   1.00
C435   C     0.83353   0.48734   0.47640   0.00000  Uiso   1.00
C436   C     0.83364   0.48808   0.02354   0.00000  Uiso   1.00
C437   C     0.87073   0.48616   0.45506   0.00000  Uiso   1.00
C438   C     0.79684   0.48290   0.04521   0.00000  Uiso   1.00
C439   C     0.76034   0.47725   0.47276   0.00000  Uiso   1.00
C440   C     0.90742   0.48753   0.02718   0.00000  Uiso   1.00
Cu441  Cu    0.83333   0.54689   0.25000   0.00000  Uiso   1.00
Cu442  Cu    0.83333   0.45311   0.25000   0.00000  Uiso   1.00
N443   N     0.83333   0.61736   0.25000   0.00000  Uiso   1.00
N444   N     0.83333   0.38264   0.25000   0.00000  Uiso   1.00
O445   O     0.77321   0.53958   0.25000   0.00000  Uiso   1.00
O446   O     0.89345   0.46042   0.25001   0.00000  Uiso   1.00
O447   O     0.89345   0.53958   0.25001   0.00000  Uiso   1.00
O448   O     0.77321   0.46042   0.25000   0.00000  Uiso   1.00
O449   O     0.83332   0.53960   0.18513   0.00000  Uiso   1.00
O450   O     0.83334   0.46040   0.31487   0.00000  Uiso   1.00
O451   O     0.83334   0.53960   0.31487   0.00000  Uiso   1.00
O452   O     0.83332   0.46040   0.18513   0.00000  Uiso   1.00
Cl453  Cl    0.91663   0.50484   0.38136   0.00000  Uiso   1.00
Cl454  Cl    0.75074   0.49324   0.12073   0.00000  Uiso   1.00
Cl455  Cl    0.75336   0.51197   0.37039   0.00000  Uiso   1.00
Cl456  Cl    0.90964   0.53065   0.12693   0.00000  Uiso   1.00
C457   C     0.72162   0.46798   0.44766   0.00000  Uiso   1.00
O458   O     0.69456   0.49671   0.44804   0.00000  Uiso   1.00
O459   O     0.71580   0.42732   0.42311   0.00000  Uiso   1.00
H460   H     0.74033   0.40625   0.42522   0.00000  Uiso   1.00
C461   C     0.94653   0.48646   0.05299   0.00000  Uiso   1.00
O462   O     0.97114   0.51705   0.04722   0.00000  Uiso   1.00
O463   O     0.95545   0.45149   0.08435   0.00000  Uiso   1.00
H464   H     0.93294   0.42791   0.08595   0.00000  Uiso   1.00
C465   C     0.73168   0.43924   0.03856   0.00000  Uiso   1.00
O466   O     0.69798   0.45381   0.04520   0.00000  Uiso   1.00
O467   O     0.74168   0.39323   0.04819   0.00000  Uiso   1.00
H468   H     0.71852   0.37557   0.06120   0.00000  Uiso   1.00
C469   C     0.93749   0.44433   0.46305   0.00000  Uiso   1.00
O470   O     0.97110   0.44069   0.48113   0.00000  Uiso   1.00
O471   O     0.92716   0.41549   0.42695   0.00000  Uiso   1.00
H472   H     0.95036   0.39494   0.41824   0.00000  Uiso   1.00
Cl473  Cl    0.71189   0.40428   0.27089   0.00000  Uiso   1.00
Cl474  Cl    0.95572   0.59517   0.22948   0.00000  Uiso   1.00
Cl475  Cl    0.95612   0.40247   0.24087   0.00000  Uiso   1.00
Cl476  Cl    0.71031   0.59632   0.26613   0.00000  Uiso   1.00
C477   C     0.79308   0.38190   0.17807   0.00000  Uiso   1.00
O478   O     0.75971   0.39906   0.18208   0.00000  Uiso   1.00
O479   O     0.81093   0.38200   0.13668   0.00000  Uiso   1.00
H480   H     0.79336   0.39746   0.11249   0.00000  Uiso   1.00
C481   C     0.87529   0.61762   0.32095   0.00000  Uiso   1.00
O482   O     0.90893   0.60176   0.31559   0.00000  Uiso   1.00
O483   O     0.85875   0.61581   0.36308   0.00000  Uiso   1.00
H484   H     0.87733   0.60006   0.38635   0.00000  Uiso   1.00
C485   C     0.86955   0.38093   0.32430   0.00000  Uiso   1.00
O486   O     0.90240   0.40003   0.32379   0.00000  Uiso   1.00
O487   O     0.84794   0.37967   0.36336   0.00000  Uiso   1.00
H488   H     0.86172   0.39702   0.38901   0.00000  Uiso   1.00
C489   C     0.79239   0.61820   0.17839   0.00000  Uiso   1.00
O490   O     0.75908   0.60131   0.18300   0.00000  Uiso   1.00
O491   O     0.80971   0.61724   0.13664   0.00000  Uiso   1.00
H492   H     0.79208   0.60071   0.11316   0.00000  Uiso   1.00
C493   C     0.08757   0.83336   0.25251   0.00000  Uiso   1.00
C494   C     0.24583   0.83323   0.24793   0.00000  Uiso   1.00
C495   C     0.09534   0.80332   0.01934   0.00000  Uiso   1.00
C496   C     0.23973   0.80962   0.48112   0.00000  Uiso   1.00
C497   C     0.02134   0.79107   0.25622   0.00000  Uiso   1.00
C498   C     0.31230   0.87510   0.24540   0.00000  Uiso   1.00
C499   C     0.31259   0.79071   0.24944   0.00000  Uiso   1.00
C500   C     0.02088   0.87541   0.25335   0.00000  Uiso   1.00
C501   C     0.29063   0.83293   0.24643   0.00000  Uiso   1.00
C502   C     0.04288   0.83333   0.25507   0.00000  Uiso   1.00
C503   C     0.14727   0.69139   0.21605   0.00000  Uiso   1.00
C504   C     0.18633   0.97510   0.28380   0.00000  Uiso   1.00
C505   C     0.18563   0.69101   0.28422   0.00000  Uiso   1.00
C506   C     0.14708   0.97542   0.21612   0.00000  Uiso   1.00
C507   C     0.16612   0.83343   0.16457   0.00000  Uiso   1.00
C508   C     0.16775   0.83322   0.33542   0.00000  Uiso   1.00
C509   C     0.20430   0.82718   0.40856   0.00000  Uiso   1.00
C510   C     0.12974   0.82291   0.09191   0.00000  Uiso   1.00
C511   C     0.16761   0.83215   0.38386   0.00000  Uiso   1.00
C512   C     0.16577   0.83307   0.11603   0.00000  Uiso   1.00
C513   C     0.13044   0.83054   0.40429   0.00000  Uiso   1.00
C514   C     0.20219   0.83872   0.09483   0.00000  Uiso   1.00
C515   C     0.12960   0.82151   0.45084   0.00000  Uiso   1.00
C516   C     0.20390   0.82823   0.04869   0.00000  Uiso   1.00
C517   C     0.16686   0.82067   0.47640   0.00000  Uiso   1.00
C518   C     0.16697   0.82142   0.02354   0.00000  Uiso   1.00
C519   C     0.20406   0.81950   0.45506   0.00000  Uiso   1.00
C520   C     0.13018   0.81623   0.04521   0.00000  Uiso   1.00
C521   C     0.09367   0.81058   0.47276   0.00000  Uiso   1.00
C522   C     0.24075   0.82086   0.02718   0.00000  Uiso   1.00
Cu523  Cu    0.16667   0.88022   0.25000   0.00000  Uiso   1.00
Cu524  Cu    0.16667   0.78645   0.25000   0.00000  Uiso   1.00
N525   N     0.16667   0.95069   0.25000   0.00000  Uiso   1.00
N526   N     0.16667   0.71598   0.25000   0.00000  Uiso   1.00
O527   O     0.10655   0.87291   0.25000   0.00000  Uiso   1.00
O528   O     0.22679   0.79375   0.25001   0.00000  Uiso   1.00
O529   O     0.22679   0.87291   0.25001   0.00000  Uiso   1.00
O530   O     0.10655   0.79375   0.25000   0.00000  Uiso   1.00
O531   O     0.16666   0.87293   0.18513   0.00000  Uiso   1.00
O532   O     0.16668   0.79373   0.31487   0.00000  Uiso   1.00
O533   O     0.16668   0.87293   0.31487   0.00000  Uiso   1.00
O534   O     0.16666   0.79373   0.18513   0.00000  Uiso   1.00
Cl535  Cl    0.24996   0.83818   0.38136   0.00000  Uiso   1.00
Cl536  Cl    0.08407   0.82658   0.12073   0.00000  Uiso   1.00
Cl537  Cl    0.08669   0.84530   0.37039   0.00000  Uiso   1.00
Cl538  Cl    0.24297   0.86398   0.12693   0.00000  Uiso   1.00
C539   C     0.05495   0.80131   0.44766   0.00000  Uiso   1.00
O540   O     0.02789   0.83004   0.44804   0.00000  Uiso   1.00
O541   O     0.04913   0.76065   0.42311   0.00000  Uiso   1.00
H542   H     0.07367   0.73958   0.42522   0.00000  Uiso   1.00
C543   C     0.27986   0.81979   0.05299   0.00000  Uiso   1.00
O544   O     0.30448   0.85038   0.04722   0.00000  Uiso   1.00
O545   O     0.28878   0.78482   0.08435   0.00000  Uiso   1.00
H546   H     0.26628   0.76124   0.08595   0.00000  Uiso   1.00
C547   C     0.06501   0.77258   0.03856   0.00000  Uiso   1.00
O548   O     0.03132   0.78714   0.04520   0.00000  Uiso   1.00
O549   O     0.07502   0.72656   0.04819   0.00000  Uiso   1.00
H550   H     0.05185   0.70890   0.06120   0.00000  Uiso   1.00
C551   C     0.27082   0.77767   0.46305   0.00000  Uiso   1.00
O552   O     0.30444   0.77402   0.48113   0.00000  Uiso   1.00
O553   O     0.26049   0.74883   0.42695   0.00000  Uiso   1.00
H554   H     0.28370   0.72827   0.41824   0.00000  Uiso   1.00
Cl555  Cl    0.04522   0.73761   0.27089   0.00000  Uiso   1.00
Cl556  Cl    0.28906   0.92850   0.22948   0.00000  Uiso   1.00
Cl557  Cl    0.28945   0.73581   0.24087   0.00000  Uiso   1.00
Cl558  Cl    0.04364   0.92966   0.26613   0.00000  Uiso   1.00
C559   C     0.12642   0.71523   0.17807   0.00000  Uiso   1.00
O560   O     0.09304   0.73240   0.18208   0.00000  Uiso   1.00
O561   O     0.14427   0.71533   0.13668   0.00000  Uiso   1.00
H562   H     0.12669   0.73080   0.11249   0.00000  Uiso   1.00
C563   C     0.20863   0.95095   0.32095   0.00000  Uiso   1.00
O564   O     0.24226   0.93510   0.31559   0.00000  Uiso   1.00
O565   O     0.19208   0.94914   0.36308   0.00000  Uiso   1.00
H566   H     0.21066   0.93339   0.38635   0.00000  Uiso   1.00
C567   C     0.20288   0.71427   0.32430   0.00000  Uiso   1.00
O568   O     0.23573   0.73337   0.32379   0.00000  Uiso   1.00
O569   O     0.18128   0.71300   0.36336   0.00000  Uiso   1.00
H570   H     0.19505   0.73036   0.38901   0.00000  Uiso   1.00
C571   C     0.12573   0.95153   0.17839   0.00000  Uiso   1.00
O572   O     0.09241   0.93464   0.18300   0.00000  Uiso   1.00
O573   O     0.14304   0.95057   0.13664   0.00000  Uiso   1.00
H574   H     0.12542   0.93404   0.11316   0.00000  Uiso   1.00
C575   C     0.42090   0.83336   0.25251   0.00000  Uiso   1.00
C576   C     0.57917   0.83323   0.24793   0.00000  Uiso   1.00
C577   C     0.42868   0.80332   0.01934   0.00000  Uiso   1.00
C578   C     0.57306   0.80962   0.48112   0.00000  Uiso   1.00
C579   C     0.35467   0.79107   0.25622   0.00000  Uiso   1.00
C580   C     0.64563   0.87510   0.24540   0.00000  Uiso   1.00
C581   C     0.64592   0.79071   0.24944   0.00000  Uiso   1.00
C582   C     0.35421   0.87541   0.25335   0.00000  Uiso   1.00
C583   C     0.62396   0.83293   0.24643   0.00000  Uiso   1.00
C584   C     0.37621   0.83333   0.25507   0.00000  Uiso   1.00
C585   C     0.48061   0.69139   0.21605   0.00000  Uiso   1.00
C586   C     0.51966   0.97510   0.28380   0.00000  Uiso   1.00
C587   C     0.51896   0.69101   0.28422   0.00000  Uiso   1.00
C588   C     0.48041   0.97542   0.21612   0.00000  Uiso   1.00
C589   C     0.49945   0.83343   0.16457   0.00000  Uiso   1.00
C590   C     0.50109   0.83322   0.33542   0.00000  Uiso   1.00
C591   C     0.53763   0.82718   0.40856   0.00000  Uiso   1.00
C592   C     0.46307   0.82291   0.09191   0.00000  Uiso   1.00
C593   C     0.50094   0.83215   0.38386   0.00000  Uiso   1.00
C594   C     0.49911   0.83307   0.11603   0.00000  Uiso   1.00
C595   C     0.46377   0.83054   0.40429   0.00000  Uiso   1.00
C596   C     0.53552   0.83872   0.09483   0.00000  Uiso   1.00
C597   C     0.46293   0.82151   0.45084   0.00000  Uiso   1.00
C598   C     0.53723   0.82823   0.04869   0.00000  Uiso   1.00
C599   C     0.50019   0.82067   0.47640   0.00000  Uiso   1.00
C600   C     0.50030   0.82142   0.02354   0.00000  Uiso   1.00
C601   C     0.53739   0.81950   0.45506   0.00000  Uiso   1.00
C602   C     0.46351   0.81623   0.04521   0.00000  Uiso   1.00
C603   C     0.42700   0.81058   0.47276   0.00000  Uiso   1.00
C604   C     0.57409   0.82086   0.02718   0.00000  Uiso   1.00
Cu605  Cu    0.50000   0.88022   0.25000   0.00000  Uiso   1.00
Cu606  Cu    0.50000   0.78645   0.25000   0.00000  Uiso   1.00
N607   N     0.50000   0.95069   0.25000   0.00000  Uiso   1.00
N608   N     0.50000   0.71598   0.25000   0.00000  Uiso   1.00
O609   O     0.43988   0.87291   0.25000   0.00000  Uiso   1.00
O610   O     0.56012   0.79375   0.25001   0.00000  Uiso   1.00
O611   O     0.56012   0.87291   0.25001   0.00000  Uiso   1.00
O612   O     0.43988   0.79375   0.25000   0.00000  Uiso   1.00
O613   O     0.49999   0.87293   0.18513   0.00000  Uiso   1.00
O614   O     0.50001   0.79373   0.31487   0.00000  Uiso   1.00
O615   O     0.50001   0.87293   0.31487   0.00000  Uiso   1.00
O616   O     0.49999   0.79373   0.18513   0.00000  Uiso   1.00
Cl617  Cl    0.58329   0.83818   0.38136   0.00000  Uiso   1.00
Cl618  Cl    0.41741   0.82658   0.12073   0.00000  Uiso   1.00
Cl619  Cl    0.42003   0.84530   0.37039   0.00000  Uiso   1.00
Cl620  Cl    0.57630   0.86398   0.12693   0.00000  Uiso   1.00
C621   C     0.38828   0.80131   0.44766   0.00000  Uiso   1.00
O622   O     0.36122   0.83004   0.44804   0.00000  Uiso   1.00
O623   O     0.38246   0.76065   0.42311   0.00000  Uiso   1.00
H624   H     0.40700   0.73958   0.42522   0.00000  Uiso   1.00
C625   C     0.61319   0.81979   0.05299   0.00000  Uiso   1.00
O626   O     0.63781   0.85038   0.04722   0.00000  Uiso   1.00
O627   O     0.62212   0.78482   0.08435   0.00000  Uiso   1.00
H628   H     0.59961   0.76124   0.08595   0.00000  Uiso   1.00
C629   C     0.39835   0.77258   0.03856   0.00000  Uiso   1.00
O630   O     0.36465   0.78714   0.04520   0.00000  Uiso   1.00
O631   O     0.40835   0.72656   0.04819   0.00000  Uiso   1.00
H632   H     0.38518   0.70890   0.06120   0.00000  Uiso   1.00
C633   C     0.60415   0.77767   0.46305   0.00000  Uiso   1.00
O634   O     0.63777   0.77402   0.48113   0.00000  Uiso   1.00
O635   O     0.59383   0.74883   0.42695   0.00000  Uiso   1.00
H636   H     0.61703   0.72827   0.41824   0.00000  Uiso   1.00
Cl637  Cl    0.37855   0.73761   0.27089   0.00000  Uiso   1.00
Cl638  Cl    0.62239   0.92850   0.22948   0.00000  Uiso   1.00
Cl639  Cl    0.62279   0.73581   0.24087   0.00000  Uiso   1.00
Cl640  Cl    0.37697   0.92966   0.26613   0.00000  Uiso   1.00
C641   C     0.45975   0.71523   0.17807   0.00000  Uiso   1.00
O642   O     0.42638   0.73240   0.18208   0.00000  Uiso   1.00
O643   O     0.47760   0.71533   0.13668   0.00000  Uiso   1.00
H644   H     0.46003   0.73080   0.11249   0.00000  Uiso   1.00
C645   C     0.54196   0.95095   0.32095   0.00000  Uiso   1.00
O646   O     0.57559   0.93510   0.31559   0.00000  Uiso   1.00
O647   O     0.52541   0.94914   0.36308   0.00000  Uiso   1.00
H648   H     0.54399   0.93339   0.38635   0.00000  Uiso   1.00
C649   C     0.53621   0.71427   0.32430   0.00000  Uiso   1.00
O650   O     0.56907   0.73337   0.32379   0.00000  Uiso   1.00
O651   O     0.51461   0.71300   0.36336   0.00000  Uiso   1.00
H652   H     0.52838   0.73036   0.38901   0.00000  Uiso   1.00
C653   C     0.45906   0.95153   0.17839   0.00000  Uiso   1.00
O654   O     0.42574   0.93464   0.18300   0.00000  Uiso   1.00
O655   O     0.47638   0.95057   0.13664   0.00000  Uiso   1.00
H656   H     0.45875   0.93404   0.11316   0.00000  Uiso   1.00
C657   C     0.75424   0.83336   0.25251   0.00000  Uiso   1.00
C658   C     0.91250   0.83323   0.24793   0.00000  Uiso   1.00
C659   C     0.76201   0.80332   0.01934   0.00000  Uiso   1.00
C660   C     0.90640   0.80962   0.48112   0.00000  Uiso   1.00
C661   C     0.68801   0.79107   0.25622   0.00000  Uiso   1.00
C662   C     0.97897   0.87510   0.24540   0.00000  Uiso   1.00
C663   C     0.97926   0.79071   0.24944   0.00000  Uiso   1.00
C664   C     0.68754   0.87541   0.25335   0.00000  Uiso   1.00
C665   C     0.95730   0.83293   0.24643   0.00000  Uiso   1.00
C666   C     0.70955   0.83333   0.25507   0.00000  Uiso   1.00
C667   C     0.81394   0.69139   0.21605   0.00000  Uiso   1.00
C668   C     0.85300   0.97510   0.28380   0.00000  Uiso   1.00
C669   C     0.85230   0.69101   0.28422   0.00000  Uiso   1.00
C670   C     0.81374   0.97542   0.21612   0.00000  Uiso   1.00
C671   C     0.83279   0.83343   0.16457   0.00000  Uiso   1.00
C672   C     0.83442   0.83322   0.33542   0.00000  Uiso   1.00
C673   C     0.87097   0.82718   0.40856   0.00000  Uiso   1.00
C674   C     0.79641   0.82291   0.09191   0.00000  Uiso   1.00
C675   C     0.83427   0.83215   0.38386   0.00000  Uiso   1.00
C676   C     0.83244   0.83307   0.11603   0.00000  Uiso   1.00
C677   C     0.79710   0.83054   0.40429   0.00000  Uiso   1.00
C678   C     0.86885   0.83872   0.09483   0.00000  Uiso   1.00
C679   C     0.79626   0.82151   0.45084   0.00000  Uiso   1.00
C680   C     0.87057   0.82823   0.04869   0.00000  Uiso   1.00
C681   C     0.83353   0.82067   0.47640   0.00000  Uiso   1.00
C682   C     0.83364   0.82142   0.02354   0.00000  Uiso   1.00
C683   C     0.87073   0.81950   0.45506   0.00000  Uiso   1.00
C684   C     0.79684   0.81623   0.04521   0.00000  Uiso   1.00
C685   C     0.76034   0.81058   0.47276   0.00000  Uiso   1.00
C686   C     0.90742   0.82086   0.02718   0.00000  Uiso   1.00
Cu687  Cu    0.83333   0.88022   0.25000   0.00000  Uiso   1.00
Cu688  Cu    0.83333   0.78645   0.25000   0.00000  Uiso   1.00
N689   N     0.83333   0.95069   0.25000   0.00000  Uiso   1.00
N690   N     0.83333   0.71598   0.25000   0.00000  Uiso   1.00
O691   O     0.77321   0.87291   0.25000   0.00000  Uiso   1.00
O692   O     0.89345   0.79375   0.25001   0.00000  Uiso   1.00
O693   O     0.89345   0.87291   0.25001   0.00000  Uiso   1.00
O694   O     0.77321   0.79375   0.25000   0.00000  Uiso   1.00
O695   O     0.83332   0.87293   0.18513   0.00000  Uiso   1.00
O696   O     0.83334   0.79373   0.31487   0.00000  Uiso   1.00
O697   O     0.83334   0.87293   0.31487   0.00000  Uiso   1.00
O698   O     0.83332   0.79373   0.18513   0.00000  Uiso   1.00
Cl699  Cl    0.91663   0.83818   0.38136   0.00000  Uiso   1.00
Cl700  Cl    0.75074   0.82658   0.12073   0.00000  Uiso   1.00
Cl701  Cl    0.75336   0.84530   0.37039   0.00000  Uiso   1.00
Cl702  Cl    0.90964   0.86398   0.12693   0.00000  Uiso   1.00
C703   C     0.72162   0.80131   0.44766   0.00000  Uiso   1.00
O704   O     0.69456   0.83004   0.44804   0.00000  Uiso   1.00
O705   O     0.71580   0.76065   0.42311   0.00000  Uiso   1.00
H706   H     0.74033   0.73958   0.42522   0.00000  Uiso   1.00
C707   C     0.94653   0.81979   0.05299   0.00000  Uiso   1.00
O708   O     0.97114   0.85038   0.04722   0.00000  Uiso   1.00
O709   O     0.95545   0.78482   0.08435   0.00000  Uiso   1.00
H710   H     0.93294   0.76124   0.08595   0.00000  Uiso   1.00
C711   C     0.73168   0.77258   0.03856   0.00000  Uiso   1.00
O712   O     0.69798   0.78714   0.04520   0.00000  Uiso   1.00
O713   O     0.74168   0.72656   0.04819   0.00000  Uiso   1.00
H714   H     0.71852   0.70890   0.06120   0.00000  Uiso   1.00
C715   C     0.93749   0.77767   0.46305   0.00000  Uiso   1.00
O716   O     0.97110   0.77402   0.48113   0.00000  Uiso   1.00
O717   O     0.92716   0.74883   0.42695   0.00000  Uiso   1.00
H718   H     0.95036   0.72827   0.41824   0.00000  Uiso   1.00
Cl719  Cl    0.71189   0.73761   0.27089   0.00000  Uiso   1.00
Cl720  Cl    0.95572   0.92850   0.22948   0.00000  Uiso   1.00
Cl721  Cl    0.95612   0.73581   0.24087   0.00000  Uiso   1.00
Cl722  Cl    0.71031   0.92966   0.26613   0.00000  Uiso   1.00
C723   C     0.79308   0.71523   0.17807   0.00000  Uiso   1.00
O724   O     0.75971   0.73240   0.18208   0.00000  Uiso   1.00
O725   O     0.81093   0.71533   0.13668   0.00000  Uiso   1.00
H726   H     0.79336   0.73080   0.11249   0.00000  Uiso   1.00
C727   C     0.87529   0.95095   0.32095   0.00000  Uiso   1.00
O728   O     0.90893   0.93510   0.31559   0.00000  Uiso   1.00
O729   O     0.85875   0.94914   0.36308   0.00000  Uiso   1.00
H730   H     0.87733   0.93339   0.38635   0.00000  Uiso   1.00
C731   C     0.86955   0.71427   0.32430   0.00000  Uiso   1.00
O732   O     0.90240   0.73337   0.32379   0.00000  Uiso   1.00
O733   O     0.84794   0.71300   0.36336   0.00000  Uiso   1.00
H734   H     0.86172   0.73036   0.38901   0.00000  Uiso   1.00
C735   C     0.79239   0.95153   0.17839   0.00000  Uiso   1.00
O736   O     0.75908   0.93464   0.18300   0.00000  Uiso   1.00
O737   O     0.80971   0.95057   0.13664   0.00000  Uiso   1.00
H738   H     0.79208   0.93404   0.11316   0.00000  Uiso   1.00
C739   C     0.08757   0.16669   0.75251   0.00000  Uiso   1.00
C740   C     0.24583   0.16657   0.74793   0.00000  Uiso   1.00
C741   C     0.09534   0.13665   0.51934   0.00000  Uiso   1.00
C742   C     0.23973   0.14295   0.98112   0.00000  Uiso   1.00
C743   C     0.02134   0.12440   0.75622   0.00000  Uiso   1.00
C744   C     0.31230   0.20844   0.74540   0.00000  Uiso   1.00
C745   C     0.31259   0.12404   0.74944   0.00000  Uiso   1.00
C746   C     0.02088   0.20874   0.75335   0.00000  Uiso   1.00
C747   C     0.29063   0.16626   0.74643   0.00000  Uiso   1.00
C748   C     0.04288   0.16666   0.75507   0.00000  Uiso   1.00
C749   C     0.14727   0.02472   0.71605   0.00000  Uiso   1.00
C750   C     0.18633   0.30843   0.78380   0.00000  Uiso   1.00
C751   C     0.18563   0.02435   0.78422   0.00000  Uiso   1.00
C752   C     0.14708   0.30876   0.71612   0.00000  Uiso   1.00
C753   C     0.16612   0.16676   0.66457   0.00000  Uiso   1.00
C754   C     0.16775   0.16656   0.83542   0.00000  Uiso   1.00
C755   C     0.20430   0.16052   0.90856   0.00000  Uiso   1.00
C756   C     0.12974   0.15624   0.59191   0.00000  Uiso   1.00
C757   C     0.16761   0.16548   0.88386   0.00000  Uiso   1.00
C758   C     0.16577   0.16640   0.61603   0.00000  Uiso   1.00
C759   C     0.13044   0.16388   0.90429   0.00000  Uiso   1.00
C760   C     0.20219   0.17206   0.59483   0.00000  Uiso   1.00
C761   C     0.12960   0.15485   0.95084   0.00000  Uiso   1.00
C762   C     0.20390   0.16157   0.54869   0.00000  Uiso   1.00
C763   C     0.16686   0.15401   0.97640   0.00000  Uiso   1.00
C764   C     0.16697   0.15475   0.52354   0.00000  Uiso   1.00
C765   C     0.20406   0.15283   0.95506   0.00000  Uiso   1.00
C766   C     0.13018   0.14957   0.54521   0.00000  Uiso   1.00
C767   C     0.09367   0.14392   0.97276   0.00000  Uiso   1.00
C768   C     0.24075   0.15419   0.52718   0.00000  Uiso   1.00
Cu769  Cu    0.16667   0.21355   0.75000   0.00000  Uiso   1.00
Cu770  Cu    0.16667   0.11978   0.75000   0.00000  Uiso   1.00
N771   N     0.16667   0.28402   0.75000   0.00000  Uiso   1.00
N772   N     0.16667   0.04931   0.75000   0.00000  Uiso   1.00
O773   O     0.10655   0.20625   0.75000   0.00000  Uiso   1.00
O774   O     0.22679   0.12709   0.75001   0.00000  Uiso   1.00
O775   O     0.22679   0.20625   0.75001   0.00000  Uiso   1.00
O776   O     0.10655   0.12709   0.75000   0.00000  Uiso   1.00
O777   O     0.16666   0.20627   0.68513   0.00000  Uiso   1.00
O778   O     0.16668   0.12707   0.81487   0.00000  Uiso   1.00
O779   O     0.16668   0.20627   0.81487   0.00000  Uiso   1.00
O780   O     0.16666   0.12707   0.68513   0.00000  Uiso   1.00
Cl781  Cl    0.24996   0.17151   0.88136   0.00000  Uiso   1.00
Cl782  Cl    0.08407   0.15991   0.62073   0.00000  Uiso   1.00
Cl783  Cl    0.08669   0.17863   0.87039   0.00000  Uiso   1.00
Cl784  Cl    0.24297   0.19732   0.62693   0.00000  Uiso   1.00
C785   C     0.05495   0.13465   0.94766   0.00000  Uiso   1.00
O786   O     0.02789   0.16337   0.94804   0.00000  Uiso   1.00
O787   O     0.04913   0.09399   0.92311   0.00000  Uiso   1.00
H788   H     0.07367   0.07292   0.92522   0.00000  Uiso   1.00
C789   C     0.27986   0.15312   0.55299   0.00000  Uiso   1.00
O790   O     0.30448   0.18371   0.54722   0.00000  Uiso   1.00
O791   O     0.28878   0.11816   0.58435   0.00000  Uiso   1.00
H792   H     0.26628   0.09457   0.58595   0.00000  Uiso   1.00
C793   C     0.06501   0.10591   0.53856   0.00000  Uiso   1.00
O794   O     0.03132   0.12048   0.54520   0.00000  Uiso   1.00
O795   O     0.07502   0.05990   0.54819   0.00000  Uiso   1.00
H796   H     0.05185   0.04223   0.56120   0.00000  Uiso   1.00
C797   C     0.27082   0.11100   0.96305   0.00000  Uiso   1.00
O798   O     0.30444   0.10736   0.98113   0.00000  Uiso   1.00
O799   O     0.26049   0.08216   0.92695   0.00000  Uiso   1.00
H800   H     0.28370   0.06160   0.91824   0.00000  Uiso   1.00
Cl801  Cl    0.04522   0.07095   0.77089   0.00000  Uiso   1.00
Cl802  Cl    0.28906   0.26183   0.72948   0.00000  Uiso   1.00
Cl803  Cl    0.28945   0.06914   0.74087   0.00000  Uiso   1.00
Cl804  Cl    0.04364   0.26299   0.76613   0.00000  Uiso   1.00
C805   C     0.12642   0.04857   0.67807   0.00000  Uiso   1.00
O806   O     0.09304   0.06573   0.68208   0.00000  Uiso   1.00
O807   O     0.14427   0.04866   0.63668   0.00000  Uiso   1.00
H808   H     0.12669   0.06413   0.61249   0.00000  Uiso   1.00
C809   C     0.20863   0.28428   0.82095   0.00000  Uiso   1.00
O810   O     0.24226   0.26843   0.81559   0.00000  Uiso   1.00
O811   O     0.19208   0.28248   0.86308   0.00000  Uiso   1.00
H812   H     0.21066   0.26673   0.88635   0.00000  Uiso   1.00
C813   C     0.20288   0.04760   0.82430   0.00000  Uiso   1.00
O814   O     0.23573   0.06670   0.82379   0.00000  Uiso   1.00
O815   O     0.18128   0.04634   0.86336   0.00000  Uiso   1.00
H816   H     0.19505   0.06369   0.88901   0.00000  Uiso   1.00
C817   C     0.12573   0.28486   0.67839   0.00000  Uiso   1.00
O818   O     0.09241   0.26797   0.68300   0.00000  Uiso   1.00
O819   O     0.14304   0.28391   0.63664   0.00000  Uiso   1.00
H820   H     0.12542   0.26738   0.61316   0.00000  Uiso   1.00
C821   C     0.42090   0.16669   0.75251   0.00000  Uiso   1.00
C822   C     0.57917   0.16657   0.74793   0.00000  Uiso   1.00
C823   C     0.42868   0.13665   0.51934   0.00000  Uiso   1.00
C824   C     0.57306   0.14295   0.98112   0.00000  Uiso   1.00
C825   C     0.35467   0.12440   0.75622   0.00000  Uiso   1.00
C826   C     0.64563   0.20844   0.74540   0.00000  Uiso   1.00
C827   C     0.64592   0.12404   0.74944   0.00000  Uiso   1.00
C828   C     0.35421   0.20874   0.75335   0.00000  Uiso   1.00
C829   C     0.62396   0.16626   0.74643   0.00000  Uiso   1.00
C830   C     0.37621   0.16666   0.75507   0.00000  Uiso   1.00
C831   C     0.48061   0.02472   0.71605   0.00000  Uiso   1.00
C832   C     0.51966   0.30843   0.78380   0.00000  Uiso   1.00
C833   C     0.51896   0.02435   0.78422   0.00000  Uiso   1.00
C834   C     0.48041   0.30876   0.71612   0.00000  Uiso   1.00
C835   C     0.49945   0.16676   0.66457   0.00000  Uiso   1.00
C836   C     0.50109   0.16656   0.83542   0.00000  Uiso   1.00
C837   C     0.53763   0.16052   0.90856   0.00000  Uiso   1.00
C838   C     0.46307   0.15624   0.59191   0.00000  Uiso   1.00
C839   C     0.50094   0.16548   0.88386   0.00000  Uiso   1.00
C840   C     0.49911   0.16640   0.61603   0.00000  Uiso   1.00
C841   C     0.46377   0.16388   0.90429   0.00000  Uiso   1.00
C842   C     0.53552   0.17206   0.59483   0.00000  Uiso   1.00
C843   C     0.46293   0.15485   0.95084   0.00000  Uiso   1.00
C844   C     0.53723   0.16157   0.54869   0.00000  Uiso   1.00
C845   C     0.50019   0.15401   0.97640   0.00000  Uiso   1.00
C846   C     0.50030   0.15475   0.52354   0.00000  Uiso   1.00
C847   C     0.53739   0.15283   0.95506   0.00000  Uiso   1.00
C848   C     0.46351   0.14957   0.54521   0.00000  Uiso   1.00
C849   C     0.42700   0.14392   0.97276   0.00000  Uiso   1.00
C850   C     0.57409   0.15419   0.52718   0.00000  Uiso   1.00
Cu851  Cu    0.50000   0.21355   0.75000   0.00000  Uiso   1.00
Cu852  Cu    0.50000   0.11978   0.75000   0.00000  Uiso   1.00
N853   N     0.50000   0.28402   0.75000   0.00000  Uiso   1.00
N854   N     0.50000   0.04931   0.75000   0.00000  Uiso   1.00
O855   O     0.43988   0.20625   0.75000   0.00000  Uiso   1.00
O856   O     0.56012   0.12709   0.75001   0.00000  Uiso   1.00
O857   O     0.56012   0.20625   0.75001   0.00000  Uiso   1.00
O858   O     0.43988   0.12709   0.75000   0.00000  Uiso   1.00
O859   O     0.49999   0.20627   0.68513   0.00000  Uiso   1.00
O860   O     0.50001   0.12707   0.81487   0.00000  Uiso   1.00
O861   O     0.50001   0.20627   0.81487   0.00000  Uiso   1.00
O862   O     0.49999   0.12707   0.68513   0.00000  Uiso   1.00
Cl863  Cl    0.58329   0.17151   0.88136   0.00000  Uiso   1.00
Cl864  Cl    0.41741   0.15991   0.62073   0.00000  Uiso   1.00
Cl865  Cl    0.42003   0.17863   0.87039   0.00000  Uiso   1.00
Cl866  Cl    0.57630   0.19732   0.62693   0.00000  Uiso   1.00
C867   C     0.38828   0.13465   0.94766   0.00000  Uiso   1.00
O868   O     0.36122   0.16337   0.94804   0.00000  Uiso   1.00
O869   O     0.38246   0.09399   0.92311   0.00000  Uiso   1.00
H870   H     0.40700   0.07292   0.92522   0.00000  Uiso   1.00
C871   C     0.61319   0.15312   0.55299   0.00000  Uiso   1.00
O872   O     0.63781   0.18371   0.54722   0.00000  Uiso   1.00
O873   O     0.62212   0.11816   0.58435   0.00000  Uiso   1.00
H874   H     0.59961   0.09457   0.58595   0.00000  Uiso   1.00
C875   C     0.39835   0.10591   0.53856   0.00000  Uiso   1.00
O876   O     0.36465   0.12048   0.54520   0.00000  Uiso   1.00
O877   O     0.40835   0.05990   0.54819   0.00000  Uiso   1.00
H878   H     0.38518   0.04223   0.56120   0.00000  Uiso   1.00
C879   C     0.60415   0.11100   0.96305   0.00000  Uiso   1.00
O880   O     0.63777   0.10736   0.98113   0.00000  Uiso   1.00
O881   O     0.59383   0.08216   0.92695   0.00000  Uiso   1.00
H882   H     0.61703   0.06160   0.91824   0.00000  Uiso   1.00
Cl883  Cl    0.37855   0.07095   0.77089   0.00000  Uiso   1.00
Cl884  Cl    0.62239   0.26183   0.72948   0.00000  Uiso   1.00
Cl885  Cl    0.62279   0.06914   0.74087   0.00000  Uiso   1.00
Cl886  Cl    0.37697   0.26299   0.76613   0.00000  Uiso   1.00
C887   C     0.45975   0.04857   0.67807   0.00000  Uiso   1.00
O888   O     0.42638   0.06573   0.68208   0.00000  Uiso   1.00
O889   O     0.47760   0.04866   0.63668   0.00000  Uiso   1.00
H890   H     0.46003   0.06413   0.61249   0.00000  Uiso   1.00
C891   C     0.54196   0.28428   0.82095   0.00000  Uiso   1.00
O892   O     0.57559   0.26843   0.81559   0.00000  Uiso   1.00
O893   O     0.52541   0.28248   0.86308   0.00000  Uiso   1.00
H894   H     0.54399   0.26673   0.88635   0.00000  Uiso   1.00
C895   C     0.53621   0.04760   0.82430   0.00000  Uiso   1.00
O896   O     0.56907   0.06670   0.82379   0.00000  Uiso   1.00
O897   O     0.51461   0.04634   0.86336   0.00000  Uiso   1.00
H898   H     0.52838   0.06369   0.88901   0.00000  Uiso   1.00
C899   C     0.45906   0.28486   0.67839   0.00000  Uiso   1.00
O900   O     0.42574   0.26797   0.68300   0.00000  Uiso   1.00
O901   O     0.47638   0.28391   0.63664   0.00000  Uiso   1.00
H902   H     0.45875   0.26738   0.61316   0.00000  Uiso   1.00
C903   C     0.75424   0.16669   0.75251   0.00000  Uiso   1.00
C904   C     0.91250   0.16657   0.74793   0.00000  Uiso   1.00
C905   C     0.76201   0.13665   0.51934   0.00000  Uiso   1.00
C906   C     0.90640   0.14295   0.98112   0.00000  Uiso   1.00
C907   C     0.68801   0.12440   0.75622   0.00000  Uiso   1.00
C908   C     0.97897   0.20844   0.74540   0.00000  Uiso   1.00
C909   C     0.97926   0.12404   0.74944   0.00000  Uiso   1.00
C910   C     0.68754   0.20874   0.75335   0.00000  Uiso   1.00
C911   C     0.95730   0.16626   0.74643   0.00000  Uiso   1.00
C912   C     0.70955   0.16666   0.75507   0.00000  Uiso   1.00
C913   C     0.81394   0.02472   0.71605   0.00000  Uiso   1.00
C914   C     0.85300   0.30843   0.78380   0.00000  Uiso   1.00
C915   C     0.85230   0.02435   0.78422   0.00000  Uiso   1.00
C916   C     0.81374   0.30876   0.71612   0.00000  Uiso   1.00
C917   C     0.83279   0.16676   0.66457   0.00000  Uiso   1.00
C918   C     0.83442   0.16656   0.83542   0.00000  Uiso   1.00
C919   C     0.87097   0.16052   0.90856   0.00000  Uiso   1.00
C920   C     0.79641   0.15624   0.59191   0.00000  Uiso   1.00
C921   C     0.83427   0.16548   0.88386   0.00000  Uiso   1.00
C922   C     0.83244   0.16640   0.61603   0.00000  Uiso   1.00
C923   C     0.79710   0.16388   0.90429   0.00000  Uiso   1.00
C924   C     0.86885   0.17206   0.59483   0.00000  Uiso   1.00
C925   C     0.79626   0.15485   0.95084   0.00000  Uiso   1.00
C926   C     0.87057   0.16157   0.54869   0.00000  Uiso   1.00
C927   C     0.83353   0.15401   0.97640   0.00000  Uiso   1.00
C928   C     0.83364   0.15475   0.52354   0.00000  Uiso   1.00
C929   C     0.87073   0.15283   0.95506   0.00000  Uiso   1.00
C930   C     0.79684   0.14957   0.54521   0.00000  Uiso   1.00
C931   C     0.76034   0.14392   0.97276   0.00000  Uiso   1.00
C932   C     0.90742   0.15419   0.52718   0.00000  Uiso   1.00
Cu933  Cu    0.83333   0.21355   0.75000   0.00000  Uiso   1.00
Cu934  Cu    0.83333   0.11978   0.75000   0.00000  Uiso   1.00
N935   N     0.83333   0.28402   0.75000   0.00000  Uiso   1.00
N936   N     0.83333   0.04931   0.75000   0.00000  Uiso   1.00
O937   O     0.77321   0.20625   0.75000   0.00000  Uiso   1.00
O938   O     0.89345   0.12709   0.75001   0.00000  Uiso   1.00
O939   O     0.89345   0.20625   0.75001   0.00000  Uiso   1.00
O940   O     0.77321   0.12709   0.75000   0.00000  Uiso   1.00
O941   O     0.83332   0.20627   0.68513   0.00000  Uiso   1.00
O942   O     0.83334   0.12707   0.81487   0.00000  Uiso   1.00
O943   O     0.83334   0.20627   0.81487   0.00000  Uiso   1.00
O944   O     0.83332   0.12707   0.68513   0.00000  Uiso   1.00
Cl945  Cl    0.91663   0.17151   0.88136   0.00000  Uiso   1.00
Cl946  Cl    0.75074   0.15991   0.62073   0.00000  Uiso   1.00
Cl947  Cl    0.75336   0.17863   0.87039   0.00000  Uiso   1.00
Cl948  Cl    0.90964   0.19732   0.62693   0.00000  Uiso   1.00
C949   C     0.72162   0.13465   0.94766   0.00000  Uiso   1.00
O950   O     0.69456   0.16337   0.94804   0.00000  Uiso   1.00
O951   O     0.71580   0.09399   0.92311   0.00000  Uiso   1.00
H952   H     0.74033   0.07292   0.92522   0.00000  Uiso   1.00
C953   C     0.94653   0.15312   0.55299   0.00000  Uiso   1.00
O954   O     0.97114   0.18371   0.54722   0.00000  Uiso   1.00
O955   O     0.95545   0.11816   0.58435   0.00000  Uiso   1.00
H956   H     0.93294   0.09457   0.58595   0.00000  Uiso   1.00
C957   C     0.73168   0.10591   0.53856   0.00000  Uiso   1.00
O958   O     0.69798   0.12048   0.54520   0.00000  Uiso   1.00
O959   O     0.74168   0.05990   0.54819   0.00000  Uiso   1.00
H960   H     0.71852   0.04223   0.56120   0.00000  Uiso   1.00
C961   C     0.93749   0.11100   0.96305   0.00000  Uiso   1.00
O962   O     0.97110   0.10736   0.98113   0.00000  Uiso   1.00
O963   O     0.92716   0.08216   0.92695   0.00000  Uiso   1.00
H964   H     0.95036   0.06160   0.91824   0.00000  Uiso   1.00
Cl965  Cl    0.71189   0.07095   0.77089   0.00000  Uiso   1.00
Cl966  Cl    0.95572   0.26183   0.72948   0.00000  Uiso   1.00
Cl967  Cl    0.95612   0.06914   0.74087   0.00000  Uiso   1.00
Cl968  Cl    0.71031   0.26299   0.76613   0.00000  Uiso   1.00
C969   C     0.79308   0.04857   0.67807   0.00000  Uiso   1.00
O970   O     0.75971   0.06573   0.68208   0.00000  Uiso   1.00
O971   O     0.81093   0.04866   0.63668   0.00000  Uiso   1.00
H972   H     0.79336   0.06413   0.61249   0.00000  Uiso   1.00
C973   C     0.87529   0.28428   0.82095   0.00000  Uiso   1.00
O974   O     0.90893   0.26843   0.81559   0.00000  Uiso   1.00
O975   O     0.85875   0.28248   0.86308   0.00000  Uiso   1.00
H976   H     0.87733   0.26673   0.88635   0.00000  Uiso   1.00
C977   C     0.86955   0.04760   0.82430   0.00000  Uiso   1.00
O978   O     0.90240   0.06670   0.82379   0.00000  Uiso   1.00
O979   O     0.84794   0.04634   0.86336   0.00000  Uiso   1.00
H980   H     0.86172   0.06369   0.88901   0.00000  Uiso   1.00
C981   C     0.79239   0.28486   0.67839   0.00000  Uiso   1.00
O982   O     0.75908   0.26797   0.68300   0.00000  Uiso   1.00
O983   O     0.80971   0.28391   0.63664   0.00000  Uiso   1.00
H984   H     0.79208   0.26738   0.61316   0.00000  Uiso   1.00
C985   C     0.08757   0.50002   0.75251   0.00000  Uiso   1.00
C986   C     0.24583   0.49990   0.74793   0.00000  Uiso   1.00
C987   C     0.09534   0.46999   0.51934   0.00000  Uiso   1.00
C988   C     0.23973   0.47629   0.98112   0.00000  Uiso   1.00
C989   C     0.02134   0.45774   0.75622   0.00000  Uiso   1.00
C990   C     0.31230   0.54177   0.74540   0.00000  Uiso   1.00
C991   C     0.31259   0.45737   0.74944   0.00000  Uiso   1.00
C992   C     0.02088   0.54208   0.75335   0.00000  Uiso   1.00
C993   C     0.29063   0.49960   0.74643   0.00000  Uiso   1.00
C994   C     0.04288   0.50000   0.75507   0.00000  Uiso   1.00
C995   C     0.14727   0.35805   0.71605   0.00000  Uiso   1.00
C996   C     0.18633   0.64176   0.78380   0.00000  Uiso   1.00
C997   C     0.18563   0.35768   0.78422   0.00000  Uiso   1.00
C998   C     0.14708   0.64209   0.71612   0.00000  Uiso   1.00
C999   C     0.16612   0.50009   0.66457   0.00000  Uiso   1.00
C1000  C     0.16775   0.49989   0.83542   0.00000  Uiso   1.00
C1001  C     0.20430   0.49385   0.90856   0.00000  Uiso   1.00
C1002  C     0.12974   0.48958   0.59191   0.00000  Uiso   1.00
C1003  C     0.16761   0.49882   0.88386   0.00000  Uiso   1.00
C1004  C     0.16577   0.49974   0.61603   0.00000  Uiso   1.00
C1005  C     0.13044   0.49721   0.90429   0.00000  Uiso   1.00
C1006  C     0.20219   0.50539   0.59483   0.00000  Uiso   1.00
C1007  C     0.12960   0.48818   0.95084   0.00000  Uiso   1.00
C1008  C     0.20390   0.49490   0.54869   0.00000  Uiso   1.00
C1009  C     0.16686   0.48734   0.97640   0.00000  Uiso   1.00
C1010  C     0.16697   0.48808   0.52354   0.00000  Uiso   1.00
C1011  C     0.20406   0.48616   0.95506   0.00000  Uiso   1.00
C1012  C     0.13018   0.48290   0.54521   0.00000  Uiso   1.00
C1013  C     0.09367   0.47725   0.97276   0.00000  Uiso   1.00
C1014  C     0.24075   0.48753   0.52718   0.00000  Uiso   1.00
Cu1015 Cu    0.16667   0.54689   0.75000   0.00000  Uiso   1.00
Cu1016 Cu    0.16667   0.45311   0.75000   0.00000  Uiso   1.00
N1017  N     0.16667   0.61736   0.75000   0.00000  Uiso   1.00
N1018  N     0.16667   0.38264   0.75000   0.00000  Uiso   1.00
O1019  O     0.10655   0.53958   0.75000   0.00000  Uiso   1.00
O1020  O     0.22679   0.46042   0.75001   0.00000  Uiso   1.00
O1021  O     0.22679   0.53958   0.75001   0.00000  Uiso   1.00
O1022  O     0.10655   0.46042   0.75000   0.00000  Uiso   1.00
O1023  O     0.16666   0.53960   0.68513   0.00000  Uiso   1.00
O1024  O     0.16668   0.46040   0.81487   0.00000  Uiso   1.00
O1025  O     0.16668   0.53960   0.81487   0.00000  Uiso   1.00
O1026  O     0.16666   0.46040   0.68513   0.00000  Uiso   1.00
Cl1027 Cl    0.24996   0.50484   0.88136   0.00000  Uiso   1.00
Cl1028 Cl    0.08407   0.49324   0.62073   0.00000  Uiso   1.00
Cl1029 Cl    0.08669   0.51197   0.87039   0.00000  Uiso   1.00
Cl1030 Cl    0.24297   0.53065   0.62693   0.00000  Uiso   1.00
C1031  C     0.05495   0.46798   0.94766   0.00000  Uiso   1.00
O1032  O     0.02789   0.49671   0.94804   0.00000  Uiso   1.00
O1033  O     0.04913   0.42732   0.92311   0.00000  Uiso   1.00
H1034  H     0.07367   0.40625   0.92522   0.00000  Uiso   1.00
C1035  C     0.27986   0.48646   0.55299   0.00000  Uiso   1.00
O1036  O     0.30448   0.51705   0.54722   0.00000  Uiso   1.00
O1037  O     0.28878   0.45149   0.58435   0.00000  Uiso   1.00
H1038  H     0.26628   0.42791   0.58595   0.00000  Uiso   1.00
C1039  C     0.06501   0.43924   0.53856   0.00000  Uiso   1.00
O1040  O     0.03132   0.45381   0.54520   0.00000  Uiso   1.00
O1041  O     0.07502   0.39323   0.54819   0.00000  Uiso   1.00
H1042  H     0.05185   0.37557   0.56120   0.00000  Uiso   1.00
C1043  C     0.27082   0.44433   0.96305   0.00000  Uiso   1.00
O1044  O     0.30444   0.44069   0.98113   0.00000  Uiso   1.00
O1045  O     0.26049   0.41549   0.92695   0.00000  Uiso   1.00
H1046  H     0.28370   0.39494   0.91824   0.00000  Uiso   1.00
Cl1047 Cl    0.04522   0.40428   0.77089   0.00000  Uiso   1.00
Cl1048 Cl    0.28906   0.59517   0.72948   0.00000  Uiso   1.00
Cl1049 Cl    0.28945   0.40247   0.74087   0.00000  Uiso   1.00
Cl1050 Cl    0.04364   0.59632   0.76613   0.00000  Uiso   1.00
C1051  C     0.12642   0.38190   0.67807   0.00000  Uiso   1.00
O1052  O     0.09304   0.39906   0.68208   0.00000  Uiso   1.00
O1053  O     0.14427   0.38200   0.63668   0.00000  Uiso   1.00
H1054  H     0.12669   0.39746   0.61249   0.00000  Uiso   1.00
C1055  C     0.20863   0.61762   0.82095   0.00000  Uiso   1.00
O1056  O     0.24226   0.60176   0.81559   0.00000  Uiso   1.00
O1057  O     0.19208   0.61581   0.86308   0.00000  Uiso   1.00
H1058  H     0.21066   0.60006   0.88635   0.00000  Uiso   1.00
C1059  C     0.20288   0.38093   0.82430   0.00000  Uiso   1.00
O1060  O     0.23573   0.40003   0.82379   0.00000  Uiso   1.00
O1061  O     0.18128   0.37967   0.86336   0.00000  Uiso   1.00
H1062  H     0.19505   0.39702   0.88901   0.00000  Uiso   1.00
C1063  C     0.12573   0.61820   0.67839   0.00000  Uiso   1.00
O1064  O     0.09241   0.60131   0.68300   0.00000  Uiso   1.00
O1065  O     0.14304   0.61724   0.63664   0.00000  Uiso   1.00
H1066  H     0.12542   0.60071   0.61316   0.00000  Uiso   1.00
C1067  C     0.42090   0.50002   0.75251   0.00000  Uiso   1.00
C1068  C     0.57917   0.49990   0.74793   0.00000  Uiso   1.00
C1069  C     0.42868   0.46999   0.51934   0.00000  Uiso   1.00
C1070  C     0.57306   0.47629   0.98112   0.00000  Uiso   1.00
C1071  C     0.35467   0.45774   0.75622   0.00000  Uiso   1.00
C1072  C     0.64563   0.54177   0.74540   0.00000  Uiso   1.00
C1073  C     0.64592   0.45737   0.74944   0.00000  Uiso   1.00
C1074  C     0.35421   0.54208   0.75335   0.00000  Uiso   1.00
C1075  C     0.62396   0.49960   0.74643   0.00000  Uiso   1.00
C1076  C     0.37621   0.50000   0.75507   0.00000  Uiso   1.00
C1077  C     0.48061   0.35805   0.71605   0.00000  Uiso   1.00
C1078  C     0.51966   0.64176   0.78380   0.00000  Uiso   1.00
C1079  C     0.51896   0.35768   0.78422   0.00000  Uiso   1.00
C1080  C     0.48041   0.64209   0.71612   0.00000  Uiso   1.00
C1081  C     0.49945   0.50009   0.66457   0.00000  Uiso   1.00
C1082  C     0.50109   0.49989   0.83542   0.00000  Uiso   1.00
C1083  C     0.53763   0.49385   0.90856   0.00000  Uiso   1.00
C1084  C     0.46307   0.48958   0.59191   0.00000  Uiso   1.00
C1085  C     0.50094   0.49882   0.88386   0.00000  Uiso   1.00
C1086  C     0.49911   0.49974   0.61603   0.00000  Uiso   1.00
C1087  C     0.46377   0.49721   0.90429   0.00000  Uiso   1.00
C1088  C     0.53552   0.50539   0.59483   0.00000  Uiso   1.00
C1089  C     0.46293   0.48818   0.95084   0.00000  Uiso   1.00
C1090  C     0.53723   0.49490   0.54869   0.00000  Uiso   1.00
C1091  C     0.50019   0.48734   0.97640   0.00000  Uiso   1.00
C1092  C     0.50030   0.48808   0.52354   0.00000  Uiso   1.00
C1093  C     0.53739   0.48616   0.95506   0.00000  Uiso   1.00
C1094  C     0.46351   0.48290   0.54521   0.00000  Uiso   1.00
C1095  C     0.42700   0.47725   0.97276   0.00000  Uiso   1.00
C1096  C     0.57409   0.48753   0.52718   0.00000  Uiso   1.00
Cu1097 Cu    0.50000   0.54689   0.75000   0.00000  Uiso   1.00
Cu1098 Cu    0.50000   0.45311   0.75000   0.00000  Uiso   1.00
N1099  N     0.50000   0.61736   0.75000   0.00000  Uiso   1.00
N1100  N     0.50000   0.38264   0.75000   0.00000  Uiso   1.00
O1101  O     0.43988   0.53958   0.75000   0.00000  Uiso   1.00
O1102  O     0.56012   0.46042   0.75001   0.00000  Uiso   1.00
O1103  O     0.56012   0.53958   0.75001   0.00000  Uiso   1.00
O1104  O     0.43988   0.46042   0.75000   0.00000  Uiso   1.00
O1105  O     0.49999   0.53960   0.68513   0.00000  Uiso   1.00
O1106  O     0.50001   0.46040   0.81487   0.00000  Uiso   1.00
O1107  O     0.50001   0.53960   0.81487   0.00000  Uiso   1.00
O1108  O     0.49999   0.46040   0.68513   0.00000  Uiso   1.00
Cl1109 Cl    0.58329   0.50484   0.88136   0.00000  Uiso   1.00
Cl1110 Cl    0.41741   0.49324   0.62073   0.00000  Uiso   1.00
Cl1111 Cl    0.42003   0.51197   0.87039   0.00000  Uiso   1.00
Cl1112 Cl    0.57630   0.53065   0.62693   0.00000  Uiso   1.00
C1113  C     0.38828   0.46798   0.94766   0.00000  Uiso   1.00
O1114  O     0.36122   0.49671   0.94804   0.00000  Uiso   1.00
O1115  O     0.38246   0.42732   0.92311   0.00000  Uiso   1.00
H1116  H     0.40700   0.40625   0.92522   0.00000  Uiso   1.00
C1117  C     0.61319   0.48646   0.55299   0.00000  Uiso   1.00
O1118  O     0.63781   0.51705   0.54722   0.00000  Uiso   1.00
O1119  O     0.62212   0.45149   0.58435   0.00000  Uiso   1.00
H1120  H     0.59961   0.42791   0.58595   0.00000  Uiso   1.00
C1121  C     0.39835   0.43924   0.53856   0.00000  Uiso   1.00
O1122  O     0.36465   0.45381   0.54520   0.00000  Uiso   1.00
O1123  O     0.40835   0.39323   0.54819   0.00000  Uiso   1.00
H1124  H     0.38518   0.37557   0.56120   0.00000  Uiso   1.00
C1125  C     0.60415   0.44433   0.96305   0.00000  Uiso   1.00
O1126  O     0.63777   0.44069   0.98113   0.00000  Uiso   1.00
O1127  O     0.59383   0.41549   0.92695   0.00000  Uiso   1.00
H1128  H     0.61703   0.39494   0.91824   0.00000  Uiso   1.00
Cl1129 Cl    0.37855   0.40428   0.77089   0.00000  Uiso   1.00
Cl1130 Cl    0.62239   0.59517   0.72948   0.00000  Uiso   1.00
Cl1131 Cl    0.62279   0.40247   0.74087   0.00000  Uiso   1.00
Cl1132 Cl    0.37697   0.59632   0.76613   0.00000  Uiso   1.00
C1133  C     0.45975   0.38190   0.67807   0.00000  Uiso   1.00
O1134  O     0.42638   0.39906   0.68208   0.00000  Uiso   1.00
O1135  O     0.47760   0.38200   0.63668   0.00000  Uiso   1.00
H1136  H     0.46003   0.39746   0.61249   0.00000  Uiso   1.00
C1137  C     0.54196   0.61762   0.82095   0.00000  Uiso   1.00
O1138  O     0.57559   0.60176   0.81559   0.00000  Uiso   1.00
O1139  O     0.52541   0.61581   0.86308   0.00000  Uiso   1.00
H1140  H     0.54399   0.60006   0.88635   0.00000  Uiso   1.00
C1141  C     0.53621   0.38093   0.82430   0.00000  Uiso   1.00
O1142  O     0.56907   0.40003   0.82379   0.00000  Uiso   1.00
O1143  O     0.51461   0.37967   0.86336   0.00000  Uiso   1.00
H1144  H     0.52838   0.39702   0.88901   0.00000  Uiso   1.00
C1145  C     0.45906   0.61820   0.67839   0.00000  Uiso   1.00
O1146  O     0.42574   0.60131   0.68300   0.00000  Uiso   1.00
O1147  O     0.47638   0.61724   0.63664   0.00000  Uiso   1.00
H1148  H     0.45875   0.60071   0.61316   0.00000  Uiso   1.00
C1149  C     0.75424   0.50002   0.75251   0.00000  Uiso   1.00
C1150  C     0.91250   0.49990   0.74793   0.00000  Uiso   1.00
C1151  C     0.76201   0.46999   0.51934   0.00000  Uiso   1.00
C1152  C     0.90640   0.47629   0.98112   0.00000  Uiso   1.00
C1153  C     0.68801   0.45774   0.75622   0.00000  Uiso   1.00
C1154  C     0.97897   0.54177   0.74540   0.00000  Uiso   1.00
C1155  C     0.97926   0.45737   0.74944   0.00000  Uiso   1.00
C1156  C     0.68754   0.54208   0.75335   0.00000  Uiso   1.00
C1157  C     0.95730   0.49960   0.74643   0.00000  Uiso   1.00
C1158  C     0.70955   0.50000   0.75507   0.00000  Uiso   1.00
C1159  C     0.81394   0.35805   0.71605   0.00000  Uiso   1.00
C1160  C     0.85300   0.64176   0.78380   0.00000  Uiso   1.00
C1161  C     0.85230   0.35768   0.78422   0.00000  Uiso   1.00
C1162  C     0.81374   0.64209   0.71612   0.00000  Uiso   1.00
C1163  C     0.83279   0.50009   0.66457   0.00000  Uiso   1.00
C1164  C     0.83442   0.49989   0.83542   0.00000  Uiso   1.00
C1165  C     0.87097   0.49385   0.90856   0.00000  Uiso   1.00
C1166  C     0.79641   0.48958   0.59191   0.00000  Uiso   1.00
C1167  C     0.83427   0.49882   0.88386   0.00000  Uiso   1.00
C1168  C     0.83244   0.49974   0.61603   0.00000  Uiso   1.00
C1169  C     0.79710   0.49721   0.90429   0.00000  Uiso   1.00
C1170  C     0.86885   0.50539   0.59483   0.00000  Uiso   1.00
C1171  C     0.79626   0.48818   0.95084   0.00000  Uiso   1.00
C1172  C     0.87057   0.49490   0.54869   0.00000  Uiso   1.00
C1173  C     0.83353   0.48734   0.97640   0.00000  Uiso   1.00
C1174  C     0.83364   0.48808   0.52354   0.00000  Uiso   1.00
C1175  C     0.87073   0.48616   0.95506   0.00000  Uiso   1.00
C1176  C     0.79684   0.48290   0.54521   0.00000  Uiso   1.00
C1177  C     0.76034   0.47725   0.97276   0.00000  Uiso   1.00
C1178  C     0.90742   0.48753   0.52718   0.00000  Uiso   1.00
Cu1179 Cu    0.83333   0.54689   0.75000   0.00000  Uiso   1.00
Cu1180 Cu    0.83333   0.45311   0.75000   0.00000  Uiso   1.00
N1181  N     0.83333   0.61736   0.75000   0.00000  Uiso   1.00
N1182  N     0.83333   0.38264   0.75000   0.00000  Uiso   1.00
O1183  O     0.77321   0.53958   0.75000   0.00000  Uiso   1.00
O1184  O     0.89345   0.46042   0.75001   0.00000  Uiso   1.00
O1185  O     0.89345   0.53958   0.75001   0.00000  Uiso   1.00
O1186  O     0.77321   0.46042   0.75000   0.00000  Uiso   1.00
O1187  O     0.83332   0.53960   0.68513   0.00000  Uiso   1.00
O1188  O     0.83334   0.46040   0.81487   0.00000  Uiso   1.00
O1189  O     0.83334   0.53960   0.81487   0.00000  Uiso   1.00
O1190  O     0.83332   0.46040   0.68513   0.00000  Uiso   1.00
Cl1191 Cl    0.91663   0.50484   0.88136   0.00000  Uiso   1.00
Cl1192 Cl    0.75074   0.49324   0.62073   0.00000  Uiso   1.00
Cl1193 Cl    0.75336   0.51197   0.87039   0.00000  Uiso   1.00
Cl1194 Cl    0.90964   0.53065   0.62693   0.00000  Uiso   1.00
C1195  C     0.72162   0.46798   0.94766   0.00000  Uiso   1.00
O1196  O     0.69456   0.49671   0.94804   0.00000  Uiso   1.00
O1197  O     0.71580   0.42732   0.92311   0.00000  Uiso   1.00
H1198  H     0.74033   0.40625   0.92522   0.00000  Uiso   1.00
C1199  C     0.94653   0.48646   0.55299   0.00000  Uiso   1.00
O1200  O     0.97114   0.51705   0.54722   0.00000  Uiso   1.00
O1201  O     0.95545   0.45149   0.58435   0.00000  Uiso   1.00
H1202  H     0.93294   0.42791   0.58595   0.00000  Uiso   1.00
C1203  C     0.73168   0.43924   0.53856   0.00000  Uiso   1.00
O1204  O     0.69798   0.45381   0.54520   0.00000  Uiso   1.00
O1205  O     0.74168   0.39323   0.54819   0.00000  Uiso   1.00
H1206  H     0.71852   0.37557   0.56120   0.00000  Uiso   1.00
C1207  C     0.93749   0.44433   0.96305   0.00000  Uiso   1.00
O1208  O     0.97110   0.44069   0.98113   0.00000  Uiso   1.00
O1209  O     0.92716   0.41549   0.92695   0.00000  Uiso   1.00
H1210  H     0.95036   0.39494   0.91824   0.00000  Uiso   1.00
Cl1211 Cl    0.71189   0.40428   0.77089   0.00000  Uiso   1.00
Cl1212 Cl    0.95572   0.59517   0.72948   0.00000  Uiso   1.00
Cl1213 Cl    0.95612   0.40247   0.74087   0.00000  Uiso   1.00
Cl1214 Cl    0.71031   0.59632   0.76613   0.00000  Uiso   1.00
C1215  C     0.79308   0.38190   0.67807   0.00000  Uiso   1.00
O1216  O     0.75971   0.39906   0.68208   0.00000  Uiso   1.00
O1217  O     0.81093   0.38200   0.63668   0.00000  Uiso   1.00
H1218  H     0.79336   0.39746   0.61249   0.00000  Uiso   1.00
C1219  C     0.87529   0.61762   0.82095   0.00000  Uiso   1.00
O1220  O     0.90893   0.60176   0.81559   0.00000  Uiso   1.00
O1221  O     0.85875   0.61581   0.86308   0.00000  Uiso   1.00
H1222  H     0.87733   0.60006   0.88635   0.00000  Uiso   1.00
C1223  C     0.86955   0.38093   0.82430   0.00000  Uiso   1.00
O1224  O     0.90240   0.40003   0.82379   0.00000  Uiso   1.00
O1225  O     0.84794   0.37967   0.86336   0.00000  Uiso   1.00
H1226  H     0.86172   0.39702   0.88901   0.00000  Uiso   1.00
C1227  C     0.79239   0.61820   0.67839   0.00000  Uiso   1.00
O1228  O     0.75908   0.60131   0.68300   0.00000  Uiso   1.00
O1229  O     0.80971   0.61724   0.63664   0.00000  Uiso   1.00
H1230  H     0.79208   0.60071   0.61316   0.00000  Uiso   1.00
C1231  C     0.08757   0.83336   0.75251   0.00000  Uiso   1.00
C1232  C     0.24583   0.83323   0.74793   0.00000  Uiso   1.00
C1233  C     0.09534   0.80332   0.51934   0.00000  Uiso   1.00
C1234  C     0.23973   0.80962   0.98112   0.00000  Uiso   1.00
C1235  C     0.02134   0.79107   0.75622   0.00000  Uiso   1.00
C1236  C     0.31230   0.87510   0.74540   0.00000  Uiso   1.00
C1237  C     0.31259   0.79071   0.74944   0.00000  Uiso   1.00
C1238  C     0.02088   0.87541   0.75335   0.00000  Uiso   1.00
C1239  C     0.29063   0.83293   0.74643   0.00000  Uiso   1.00
C1240  C     0.04288   0.83333   0.75507   0.00000  Uiso   1.00
C1241  C     0.14727   0.69139   0.71605   0.00000  Uiso   1.00
C1242  C     0.18633   0.97510   0.78380   0.00000  Uiso   1.00
C1243  C     0.18563   0.69101   0.78422   0.00000  Uiso   1.00
C1244  C     0.14708   0.97542   0.71612   0.00000  Uiso   1.00
C1245  C     0.16612   0.83343   0.66457   0.00000  Uiso   1.00
C1246  C     0.16775   0.83322   0.83542   0.00000  Uiso   1.00
C1247  C     0.20430   0.82718   0.90856   0.00000  Uiso   1.00
C1248  C     0.12974   0.82291   0.59191   0.00000  Uiso   1.00
C1249  C     0.16761   0.83215   0.88386   0.00000  Uiso   1.00
C1250  C     0.16577   0.83307   0.61603   0.00000  Uiso   1.00
C1251  C     0.13044   0.83054   0.90429   0.00000  Uiso   1.00
C1252  C     0.20219   0.83872   0.59483   0.00000  Uiso   1.00
C1253  C     0.12960   0.82151   0.95084   0.00000  Uiso   1.00
C1254  C     0.20390   0.82823   0.54869   0.00000  Uiso   1.00
C1255  C     0.16686   0.82067   0.97640   0.00000  Uiso   1.00
C1256  C     0.16697   0.82142   0.52354   0.00000  Uiso   1.00
C1257  C     0.20406   0.81950   0.95506   0.00000  Uiso   1.00
C1258  C     0.13018   0.81623   0.54521   0.00000  Uiso   1.00
C1259  C     0.09367   0.81058   0.97276   0.00000  Uiso   1.00
C1260  C     0.24075   0.82086   0.52718   0.00000  Uiso   1.00
Cu1261 Cu    0.16667   0.88022   0.75000   0.00000  Uiso   1.00
Cu1262 Cu    0.16667   0.78645   0.75000   0.00000  Uiso   1.00
N1263  N     0.16667   0.95069   0.75000   0.00000  Uiso   1.00
N1264  N     0.16667   0.71598   0.75000   0.00000  Uiso   1.00
O1265  O     0.10655   0.87291   0.75000   0.00000  Uiso   1.00
O1266  O     0.22679   0.79375   0.75001   0.00000  Uiso   1.00
O1267  O     0.22679   0.87291   0.75001   0.00000  Uiso   1.00
O1268  O     0.10655   0.79375   0.75000   0.00000  Uiso   1.00
O1269  O     0.16666   0.87293   0.68513   0.00000  Uiso   1.00
O1270  O     0.16668   0.79373   0.81487   0.00000  Uiso   1.00
O1271  O     0.16668   0.87293   0.81487   0.00000  Uiso   1.00
O1272  O     0.16666   0.79373   0.68513   0.00000  Uiso   1.00
Cl1273 Cl    0.24996   0.83818   0.88136   0.00000  Uiso   1.00
Cl1274 Cl    0.08407   0.82658   0.62073   0.00000  Uiso   1.00
Cl1275 Cl    0.08669   0.84530   0.87039   0.00000  Uiso   1.00
Cl1276 Cl    0.24297   0.86398   0.62693   0.00000  Uiso   1.00
C1277  C     0.05495   0.80131   0.94766   0.00000  Uiso   1.00
O1278  O     0.02789   0.83004   0.94804   0.00000  Uiso   1.00
O1279  O     0.04913   0.76065   0.92311   0.00000  Uiso   1.00
H1280  H     0.07367   0.73958   0.92522   0.00000  Uiso   1.00
C1281  C     0.27986   0.81979   0.55299   0.00000  Uiso   1.00
O1282  O     0.30448   0.85038   0.54722   0.00000  Uiso   1.00
O1283  O     0.28878   0.78482   0.58435   0.00000  Uiso   1.00
H1284  H     0.26628   0.76124   0.58595   0.00000  Uiso   1.00
C1285  C     0.06501   0.77258   0.53856   0.00000  Uiso   1.00
O1286  O     0.03132   0.78714   0.54520   0.00000  Uiso   1.00
O1287  O     0.07502   0.72656   0.54819   0.00000  Uiso   1.00
H1288  H     0.05185   0.70890   0.56120   0.00000  Uiso   1.00
C1289  C     0.27082   0.77767   0.96305   0.00000  Uiso   1.00
O1290  O     0.30444   0.77402   0.98113   0.00000  Uiso   1.00
O1291  O     0.26049   0.74883   0.92695   0.00000  Uiso   1.00
H1292  H     0.28370   0.72827   0.91824   0.00000  Uiso   1.00
Cl1293 Cl    0.04522   0.73761   0.77089   0.00000  Uiso   1.00
Cl1294 Cl    0.28906   0.92850   0.72948   0.00000  Uiso   1.00
Cl1295 Cl    0.28945   0.73581   0.74087   0.00000  Uiso   1.00
Cl1296 Cl    0.04364   0.92966   0.76613   0.00000  Uiso   1.00
C1297  C     0.12642   0.71523   0.67807   0.00000  Uiso   1.00
O1298  O     0.09304   0.73240   0.68208   0.00000  Uiso   1.00
O1299  O     0.14427   0.71533   0.63668   0.00000  Uiso   1.00
H1300  H     0.12669   0.73080   0.61249   0.00000  Uiso   1.00
C1301  C     0.20863   0.95095   0.82095   0.00000  Uiso   1.00
O1302  O     0.24226   0.93510   0.81559   0.00000  Uiso   1.00
O1303  O     0.19208   0.94914   0.86308   0.00000  Uiso   1.00
H1304  H     0.21066   0.93339   0.88635   0.00000  Uiso   1.00
C1305  C     0.20288   0.71427   0.82430   0.00000  Uiso   1.00
O1306  O     0.23573   0.73337   0.82379   0.00000  Uiso   1.00
O1307  O     0.18128   0.71300   0.86336   0.00000  Uiso   1.00
H1308  H     0.19505   0.73036   0.88901   0.00000  Uiso   1.00
C1309  C     0.12573   0.95153   0.67839   0.00000  Uiso   1.00
O1310  O     0.09241   0.93464   0.68300   0.00000  Uiso   1.00
O1311  O     0.14304   0.95057   0.63664   0.00000  Uiso   1.00
H1312  H     0.12542   0.93404   0.61316   0.00000  Uiso   1.00
C1313  C     0.42090   0.83336   0.75251   0.00000  Uiso   1.00
C1314  C     0.57917   0.83323   0.74793   0.00000  Uiso   1.00
C1315  C     0.42868   0.80332   0.51934   0.00000  Uiso   1.00
C1316  C     0.57306   0.80962   0.98112   0.00000  Uiso   1.00
C1317  C     0.35467   0.79107   0.75622   0.00000  Uiso   1.00
C1318  C     0.64563   0.87510   0.74540   0.00000  Uiso   1.00
C1319  C     0.64592   0.79071   0.74944   0.00000  Uiso   1.00
C1320  C     0.35421   0.87541   0.75335   0.00000  Uiso   1.00
C1321  C     0.62396   0.83293   0.74643   0.00000  Uiso   1.00
C1322  C     0.37621   0.83333   0.75507   0.00000  Uiso   1.00
C1323  C     0.48061   0.69139   0.71605   0.00000  Uiso   1.00
C1324  C     0.51966   0.97510   0.78380   0.00000  Uiso   1.00
C1325  C     0.51896   0.69101   0.78422   0.00000  Uiso   1.00
C1326  C     0.48041   0.97542   0.71612   0.00000  Uiso   1.00
C1327  C     0.49945   0.83343   0.66457   0.00000  Uiso   1.00
C1328  C     0.50109   0.83322   0.83542   0.00000  Uiso   1.00
C1329  C     0.53763   0.82718   0.90856   0.00000  Uiso   1.00
C1330  C     0.46307   0.82291   0.59191   0.00000  Uiso   1.00
C1331  C     0.50094   0.83215   0.88386   0.00000  Uiso   1.00
C1332  C     0.49911   0.83307   0.61603   0.00000  Uiso   1.00
C1333  C     0.46377   0.83054   0.90429   0.00000  Uiso   1.00
C1334  C     0.53552   0.83872   0.59483   0.00000  Uiso   1.00
C1335  C     0.46293   0.82151   0.95084   0.00000  Uiso   1.00
C1336  C     0.53723   0.82823   0.54869   0.00000  Uiso   1.00
C1337  C     0.50019   0.82067   0.97640   0.00000  Uiso   1.00
C1338  C     0.50030   0.82142   0.52354   0.00000  Uiso   1.00
C1339  C     0.53739   0.81950   0.95506   0.00000  Uiso   1.00
C1340  C     0.46351   0.81623   0.54521   0.00000  Uiso   1.00
C1341  C     0.42700   0.81058   0.97276   0.00000  Uiso   1.00
C1342  C     0.57409   0.82086   0.52718   0.00000  Uiso   1.00
Cu1343 Cu    0.50000   0.88022   0.75000   0.00000  Uiso   1.00
Cu1344 Cu    0.50000   0.78645   0.75000   0.00000  Uiso   1.00
N1345  N     0.50000   0.95069   0.75000   0.00000  Uiso   1.00
N1346  N     0.50000   0.71598   0.75000   0.00000  Uiso   1.00
O1347  O     0.43988   0.87291   0.75000   0.00000  Uiso   1.00
O1348  O     0.56012   0.79375   0.75001   0.00000  Uiso   1.00
O1349  O     0.56012   0.87291   0.75001   0.00000  Uiso   1.00
O1350  O     0.43988   0.79375   0.75000   0.00000  Uiso   1.00
O1351  O     0.49999   0.87293   0.68513   0.00000  Uiso   1.00
O1352  O     0.50001   0.79373   0.81487   0.00000  Uiso   1.00
O1353  O     0.50001   0.87293   0.81487   0.00000  Uiso   1.00
O1354  O     0.49999   0.79373   0.68513   0.00000  Uiso   1.00
Cl1355 Cl    0.58329   0.83818   0.88136   0.00000  Uiso   1.00
Cl1356 Cl    0.41741   0.82658   0.62073   0.00000  Uiso   1.00
Cl1357 Cl    0.42003   0.84530   0.87039   0.00000  Uiso   1.00
Cl1358 Cl    0.57630   0.86398   0.62693   0.00000  Uiso   1.00
C1359  C     0.38828   0.80131   0.94766   0.00000  Uiso   1.00
O1360  O     0.36122   0.83004   0.94804   0.00000  Uiso   1.00
O1361  O     0.38246   0.76065   0.92311   0.00000  Uiso   1.00
H1362  H     0.40700   0.73958   0.92522   0.00000  Uiso   1.00
C1363  C     0.61319   0.81979   0.55299   0.00000  Uiso   1.00
O1364  O     0.63781   0.85038   0.54722   0.00000  Uiso   1.00
O1365  O     0.62212   0.78482   0.58435   0.00000  Uiso   1.00
H1366  H     0.59961   0.76124   0.58595   0.00000  Uiso   1.00
C1367  C     0.39835   0.77258   0.53856   0.00000  Uiso   1.00
O1368  O     0.36465   0.78714   0.54520   0.00000  Uiso   1.00
O1369  O     0.40835   0.72656   0.54819   0.00000  Uiso   1.00
H1370  H     0.38518   0.70890   0.56120   0.00000  Uiso   1.00
C1371  C     0.60415   0.77767   0.96305   0.00000  Uiso   1.00
O1372  O     0.63777   0.77402   0.98113   0.00000  Uiso   1.00
O1373  O     0.59383   0.74883   0.92695   0.00000  Uiso   1.00
H1374  H     0.61703   0.72827   0.91824   0.00000  Uiso   1.00
Cl1375 Cl    0.37855   0.73761   0.77089   0.00000  Uiso   1.00
Cl1376 Cl    0.62239   0.92850   0.72948   0.00000  Uiso   1.00
Cl1377 Cl    0.62279   0.73581   0.74087   0.00000  Uiso   1.00
Cl1378 Cl    0.37697   0.92966   0.76613   0.00000  Uiso   1.00
C1379  C     0.45975   0.71523   0.67807   0.00000  Uiso   1.00
O1380  O     0.42638   0.73240   0.68208   0.00000  Uiso   1.00
O1381  O     0.47760   0.71533   0.63668   0.00000  Uiso   1.00
H1382  H     0.46003   0.73080   0.61249   0.00000  Uiso   1.00
C1383  C     0.54196   0.95095   0.82095   0.00000  Uiso   1.00
O1384  O     0.57559   0.93510   0.81559   0.00000  Uiso   1.00
O1385  O     0.52541   0.94914   0.86308   0.00000  Uiso   1.00
H1386  H     0.54399   0.93339   0.88635   0.00000  Uiso   1.00
C1387  C     0.53621   0.71427   0.82430   0.00000  Uiso   1.00
O1388  O     0.56907   0.73337   0.82379   0.00000  Uiso   1.00
O1389  O     0.51461   0.71300   0.86336   0.00000  Uiso   1.00
H1390  H     0.52838   0.73036   0.88901   0.00000  Uiso   1.00
C1391  C     0.45906   0.95153   0.67839   0.00000  Uiso   1.00
O1392  O     0.42574   0.93464   0.68300   0.00000  Uiso   1.00
O1393  O     0.47638   0.95057   0.63664   0.00000  Uiso   1.00
H1394  H     0.45875   0.93404   0.61316   0.00000  Uiso   1.00
C1395  C     0.75424   0.83336   0.75251   0.00000  Uiso   1.00
C1396  C     0.91250   0.83323   0.74793   0.00000  Uiso   1.00
C1397  C     0.76201   0.80332   0.51934   0.00000  Uiso   1.00
C1398  C     0.90640   0.80962   0.98112   0.00000  Uiso   1.00
C1399  C     0.68801   0.79107   0.75622   0.00000  Uiso   1.00
C1400  C     0.97897   0.87510   0.74540   0.00000  Uiso   1.00
C1401  C     0.97926   0.79071   0.74944   0.00000  Uiso   1.00
C1402  C     0.68754   0.87541   0.75335   0.00000  Uiso   1.00
C1403  C     0.95730   0.83293   0.74643   0.00000  Uiso   1.00
C1404  C     0.70955   0.83333   0.75507   0.00000  Uiso   1.00
C1405  C     0.81394   0.69139   0.71605   0.00000  Uiso   1.00
C1406  C     0.85300   0.97510   0.78380   0.00000  Uiso   1.00
C1407  C     0.85230   0.69101   0.78422   0.00000  Uiso   1.00
C1408  C     0.81374   0.97542   0.71612   0.00000  Uiso   1.00
C1409  C     0.83279   0.83343   0.66457   0.00000  Uiso   1.00
C1410  C     0.83442   0.83322   0.83542   0.00000  Uiso   1.00
C1411  C     0.87097   0.82718   0.90856   0.00000  Uiso   1.00
C1412  C     0.79641   0.82291   0.59191   0.00000  Uiso   1.00
C1413  C     0.83427   0.83215   0.88386   0.00000  Uiso   1.00
C1414  C     0.83244   0.83307   0.61603   0.00000  Uiso   1.00
C1415  C     0.79710   0.83054   0.90429   0.00000  Uiso   1.00
C1416  C     0.86885   0.83872   0.59483   0.00000  Uiso   1.00
C1417  C     0.79626   0.82151   0.95084   0.00000  Uiso   1.00
C1418  C     0.87057   0.82823   0.54869   0.00000  Uiso   1.00
C1419  C     0.83353   0.82067   0.97640   0.00000  Uiso   1.00
C1420  C     0.83364   0.82142   0.52354   0.00000  Uiso   1.00
C1421  C     0.87073   0.81950   0.95506   0.00000  Uiso   1.00
C1422  C     0.79684   0.81623   0.54521   0.00000  Uiso   1.00
C1423  C     0.76034   0.81058   0.97276   0.00000  Uiso   1.00
C1424  C     0.90742   0.82086   0.52718   0.00000  Uiso   1.00
Cu1425 Cu    0.83333   0.88022   0.75000   0.00000  Uiso   1.00
Cu1426 Cu    0.83333   0.78645   0.75000   0.00000  Uiso   1.00
N1427  N     0.83333   0.95069   0.75000   0.00000  Uiso   1.00
N1428  N     0.83333   0.71598   0.75000   0.00000  Uiso   1.00
O1429  O     0.77321   0.87291   0.75000   0.00000  Uiso   1.00
O1430  O     0.89345   0.79375   0.75001   0.00000  Uiso   1.00
O1431  O     0.89345   0.87291   0.75001   0.00000  Uiso   1.00
O1432  O     0.77321   0.79375   0.75000   0.00000  Uiso   1.00
O1433  O     0.83332   0.87293   0.68513   0.00000  Uiso   1.00
O1434  O     0.83334   0.79373   0.81487   0.00000  Uiso   1.00
O1435  O     0.83334   0.87293   0.81487   0.00000  Uiso   1.00
O1436  O     0.83332   0.79373   0.68513   0.00000  Uiso   1.00
Cl1437 Cl    0.91663   0.83818   0.88136   0.00000  Uiso   1.00
Cl1438 Cl    0.75074   0.82658   0.62073   0.00000  Uiso   1.00
Cl1439 Cl    0.75336   0.84530   0.87039   0.00000  Uiso   1.00
Cl1440 Cl    0.90964   0.86398   0.62693   0.00000  Uiso   1.00
C1441  C     0.72162   0.80131   0.94766   0.00000  Uiso   1.00
O1442  O     0.69456   0.83004   0.94804   0.00000  Uiso   1.00
O1443  O     0.71580   0.76065   0.92311   0.00000  Uiso   1.00
H1444  H     0.74033   0.73958   0.92522   0.00000  Uiso   1.00
C1445  C     0.94653   0.81979   0.55299   0.00000  Uiso   1.00
O1446  O     0.97114   0.85038   0.54722   0.00000  Uiso   1.00
O1447  O     0.95545   0.78482   0.58435   0.00000  Uiso   1.00
H1448  H     0.93294   0.76124   0.58595   0.00000  Uiso   1.00
C1449  C     0.73168   0.77258   0.53856   0.00000  Uiso   1.00
O1450  O     0.69798   0.78714   0.54520   0.00000  Uiso   1.00
O1451  O     0.74168   0.72656   0.54819   0.00000  Uiso   1.00
H1452  H     0.71852   0.70890   0.56120   0.00000  Uiso   1.00
C1453  C     0.93749   0.77767   0.96305   0.00000  Uiso   1.00
O1454  O     0.97110   0.77402   0.98113   0.00000  Uiso   1.00
O1455  O     0.92716   0.74883   0.92695   0.00000  Uiso   1.00
H1456  H     0.95036   0.72827   0.91824   0.00000  Uiso   1.00
Cl1457 Cl    0.71189   0.73761   0.77089   0.00000  Uiso   1.00
Cl1458 Cl    0.95572   0.92850   0.72948   0.00000  Uiso   1.00
Cl1459 Cl    0.95612   0.73581   0.74087   0.00000  Uiso   1.00
Cl1460 Cl    0.71031   0.92966   0.76613   0.00000  Uiso   1.00
C1461  C     0.79308   0.71523   0.67807   0.00000  Uiso   1.00
O1462  O     0.75971   0.73240   0.68208   0.00000  Uiso   1.00
O1463  O     0.81093   0.71533   0.63668   0.00000  Uiso   1.00
H1464  H     0.79336   0.73080   0.61249   0.00000  Uiso   1.00
C1465  C     0.87529   0.95095   0.82095   0.00000  Uiso   1.00
O1466  O     0.90893   0.93510   0.81559   0.00000  Uiso   1.00
O1467  O     0.85875   0.94914   0.86308   0.00000  Uiso   1.00
H1468  H     0.87733   0.93339   0.88635   0.00000  Uiso   1.00
C1469  C     0.86955   0.71427   0.82430   0.00000  Uiso   1.00
O1470  O     0.90240   0.73337   0.82379   0.00000  Uiso   1.00
O1471  O     0.84794   0.71300   0.86336   0.00000  Uiso   1.00
H1472  H     0.86172   0.73036   0.88901   0.00000  Uiso   1.00
C1473  C     0.79239   0.95153   0.67839   0.00000  Uiso   1.00
O1474  O     0.75908   0.93464   0.68300   0.00000  Uiso   1.00
O1475  O     0.80971   0.95057   0.63664   0.00000  Uiso   1.00
H1476  H     0.79208   0.93404   0.61316   0.00000  Uiso   1.00
loop_
_geom_bond_atom_site_label_1
_geom_bond_atom_site_label_2
_geom_bond_distance
_geom_bond_site_symmetry_2
_ccdc_geom_bond_type
C1     O38     1.309   .     A
C1     O35     1.310   .     A
C1     C10     1.484   .     S
C2     O36     1.308   .     A
C2     O37     1.311   .     A
C2     C9      1.485   .     S
C3     C28     1.410   .     A
C3     C55     1.477   .     S
C3     C767    1.408   1_554 S
C4     C27     1.412   .     A
C4     C59     1.502   .     S
C4     C768    1.416   .     S
C5     Cl63    1.779   .     S
C5     C10     1.417   .     A
C5     C171    1.398   1_455 S
C6     Cl64    1.777   .     S
C6     C9      1.417   .     A
C6     C90     1.396   .     S
C7     Cl65    1.778   .     S
C7     C9      1.420   .     A
C7     C87     1.398   .     S
C8     Cl66    1.777   .     S
C8     C10     1.416   .     A
C8     C170    1.396   1_455 S
C11    C67     1.471   .     S
C11    N34     1.377   .     A
C11    C506    1.426   1_545 S
C12    C71     1.478   .     S
C12    N33     1.375   .     A
C12    C259    1.424   .     S
C13    C75     1.470   .     S
C13    N34     1.377   .     A
C13    C504    1.424   1_545 S
C14    N33     1.375   .     A
C14    C79     1.478   .     S
C14    C257    1.426   .     S
C15    C20     1.452   .     S
C15    O39     1.299   .     A
C15    O42     1.300   .     A
C16    O40     1.299   .     A
C16    C19     1.450   .     S
C16    O41     1.300   .     A
C17    C27     1.409   .     A
C17    Cl43    1.778   .     S
C17    C19     1.399   .     A
C18    C20     1.397   .     A
C18    C28     1.412   .     A
C18    Cl44    1.777   .     S
C19    C21     1.399   .     A
C20    C22     1.397   .     A
C21    Cl45    1.779   .     S
C21    C23     1.418   .     A
C22    Cl46    1.779   .     S
C22    C24     1.418   .     A
C23    C29     1.420   .     A
C23    C25     1.421   .     A
C24    C26     1.420   .     A
C24    C30     1.421   .     A
C25    C27     1.413   .     A
C25    C764    1.411   .     S
C26    C28     1.414   .     A
C26    C763    1.411   1_554 S
C29    C47     1.480   .     S
C29    C741    1.408   .     S
C30    C51     1.476   .     S
C30    C742    1.416   1_554 S
Cu31   N33     2.038   .     S
Cu31   O37     2.000   .     S
Cu31   Cu32    2.712   .     S
Cu31   O41     1.952   .     S
Cu31   O39     1.953   .     S
Cu31   O35     2.001   .     S
Cu32   O38     2.000   .     S
Cu32   N34     2.038   .     S
Cu32   O36     2.001   .     S
Cu32   O40     1.953   .     S
Cu32   O42     1.952   .     S
C47    O49     1.397   .     S
C47    O48     1.221   .     D
O49    H50     1.013   .     S
C51    O52     1.221   .     D
C51    O53     1.399   .     S
O53    H54     1.013   .     S
C55    O56     1.216   .     D
C55    O57     1.396   .     S
O57    H58     1.014   .     S
C59    O60     1.218   .     D
C59    O61     1.397   .     S
O61    H62     1.014   .     S
C67    O68     1.221   .     D
C67    O69     1.397   .     S
O69    H70     1.010   .     S
C71    O72     1.220   .     D
C71    O73     1.399   .     S
O73    H74     1.013   .     S
C75    O76     1.221   .     D
C75    O77     1.398   .     S
O77    H78     1.010   .     S
C79    O81     1.399   .     S
C79    O80     1.220   .     D
O81    H82     1.014   .     S
C83    O120    1.309   .     A
C83    O117    1.310   .     A
C83    C92     1.484   .     S
C84    O118    1.308   .     A
C84    O119    1.311   .     A
C84    C91     1.485   .     S
C85    C110    1.410   .     A
C85    C137    1.477   .     S
C85    C849    1.408   1_554 S
C86    C109    1.412   .     A
C86    C141    1.502   .     S
C86    C850    1.416   .     S
C87    Cl145   1.779   .     S
C87    C92     1.417   .     A
C88    Cl146   1.777   .     S
C88    C91     1.417   .     A
C88    C172    1.396   .     S
C89    Cl147   1.778   .     S
C89    C91     1.420   .     A
C89    C169    1.398   .     S
C90    Cl148   1.777   .     S
C90    C92     1.416   .     A
C93    C149    1.471   .     S
C93    N116    1.377   .     A
C93    C588    1.426   1_545 S
C94    C153    1.478   .     S
C94    N115    1.375   .     A
C94    C341    1.424   .     S
C95    C157    1.470   .     S
C95    N116    1.377   .     A
C95    C586    1.424   1_545 S
C96    N115    1.375   .     A
C96    C161    1.478   .     S
C96    C339    1.426   .     S
C97    C102    1.452   .     S
C97    O121    1.299   .     A
C97    O124    1.300   .     A
C98    O122    1.299   .     A
C98    C101    1.450   .     S
C98    O123    1.300   .     A
C99    C109    1.409   .     A
C99    Cl125   1.778   .     S
C99    C101    1.399   .     A
C100   C102    1.397   .     A
C100   C110    1.412   .     A
C100   Cl126   1.777   .     S
C101   C103    1.399   .     A
C102   C104    1.397   .     A
C103   Cl127   1.779   .     S
C103   C105    1.418   .     A
C104   Cl128   1.779   .     S
C104   C106    1.418   .     A
C105   C111    1.420   .     A
C105   C107    1.421   .     A
C106   C108    1.420   .     A
C106   C112    1.421   .     A
C107   C109    1.413   .     A
C107   C846    1.411   .     S
C108   C110    1.414   .     A
C108   C845    1.411   1_554 S
C111   C129    1.480   .     S
C111   C823    1.408   .     S
C112   C133    1.476   .     S
C112   C824    1.416   1_554 S
Cu113  N115    2.038   .     S
Cu113  O119    2.000   .     S
Cu113  Cu114   2.712   .     S
Cu113  O123    1.952   .     S
Cu113  O121    1.953   .     S
Cu113  O117    2.001   .     S
Cu114  O120    2.000   .     S
Cu114  N116    2.038   .     S
Cu114  O118    2.001   .     S
Cu114  O122    1.953   .     S
Cu114  O124    1.952   .     S
C129   O131    1.397   .     S
C129   O130    1.221   .     D
O131   H132    1.013   .     S
C133   O134    1.221   .     D
C133   O135    1.399   .     S
O135   H136    1.013   .     S
C137   O138    1.216   .     D
C137   O139    1.396   .     S
O139   H140    1.014   .     S
C141   O142    1.218   .     D
C141   O143    1.397   .     S
O143   H144    1.014   .     S
C149   O150    1.221   .     D
C149   O151    1.397   .     S
O151   H152    1.010   .     S
C153   O154    1.220   .     D
C153   O155    1.399   .     S
O155   H156    1.013   .     S
C157   O158    1.221   .     D
C157   O159    1.398   .     S
O159   H160    1.010   .     S
C161   O163    1.399   .     S
C161   O162    1.220   .     D
O163   H164    1.014   .     S
C165   O202    1.309   .     A
C165   O199    1.310   .     A
C165   C174    1.484   .     S
C166   O200    1.308   .     A
C166   O201    1.311   .     A
C166   C173    1.485   .     S
C167   C192    1.410   .     A
C167   C219    1.477   .     S
C167   C931    1.408   1_554 S
C168   C191    1.412   .     A
C168   C223    1.502   .     S
C168   C932    1.416   .     S
C169   Cl227   1.779   .     S
C169   C174    1.417   .     A
C170   Cl228   1.777   .     S
C170   C173    1.417   .     A
C170   C8      1.396   1_655 S
C171   Cl229   1.778   .     S
C171   C173    1.420   .     A
C171   C5      1.398   1_655 S
C172   Cl230   1.777   .     S
C172   C174    1.416   .     A
C175   C231    1.471   .     S
C175   N198    1.377   .     A
C175   C670    1.426   1_545 S
C176   C235    1.478   .     S
C176   N197    1.375   .     A
C176   C423    1.424   .     S
C177   C239    1.470   .     S
C177   N198    1.377   .     A
C177   C668    1.424   1_545 S
C178   N197    1.375   .     A
C178   C243    1.478   .     S
C178   C421    1.426   .     S
C179   C184    1.452   .     S
C179   O203    1.299   .     A
C179   O206    1.300   .     A
C180   O204    1.299   .     A
C180   C183    1.450   .     S
C180   O205    1.300   .     A
C181   C191    1.409   .     A
C181   Cl207   1.778   .     S
C181   C183    1.399   .     A
C182   C184    1.397   .     A
C182   C192    1.412   .     A
C182   Cl208   1.777   .     S
C183   C185    1.399   .     A
C184   C186    1.397   .     A
C185   Cl209   1.779   .     S
C185   C187    1.418   .     A
C186   Cl210   1.779   .     S
C186   C188    1.418   .     A
C187   C193    1.420   .     A
C187   C189    1.421   .     A
C188   C190    1.420   .     A
C188   C194    1.421   .     A
C189   C191    1.413   .     A
C189   C928    1.411   .     S
C190   C192    1.414   .     A
C190   C927    1.411   1_554 S
C193   C211    1.480   .     S
C193   C905    1.408   .     S
C194   C215    1.476   .     S
C194   C906    1.416   1_554 S
Cu195  N197    2.038   .     S
Cu195  O201    2.000   .     S
Cu195  Cu196   2.712   .     S
Cu195  O205    1.952   .     S
Cu195  O203    1.953   .     S
Cu195  O199    2.001   .     S
Cu196  O202    2.000   .     S
Cu196  N198    2.038   .     S
Cu196  O200    2.001   .     S
Cu196  O204    1.953   .     S
Cu196  O206    1.952   .     S
C211   O213    1.397   .     S
C211   O212    1.221   .     D
O213   H214    1.013   .     S
C215   O216    1.221   .     D
C215   O217    1.399   .     S
O217   H218    1.013   .     S
C219   O220    1.216   .     D
C219   O221    1.396   .     S
O221   H222    1.014   .     S
C223   O224    1.218   .     D
C223   O225    1.397   .     S
O225   H226    1.014   .     S
C231   O232    1.221   .     D
C231   O233    1.397   .     S
O233   H234    1.010   .     S
C235   O236    1.220   .     D
C235   O237    1.399   .     S
O237   H238    1.013   .     S
C239   O240    1.221   .     D
C239   O241    1.398   .     S
O241   H242    1.010   .     S
C243   O245    1.399   .     S
C243   O244    1.220   .     D
O245   H246    1.014   .     S
C247   O284    1.309   .     A
C247   O281    1.310   .     A
C247   C256    1.484   .     S
C248   O282    1.308   .     A
C248   O283    1.311   .     A
C248   C255    1.485   .     S
C249   C274    1.410   .     A
C249   C301    1.477   .     S
C249   C1013   1.408   1_554 S
C250   C273    1.412   .     A
C250   C305    1.502   .     S
C250   C1014   1.416   .     S
C251   Cl309   1.779   .     S
C251   C256    1.417   .     A
C251   C417    1.398   1_455 S
C252   Cl310   1.777   .     S
C252   C255    1.417   .     A
C252   C336    1.396   .     S
C253   Cl311   1.778   .     S
C253   C255    1.420   .     A
C253   C333    1.398   .     S
C254   Cl312   1.777   .     S
C254   C256    1.416   .     A
C254   C416    1.396   1_455 S
C257   C313    1.471   .     S
C257   N280    1.377   .     A
C258   C317    1.478   .     S
C258   N279    1.375   .     A
C258   C505    1.424   .     S
C259   C321    1.470   .     S
C259   N280    1.377   .     A
C260   N279    1.375   .     A
C260   C325    1.478   .     S
C260   C503    1.426   .     S
C261   C266    1.452   .     S
C261   O285    1.299   .     A
C261   O288    1.300   .     A
C262   O286    1.299   .     A
C262   C265    1.450   .     S
C262   O287    1.300   .     A
C263   C273    1.409   .     A
C263   Cl289   1.778   .     S
C263   C265    1.399   .     A
C264   C266    1.397   .     A
C264   C274    1.412   .     A
C264   Cl290   1.777   .     S
C265   C267    1.399   .     A
C266   C268    1.397   .     A
C267   Cl291   1.779   .     S
C267   C269    1.418   .     A
C268   Cl292   1.779   .     S
C268   C270    1.418   .     A
C269   C275    1.420   .     A
C269   C271    1.421   .     A
C270   C272    1.420   .     A
C270   C276    1.421   .     A
C271   C273    1.413   .     A
C271   C1010   1.411   .     S
C272   C274    1.414   .     A
C272   C1009   1.411   1_554 S
C275   C293    1.480   .     S
C275   C987    1.408   .     S
C276   C297    1.476   .     S
C276   C988    1.416   1_554 S
Cu277  N279    2.038   .     S
Cu277  O283    2.000   .     S
Cu277  Cu278   2.712   .     S
Cu277  O287    1.952   .     S
Cu277  O285    1.953   .     S
Cu277  O281    2.001   .     S
Cu278  O284    2.000   .     S
Cu278  N280    2.038   .     S
Cu278  O282    2.001   .     S
Cu278  O286    1.953   .     S
Cu278  O288    1.952   .     S
C293   O295    1.397   .     S
C293   O294    1.221   .     D
O295   H296    1.013   .     S
C297   O298    1.221   .     D
C297   O299    1.399   .     S
O299   H300    1.013   .     S
C301   O302    1.216   .     D
C301   O303    1.396   .     S
O303   H304    1.014   .     S
C305   O306    1.218   .     D
C305   O307    1.397   .     S
O307   H308    1.014   .     S
C313   O314    1.221   .     D
C313   O315    1.397   .     S
O315   H316    1.010   .     S
C317   O318    1.220   .     D
C317   O319    1.399   .     S
O319   H320    1.013   .     S
C321   O322    1.221   .     D
C321   O323    1.398   .     S
O323   H324    1.010   .     S
C325   O327    1.399   .     S
C325   O326    1.220   .     D
O327   H328    1.014   .     S
C329   O366    1.309   .     A
C329   O363    1.310   .     A
C329   C338    1.484   .     S
C330   O364    1.308   .     A
C330   O365    1.311   .     A
C330   C337    1.485   .     S
C331   C356    1.410   .     A
C331   C383    1.477   .     S
C331   C1095   1.408   1_554 S
C332   C355    1.412   .     A
C332   C387    1.502   .     S
C332   C1096   1.416   .     S
C333   Cl391   1.779   .     S
C333   C338    1.417   .     A
C334   Cl392   1.777   .     S
C334   C337    1.417   .     A
C334   C418    1.396   .     S
C335   Cl393   1.778   .     S
C335   C337    1.420   .     A
C335   C415    1.398   .     S
C336   Cl394   1.777   .     S
C336   C338    1.416   .     A
C339   C395    1.471   .     S
C339   N362    1.377   .     A
C340   C399    1.478   .     S
C340   N361    1.375   .     A
C340   C587    1.424   .     S
C341   C403    1.470   .     S
C341   N362    1.377   .     A
C342   N361    1.375   .     A
C342   C407    1.478   .     S
C342   C585    1.426   .     S
C343   C348    1.452   .     S
C343   O367    1.299   .     A
C343   O370    1.300   .     A
C344   O368    1.299   .     A
C344   C347    1.450   .     S
C344   O369    1.300   .     A
C345   C355    1.409   .     A
C345   Cl371   1.778   .     S
C345   C347    1.399   .     A
C346   C348    1.397   .     A
C346   C356    1.412   .     A
C346   Cl372   1.777   .     S
C347   C349    1.399   .     A
C348   C350    1.397   .     A
C349   Cl373   1.779   .     S
C349   C351    1.418   .     A
C350   Cl374   1.779   .     S
C350   C352    1.418   .     A
C351   C357    1.420   .     A
C351   C353    1.421   .     A
C352   C354    1.420   .     A
C352   C358    1.421   .     A
C353   C355    1.413   .     A
C353   C1092   1.411   .     S
C354   C356    1.414   .     A
C354   C1091   1.411   1_554 S
C357   C375    1.480   .     S
C357   C1069   1.408   .     S
C358   C379    1.476   .     S
C358   C1070   1.416   1_554 S
Cu359  N361    2.038   .     S
Cu359  O365    2.000   .     S
Cu359  Cu360   2.712   .     S
Cu359  O369    1.952   .     S
Cu359  O367    1.953   .     S
Cu359  O363    2.001   .     S
Cu360  O366    2.000   .     S
Cu360  N362    2.038   .     S
Cu360  O364    2.001   .     S
Cu360  O368    1.953   .     S
Cu360  O370    1.952   .     S
C375   O377    1.397   .     S
C375   O376    1.221   .     D
O377   H378    1.013   .     S
C379   O380    1.221   .     D
C379   O381    1.399   .     S
O381   H382    1.013   .     S
C383   O384    1.216   .     D
C383   O385    1.396   .     S
O385   H386    1.014   .     S
C387   O388    1.218   .     D
C387   O389    1.397   .     S
O389   H390    1.014   .     S
C395   O396    1.221   .     D
C395   O397    1.397   .     S
O397   H398    1.010   .     S
C399   O400    1.220   .     D
C399   O401    1.399   .     S
O401   H402    1.013   .     S
C403   O404    1.221   .     D
C403   O405    1.398   .     S
O405   H406    1.010   .     S
C407   O409    1.399   .     S
C407   O408    1.220   .     D
O409   H410    1.014   .     S
C411   O448    1.309   .     A
C411   O445    1.310   .     A
C411   C420    1.484   .     S
C412   O446    1.308   .     A
C412   O447    1.311   .     A
C412   C419    1.485   .     S
C413   C438    1.410   .     A
C413   C465    1.477   .     S
C413   C1177   1.408   1_554 S
C414   C437    1.412   .     A
C414   C469    1.502   .     S
C414   C1178   1.416   .     S
C415   Cl473   1.779   .     S
C415   C420    1.417   .     A
C416   Cl474   1.777   .     S
C416   C419    1.417   .     A
C416   C254    1.396   1_655 S
C417   Cl475   1.778   .     S
C417   C419    1.420   .     A
C417   C251    1.398   1_655 S
C418   Cl476   1.777   .     S
C418   C420    1.416   .     A
C421   C477    1.471   .     S
C421   N444    1.377   .     A
C422   C481    1.478   .     S
C422   N443    1.375   .     A
C422   C669    1.424   .     S
C423   C485    1.470   .     S
C423   N444    1.377   .     A
C424   N443    1.375   .     A
C424   C489    1.478   .     S
C424   C667    1.426   .     S
C425   C430    1.452   .     S
C425   O449    1.299   .     A
C425   O452    1.300   .     A
C426   O450    1.299   .     A
C426   C429    1.450   .     S
C426   O451    1.300   .     A
C427   C437    1.409   .     A
C427   Cl453   1.778   .     S
C427   C429    1.399   .     A
C428   C430    1.397   .     A
C428   C438    1.412   .     A
C428   Cl454   1.777   .     S
C429   C431    1.399   .     A
C430   C432    1.397   .     A
C431   Cl455   1.779   .     S
C431   C433    1.418   .     A
C432   Cl456   1.779   .     S
C432   C434    1.418   .     A
C433   C439    1.420   .     A
C433   C435    1.421   .     A
C434   C436    1.420   .     A
C434   C440    1.421   .     A
C435   C437    1.413   .     A
C435   C1174   1.411   .     S
C436   C438    1.414   .     A
C436   C1173   1.411   1_554 S
C439   C457    1.480   .     S
C439   C1151   1.408   .     S
C440   C461    1.476   .     S
C440   C1152   1.416   1_554 S
Cu441  N443    2.038   .     S
Cu441  O447    2.000   .     S
Cu441  Cu442   2.712   .     S
Cu441  O451    1.952   .     S
Cu441  O449    1.953   .     S
Cu441  O445    2.001   .     S
Cu442  O448    2.000   .     S
Cu442  N444    2.038   .     S
Cu442  O446    2.001   .     S
Cu442  O450    1.953   .     S
Cu442  O452    1.952   .     S
C457   O459    1.397   .     S
C457   O458    1.221   .     D
O459   H460    1.013   .     S
C461   O462    1.221   .     D
C461   O463    1.399   .     S
O463   H464    1.013   .     S
C465   O466    1.216   .     D
C465   O467    1.396   .     S
O467   H468    1.014   .     S
C469   O470    1.218   .     D
C469   O471    1.397   .     S
O471   H472    1.014   .     S
C477   O478    1.221   .     D
C477   O479    1.397   .     S
O479   H480    1.010   .     S
C481   O482    1.220   .     D
C481   O483    1.399   .     S
O483   H484    1.013   .     S
C485   O486    1.221   .     D
C485   O487    1.398   .     S
O487   H488    1.010   .     S
C489   O491    1.399   .     S
C489   O490    1.220   .     D
O491   H492    1.014   .     S
C493   O530    1.309   .     A
C493   O527    1.310   .     A
C493   C502    1.484   .     S
C494   O528    1.308   .     A
C494   O529    1.311   .     A
C494   C501    1.485   .     S
C495   C520    1.410   .     A
C495   C547    1.477   .     S
C495   C1259   1.408   1_554 S
C496   C519    1.412   .     A
C496   C551    1.502   .     S
C496   C1260   1.416   .     S
C497   Cl555   1.779   .     S
C497   C502    1.417   .     A
C497   C663    1.398   1_455 S
C498   Cl556   1.777   .     S
C498   C501    1.417   .     A
C498   C582    1.396   .     S
C499   Cl557   1.778   .     S
C499   C501    1.420   .     A
C499   C579    1.398   .     S
C500   Cl558   1.777   .     S
C500   C502    1.416   .     A
C500   C662    1.396   1_455 S
C503   C559    1.471   .     S
C503   N526    1.377   .     A
C504   C563    1.478   .     S
C504   N525    1.375   .     A
C504   C13     1.424   1_565 S
C505   C567    1.470   .     S
C505   N526    1.377   .     A
C506   N525    1.375   .     A
C506   C571    1.478   .     S
C506   C11     1.426   1_565 S
C507   C512    1.452   .     S
C507   O531    1.299   .     A
C507   O534    1.300   .     A
C508   O532    1.299   .     A
C508   C511    1.450   .     S
C508   O533    1.300   .     A
C509   C519    1.409   .     A
C509   Cl535   1.778   .     S
C509   C511    1.399   .     A
C510   C512    1.397   .     A
C510   C520    1.412   .     A
C510   Cl536   1.777   .     S
C511   C513    1.399   .     A
C512   C514    1.397   .     A
C513   Cl537   1.779   .     S
C513   C515    1.418   .     A
C514   Cl538   1.779   .     S
C514   C516    1.418   .     A
C515   C521    1.420   .     A
C515   C517    1.421   .     A
C516   C518    1.420   .     A
C516   C522    1.421   .     A
C517   C519    1.413   .     A
C517   C1256   1.411   .     S
C518   C520    1.414   .     A
C518   C1255   1.411   1_554 S
C521   C539    1.480   .     S
C521   C1233   1.408   .     S
C522   C543    1.476   .     S
C522   C1234   1.416   1_554 S
Cu523  N525    2.038   .     S
Cu523  O529    2.000   .     S
Cu523  Cu524   2.712   .     S
Cu523  O533    1.952   .     S
Cu523  O531    1.953   .     S
Cu523  O527    2.001   .     S
Cu524  O530    2.000   .     S
Cu524  N526    2.038   .     S
Cu524  O528    2.001   .     S
Cu524  O532    1.953   .     S
Cu524  O534    1.952   .     S
C539   O541    1.397   .     S
C539   O540    1.221   .     D
O541   H542    1.013   .     S
C543   O544    1.221   .     D
C543   O545    1.399   .     S
O545   H546    1.013   .     S
C547   O548    1.216   .     D
C547   O549    1.396   .     S
O549   H550    1.014   .     S
C551   O552    1.218   .     D
C551   O553    1.397   .     S
O553   H554    1.014   .     S
C559   O560    1.221   .     D
C559   O561    1.397   .     S
O561   H562    1.010   .     S
C563   O564    1.220   .     D
C563   O565    1.399   .     S
O565   H566    1.013   .     S
C567   O568    1.221   .     D
C567   O569    1.398   .     S
O569   H570    1.010   .     S
C571   O573    1.399   .     S
C571   O572    1.220   .     D
O573   H574    1.014   .     S
C575   O612    1.309   .     A
C575   O609    1.310   .     A
C575   C584    1.484   .     S
C576   O610    1.308   .     A
C576   O611    1.311   .     A
C576   C583    1.485   .     S
C577   C602    1.410   .     A
C577   C629    1.477   .     S
C577   C1341   1.408   1_554 S
C578   C601    1.412   .     A
C578   C633    1.502   .     S
C578   C1342   1.416   .     S
C579   Cl637   1.779   .     S
C579   C584    1.417   .     A
C580   Cl638   1.777   .     S
C580   C583    1.417   .     A
C580   C664    1.396   .     S
C581   Cl639   1.778   .     S
C581   C583    1.420   .     A
C581   C661    1.398   .     S
C582   Cl640   1.777   .     S
C582   C584    1.416   .     A
C585   C641    1.471   .     S
C585   N608    1.377   .     A
C586   C645    1.478   .     S
C586   N607    1.375   .     A
C586   C95     1.424   1_565 S
C587   C649    1.470   .     S
C587   N608    1.377   .     A
C588   N607    1.375   .     A
C588   C653    1.478   .     S
C588   C93     1.426   1_565 S
C589   C594    1.452   .     S
C589   O613    1.299   .     A
C589   O616    1.300   .     A
C590   O614    1.299   .     A
C590   C593    1.450   .     S
C590   O615    1.300   .     A
C591   C601    1.409   .     A
C591   Cl617   1.778   .     S
C591   C593    1.399   .     A
C592   C594    1.397   .     A
C592   C602    1.412   .     A
C592   Cl618   1.777   .     S
C593   C595    1.399   .     A
C594   C596    1.397   .     A
C595   Cl619   1.779   .     S
C595   C597    1.418   .     A
C596   Cl620   1.779   .     S
C596   C598    1.418   .     A
C597   C603    1.420   .     A
C597   C599    1.421   .     A
C598   C600    1.420   .     A
C598   C604    1.421   .     A
C599   C601    1.413   .     A
C599   C1338   1.411   .     S
C600   C602    1.414   .     A
C600   C1337   1.411   1_554 S
C603   C621    1.480   .     S
C603   C1315   1.408   .     S
C604   C625    1.476   .     S
C604   C1316   1.416   1_554 S
Cu605  N607    2.038   .     S
Cu605  O611    2.000   .     S
Cu605  Cu606   2.712   .     S
Cu605  O615    1.952   .     S
Cu605  O613    1.953   .     S
Cu605  O609    2.001   .     S
Cu606  O612    2.000   .     S
Cu606  N608    2.038   .     S
Cu606  O610    2.001   .     S
Cu606  O614    1.953   .     S
Cu606  O616    1.952   .     S
C621   O623    1.397   .     S
C621   O622    1.221   .     D
O623   H624    1.013   .     S
C625   O626    1.221   .     D
C625   O627    1.399   .     S
O627   H628    1.013   .     S
C629   O630    1.216   .     D
C629   O631    1.396   .     S
O631   H632    1.014   .     S
C633   O634    1.218   .     D
C633   O635    1.397   .     S
O635   H636    1.014   .     S
C641   O642    1.221   .     D
C641   O643    1.397   .     S
O643   H644    1.010   .     S
C645   O646    1.220   .     D
C645   O647    1.399   .     S
O647   H648    1.013   .     S
C649   O650    1.221   .     D
C649   O651    1.398   .     S
O651   H652    1.010   .     S
C653   O655    1.399   .     S
C653   O654    1.220   .     D
O655   H656    1.014   .     S
C657   O694    1.309   .     A
C657   O691    1.310   .     A
C657   C666    1.484   .     S
C658   O692    1.308   .     A
C658   O693    1.311   .     A
C658   C665    1.485   .     S
C659   C684    1.410   .     A
C659   C711    1.477   .     S
C659   C1423   1.408   1_554 S
C660   C683    1.412   .     A
C660   C715    1.502   .     S
C660   C1424   1.416   .     S
C661   Cl719   1.779   .     S
C661   C666    1.417   .     A
C662   Cl720   1.777   .     S
C662   C665    1.417   .     A
C662   C500    1.396   1_655 S
C663   Cl721   1.778   .     S
C663   C665    1.420   .     A
C663   C497    1.398   1_655 S
C664   Cl722   1.777   .     S
C664   C666    1.416   .     A
C667   C723    1.471   .     S
C667   N690    1.377   .     A
C668   C727    1.478   .     S
C668   N689    1.375   .     A
C668   C177    1.424   1_565 S
C669   C731    1.470   .     S
C669   N690    1.377   .     A
C670   N689    1.375   .     A
C670   C735    1.478   .     S
C670   C175    1.426   1_565 S
C671   C676    1.452   .     S
C671   O695    1.299   .     A
C671   O698    1.300   .     A
C672   O696    1.299   .     A
C672   C675    1.450   .     S
C672   O697    1.300   .     A
C673   C683    1.409   .     A
C673   Cl699   1.778   .     S
C673   C675    1.399   .     A
C674   C676    1.397   .     A
C674   C684    1.412   .     A
C674   Cl700   1.777   .     S
C675   C677    1.399   .     A
C676   C678    1.397   .     A
C677   Cl701   1.779   .     S
C677   C679    1.418   .     A
C678   Cl702   1.779   .     S
C678   C680    1.418   .     A
C679   C685    1.420   .     A
C679   C681    1.421   .     A
C680   C682    1.420   .     A
C680   C686    1.421   .     A
C681   C683    1.413   .     A
C681   C1420   1.411   .     S
C682   C684    1.414   .     A
C682   C1419   1.411   1_554 S
C685   C703    1.480   .     S
C685   C1397   1.408   .     S
C686   C707    1.476   .     S
C686   C1398   1.416   1_554 S
Cu687  N689    2.038   .     S
Cu687  O693    2.000   .     S
Cu687  Cu688   2.712   .     S
Cu687  O697    1.952   .     S
Cu687  O695    1.953   .     S
Cu687  O691    2.001   .     S
Cu688  O694    2.000   .     S
Cu688  N690    2.038   .     S
Cu688  O692    2.001   .     S
Cu688  O696    1.953   .     S
Cu688  O698    1.952   .     S
C703   O705    1.397   .     S
C703   O704    1.221   .     D
O705   H706    1.013   .     S
C707   O708    1.221   .     D
C707   O709    1.399   .     S
O709   H710    1.013   .     S
C711   O712    1.216   .     D
C711   O713    1.396   .     S
O713   H714    1.014   .     S
C715   O716    1.218   .     D
C715   O717    1.397   .     S
O717   H718    1.014   .     S
C723   O724    1.221   .     D
C723   O725    1.397   .     S
O725   H726    1.010   .     S
C727   O728    1.220   .     D
C727   O729    1.399   .     S
O729   H730    1.013   .     S
C731   O732    1.221   .     D
C731   O733    1.398   .     S
O733   H734    1.010   .     S
C735   O737    1.399   .     S
C735   O736    1.220   .     D
O737   H738    1.014   .     S
C739   O776    1.309   .     A
C739   O773    1.310   .     A
C739   C748    1.484   .     S
C740   O774    1.308   .     A
C740   O775    1.311   .     A
C740   C747    1.485   .     S
C741   C766    1.410   .     A
C741   C793    1.477   .     S
C742   C765    1.412   .     A
C742   C797    1.502   .     S
C742   C30     1.416   1_556 S
C743   Cl801   1.779   .     S
C743   C748    1.417   .     A
C743   C909    1.398   1_455 S
C744   Cl802   1.777   .     S
C744   C747    1.417   .     A
C744   C828    1.396   .     S
C745   Cl803   1.778   .     S
C745   C747    1.420   .     A
C745   C825    1.398   .     S
C746   Cl804   1.777   .     S
C746   C748    1.416   .     A
C746   C908    1.396   1_455 S
C749   C805    1.471   .     S
C749   N772    1.377   .     A
C749   C1244   1.426   1_545 S
C750   C809    1.478   .     S
C750   N771    1.375   .     A
C750   C997    1.424   .     S
C751   C813    1.470   .     S
C751   N772    1.377   .     A
C751   C1242   1.424   1_545 S
C752   N771    1.375   .     A
C752   C817    1.478   .     S
C752   C995    1.426   .     S
C753   C758    1.452   .     S
C753   O777    1.299   .     A
C753   O780    1.300   .     A
C754   O778    1.299   .     A
C754   C757    1.450   .     S
C754   O779    1.300   .     A
C755   C765    1.409   .     A
C755   Cl781   1.778   .     S
C755   C757    1.399   .     A
C756   C758    1.397   .     A
C756   C766    1.412   .     A
C756   Cl782   1.777   .     S
C757   C759    1.399   .     A
C758   C760    1.397   .     A
C759   Cl783   1.779   .     S
C759   C761    1.418   .     A
C760   Cl784   1.779   .     S
C760   C762    1.418   .     A
C761   C767    1.420   .     A
C761   C763    1.421   .     A
C762   C764    1.420   .     A
C762   C768    1.421   .     A
C763   C765    1.413   .     A
C763   C26     1.411   1_556 S
C764   C766    1.414   .     A
C767   C785    1.480   .     S
C767   C3      1.408   1_556 S
C768   C789    1.476   .     S
Cu769  N771    2.038   .     S
Cu769  O775    2.000   .     S
Cu769  Cu770   2.712   .     S
Cu769  O779    1.952   .     S
Cu769  O777    1.953   .     S
Cu769  O773    2.001   .     S
Cu770  O776    2.000   .     S
Cu770  N772    2.038   .     S
Cu770  O774    2.001   .     S
Cu770  O778    1.953   .     S
Cu770  O780    1.952   .     S
C785   O787    1.397   .     S
C785   O786    1.221   .     D
O787   H788    1.013   .     S
C789   O790    1.221   .     D
C789   O791    1.399   .     S
O791   H792    1.013   .     S
C793   O794    1.216   .     D
C793   O795    1.396   .     S
O795   H796    1.014   .     S
C797   O798    1.218   .     D
C797   O799    1.397   .     S
O799   H800    1.014   .     S
C805   O806    1.221   .     D
C805   O807    1.397   .     S
O807   H808    1.010   .     S
C809   O810    1.220   .     D
C809   O811    1.399   .     S
O811   H812    1.013   .     S
C813   O814    1.221   .     D
C813   O815    1.398   .     S
O815   H816    1.010   .     S
C817   O819    1.399   .     S
C817   O818    1.220   .     D
O819   H820    1.014   .     S
C821   O858    1.309   .     A
C821   O855    1.310   .     A
C821   C830    1.484   .     S
C822   O856    1.308   .     A
C822   O857    1.311   .     A
C822   C829    1.485   .     S
C823   C848    1.410   .     A
C823   C875    1.477   .     S
C824   C847    1.412   .     A
C824   C879    1.502   .     S
C824   C112    1.416   1_556 S
C825   Cl883   1.779   .     S
C825   C830    1.417   .     A
C826   Cl884   1.777   .     S
C826   C829    1.417   .     A
C826   C910    1.396   .     S
C827   Cl885   1.778   .     S
C827   C829    1.420   .     A
C827   C907    1.398   .     S
C828   Cl886   1.777   .     S
C828   C830    1.416   .     A
C831   C887    1.471   .     S
C831   N854    1.377   .     A
C831   C1326   1.426   1_545 S
C832   C891    1.478   .     S
C832   N853    1.375   .     A
C832   C1079   1.424   .     S
C833   C895    1.470   .     S
C833   N854    1.377   .     A
C833   C1324   1.424   1_545 S
C834   N853    1.375   .     A
C834   C899    1.478   .     S
C834   C1077   1.426   .     S
C835   C840    1.452   .     S
C835   O859    1.299   .     A
C835   O862    1.300   .     A
C836   O860    1.299   .     A
C836   C839    1.450   .     S
C836   O861    1.300   .     A
C837   C847    1.409   .     A
C837   Cl863   1.778   .     S
C837   C839    1.399   .     A
C838   C840    1.397   .     A
C838   C848    1.412   .     A
C838   Cl864   1.777   .     S
C839   C841    1.399   .     A
C840   C842    1.397   .     A
C841   Cl865   1.779   .     S
C841   C843    1.418   .     A
C842   Cl866   1.779   .     S
C842   C844    1.418   .     A
C843   C849    1.420   .     A
C843   C845    1.421   .     A
C844   C846    1.420   .     A
C844   C850    1.421   .     A
C845   C847    1.413   .     A
C845   C108    1.411   1_556 S
C846   C848    1.414   .     A
C849   C867    1.480   .     S
C849   C85     1.408   1_556 S
C850   C871    1.476   .     S
Cu851  N853    2.038   .     S
Cu851  O857    2.000   .     S
Cu851  Cu852   2.712   .     S
Cu851  O861    1.952   .     S
Cu851  O859    1.953   .     S
Cu851  O855    2.001   .     S
Cu852  O858    2.000   .     S
Cu852  N854    2.038   .     S
Cu852  O856    2.001   .     S
Cu852  O860    1.953   .     S
Cu852  O862    1.952   .     S
C867   O869    1.397   .     S
C867   O868    1.221   .     D
O869   H870    1.013   .     S
C871   O872    1.221   .     D
C871   O873    1.399   .     S
O873   H874    1.013   .     S
C875   O876    1.216   .     D
C875   O877    1.396   .     S
O877   H878    1.014   .     S
C879   O880    1.218   .     D
C879   O881    1.397   .     S
O881   H882    1.014   .     S
C887   O888    1.221   .     D
C887   O889    1.397   .     S
O889   H890    1.010   .     S
C891   O892    1.220   .     D
C891   O893    1.399   .     S
O893   H894    1.013   .     S
C895   O896    1.221   .     D
C895   O897    1.398   .     S
O897   H898    1.010   .     S
C899   O901    1.399   .     S
C899   O900    1.220   .     D
O901   H902    1.014   .     S
C903   O940    1.309   .     A
C903   O937    1.310   .     A
C903   C912    1.484   .     S
C904   O938    1.308   .     A
C904   O939    1.311   .     A
C904   C911    1.485   .     S
C905   C930    1.410   .     A
C905   C957    1.477   .     S
C906   C929    1.412   .     A
C906   C961    1.502   .     S
C906   C194    1.416   1_556 S
C907   Cl965   1.779   .     S
C907   C912    1.417   .     A
C908   Cl966   1.777   .     S
C908   C911    1.417   .     A
C908   C746    1.396   1_655 S
C909   Cl967   1.778   .     S
C909   C911    1.420   .     A
C909   C743    1.398   1_655 S
C910   Cl968   1.777   .     S
C910   C912    1.416   .     A
C913   C969    1.471   .     S
C913   N936    1.377   .     A
C913   C1408   1.426   1_545 S
C914   C973    1.478   .     S
C914   N935    1.375   .     A
C914   C1161   1.424   .     S
C915   C977    1.470   .     S
C915   N936    1.377   .     A
C915   C1406   1.424   1_545 S
C916   N935    1.375   .     A
C916   C981    1.478   .     S
C916   C1159   1.426   .     S
C917   C922    1.452   .     S
C917   O941    1.299   .     A
C917   O944    1.300   .     A
C918   O942    1.299   .     A
C918   C921    1.450   .     S
C918   O943    1.300   .     A
C919   C929    1.409   .     A
C919   Cl945   1.778   .     S
C919   C921    1.399   .     A
C920   C922    1.397   .     A
C920   C930    1.412   .     A
C920   Cl946   1.777   .     S
C921   C923    1.399   .     A
C922   C924    1.397   .     A
C923   Cl947   1.779   .     S
C923   C925    1.418   .     A
C924   Cl948   1.779   .     S
C924   C926    1.418   .     A
C925   C931    1.420   .     A
C925   C927    1.421   .     A
C926   C928    1.420   .     A
C926   C932    1.421   .     A
C927   C929    1.413   .     A
C927   C190    1.411   1_556 S
C928   C930    1.414   .     A
C931   C949    1.480   .     S
C931   C167    1.408   1_556 S
C932   C953    1.476   .     S
Cu933  N935    2.038   .     S
Cu933  O939    2.000   .     S
Cu933  Cu934   2.712   .     S
Cu933  O943    1.952   .     S
Cu933  O941    1.953   .     S
Cu933  O937    2.001   .     S
Cu934  O940    2.000   .     S
Cu934  N936    2.038   .     S
Cu934  O938    2.001   .     S
Cu934  O942    1.953   .     S
Cu934  O944    1.952   .     S
C949   O951    1.397   .     S
C949   O950    1.221   .     D
O951   H952    1.013   .     S
C953   O954    1.221   .     D
C953   O955    1.399   .     S
O955   H956    1.013   .     S
C957   O958    1.216   .     D
C957   O959    1.396   .     S
O959   H960    1.014   .     S
C961   O962    1.218   .     D
C961   O963    1.397   .     S
O963   H964    1.014   .     S
C969   O970    1.221   .     D
C969   O971    1.397   .     S
O971   H972    1.010   .     S
C973   O974    1.220   .     D
C973   O975    1.399   .     S
O975   H976    1.013   .     S
C977   O978    1.221   .     D
C977   O979    1.398   .     S
O979   H980    1.010   .     S
C981   O983    1.399   .     S
C981   O982    1.220   .     D
O983   H984    1.014   .     S
C985   O1022   1.309   .     A
C985   O1019   1.310   .     A
C985   C994    1.484   .     S
C986   O1020   1.308   .     A
C986   O1021   1.311   .     A
C986   C993    1.485   .     S
C987   C1012   1.410   .     A
C987   C1039   1.477   .     S
C988   C1011   1.412   .     A
C988   C1043   1.502   .     S
C988   C276    1.416   1_556 S
C989   Cl1047  1.779   .     S
C989   C994    1.417   .     A
C989   C1155   1.398   1_455 S
C990   Cl1048  1.777   .     S
C990   C993    1.417   .     A
C990   C1074   1.396   .     S
C991   Cl1049  1.778   .     S
C991   C993    1.420   .     A
C991   C1071   1.398   .     S
C992   Cl1050  1.777   .     S
C992   C994    1.416   .     A
C992   C1154   1.396   1_455 S
C995   C1051   1.471   .     S
C995   N1018   1.377   .     A
C996   C1055   1.478   .     S
C996   N1017   1.375   .     A
C996   C1243   1.424   .     S
C997   C1059   1.470   .     S
C997   N1018   1.377   .     A
C998   N1017   1.375   .     A
C998   C1063   1.478   .     S
C998   C1241   1.426   .     S
C999   C1004   1.452   .     S
C999   O1023   1.299   .     A
C999   O1026   1.300   .     A
C1000  O1024   1.299   .     A
C1000  C1003   1.450   .     S
C1000  O1025   1.300   .     A
C1001  C1011   1.409   .     A
C1001  Cl1027  1.778   .     S
C1001  C1003   1.399   .     A
C1002  C1004   1.397   .     A
C1002  C1012   1.412   .     A
C1002  Cl1028  1.777   .     S
C1003  C1005   1.399   .     A
C1004  C1006   1.397   .     A
C1005  Cl1029  1.779   .     S
C1005  C1007   1.418   .     A
C1006  Cl1030  1.779   .     S
C1006  C1008   1.418   .     A
C1007  C1013   1.420   .     A
C1007  C1009   1.421   .     A
C1008  C1010   1.420   .     A
C1008  C1014   1.421   .     A
C1009  C1011   1.413   .     A
C1009  C272    1.411   1_556 S
C1010  C1012   1.414   .     A
C1013  C1031   1.480   .     S
C1013  C249    1.408   1_556 S
C1014  C1035   1.476   .     S
Cu1015 N1017   2.038   .     S
Cu1015 O1021   2.000   .     S
Cu1015 Cu1016  2.712   .     S
Cu1015 O1025   1.952   .     S
Cu1015 O1023   1.953   .     S
Cu1015 O1019   2.001   .     S
Cu1016 O1022   2.000   .     S
Cu1016 N1018   2.038   .     S
Cu1016 O1020   2.001   .     S
Cu1016 O1024   1.953   .     S
Cu1016 O1026   1.952   .     S
C1031  O1033   1.397   .     S
C1031  O1032   1.221   .     D
O1033  H1034   1.013   .     S
C1035  O1036   1.221   .     D
C1035  O1037   1.399   .     S
O1037  H1038   1.013   .     S
C1039  O1040   1.216   .     D
C1039  O1041   1.396   .     S
O1041  H1042   1.014   .     S
C1043  O1044   1.218   .     D
C1043  O1045   1.397   .     S
O1045  H1046   1.014   .     S
C1051  O1052   1.221   .     D
C1051  O1053   1.397   .     S
O1053  H1054   1.010   .     S
C1055  O1056   1.220   .     D
C1055  O1057   1.399   .     S
O1057  H1058   1.013   .     S
C1059  O1060   1.221   .     D
C1059  O1061   1.398   .     S
O1061  H1062   1.010   .     S
C1063  O1065   1.399   .     S
C1063  O1064   1.220   .     D
O1065  H1066   1.014   .     S
C1067  O1104   1.309   .     A
C1067  O1101   1.310   .     A
C1067  C1076   1.484   .     S
C1068  O1102   1.308   .     A
C1068  O1103   1.311   .     A
C1068  C1075   1.485   .     S
C1069  C1094   1.410   .     A
C1069  C1121   1.477   .     S
C1070  C1093   1.412   .     A
C1070  C1125   1.502   .     S
C1070  C358    1.416   1_556 S
C1071  Cl1129  1.779   .     S
C1071  C1076   1.417   .     A
C1072  Cl1130  1.777   .     S
C1072  C1075   1.417   .     A
C1072  C1156   1.396   .     S
C1073  Cl1131  1.778   .     S
C1073  C1075   1.420   .     A
C1073  C1153   1.398   .     S
C1074  Cl1132  1.777   .     S
C1074  C1076   1.416   .     A
C1077  C1133   1.471   .     S
C1077  N1100   1.377   .     A
C1078  C1137   1.478   .     S
C1078  N1099   1.375   .     A
C1078  C1325   1.424   .     S
C1079  C1141   1.470   .     S
C1079  N1100   1.377   .     A
C1080  N1099   1.375   .     A
C1080  C1145   1.478   .     S
C1080  C1323   1.426   .     S
C1081  C1086   1.452   .     S
C1081  O1105   1.299   .     A
C1081  O1108   1.300   .     A
C1082  O1106   1.299   .     A
C1082  C1085   1.450   .     S
C1082  O1107   1.300   .     A
C1083  C1093   1.409   .     A
C1083  Cl1109  1.778   .     S
C1083  C1085   1.399   .     A
C1084  C1086   1.397   .     A
C1084  C1094   1.412   .     A
C1084  Cl1110  1.777   .     S
C1085  C1087   1.399   .     A
C1086  C1088   1.397   .     A
C1087  Cl1111  1.779   .     S
C1087  C1089   1.418   .     A
C1088  Cl1112  1.779   .     S
C1088  C1090   1.418   .     A
C1089  C1095   1.420   .     A
C1089  C1091   1.421   .     A
C1090  C1092   1.420   .     A
C1090  C1096   1.421   .     A
C1091  C1093   1.413   .     A
C1091  C354    1.411   1_556 S
C1092  C1094   1.414   .     A
C1095  C1113   1.480   .     S
C1095  C331    1.408   1_556 S
C1096  C1117   1.476   .     S
Cu1097 N1099   2.038   .     S
Cu1097 O1103   2.000   .     S
Cu1097 Cu1098  2.712   .     S
Cu1097 O1107   1.952   .     S
Cu1097 O1105   1.953   .     S
Cu1097 O1101   2.001   .     S
Cu1098 O1104   2.000   .     S
Cu1098 N1100   2.038   .     S
Cu1098 O1102   2.001   .     S
Cu1098 O1106   1.953   .     S
Cu1098 O1108   1.952   .     S
C1113  O1115   1.397   .     S
C1113  O1114   1.221   .     D
O1115  H1116   1.013   .     S
C1117  O1118   1.221   .     D
C1117  O1119   1.399   .     S
O1119  H1120   1.013   .     S
C1121  O1122   1.216   .     D
C1121  O1123   1.396   .     S
O1123  H1124   1.014   .     S
C1125  O1126   1.218   .     D
C1125  O1127   1.397   .     S
O1127  H1128   1.014   .     S
C1133  O1134   1.221   .     D
C1133  O1135   1.397   .     S
O1135  H1136   1.010   .     S
C1137  O1138   1.220   .     D
C1137  O1139   1.399   .     S
O1139  H1140   1.013   .     S
C1141  O1142   1.221   .     D
C1141  O1143   1.398   .     S
O1143  H1144   1.010   .     S
C1145  O1147   1.399   .     S
C1145  O1146   1.220   .     D
O1147  H1148   1.014   .     S
C1149  O1186   1.309   .     A
C1149  O1183   1.310   .     A
C1149  C1158   1.484   .     S
C1150  O1184   1.308   .     A
C1150  O1185   1.311   .     A
C1150  C1157   1.485   .     S
C1151  C1176   1.410   .     A
C1151  C1203   1.477   .     S
C1152  C1175   1.412   .     A
C1152  C1207   1.502   .     S
C1152  C440    1.416   1_556 S
C1153  Cl1211  1.779   .     S
C1153  C1158   1.417   .     A
C1154  Cl1212  1.777   .     S
C1154  C1157   1.417   .     A
C1154  C992    1.396   1_655 S
C1155  Cl1213  1.778   .     S
C1155  C1157   1.420   .     A
C1155  C989    1.398   1_655 S
C1156  Cl1214  1.777   .     S
C1156  C1158   1.416   .     A
C1159  C1215   1.471   .     S
C1159  N1182   1.377   .     A
C1160  C1219   1.478   .     S
C1160  N1181   1.375   .     A
C1160  C1407   1.424   .     S
C1161  C1223   1.470   .     S
C1161  N1182   1.377   .     A
C1162  N1181   1.375   .     A
C1162  C1227   1.478   .     S
C1162  C1405   1.426   .     S
C1163  C1168   1.452   .     S
C1163  O1187   1.299   .     A
C1163  O1190   1.300   .     A
C1164  O1188   1.299   .     A
C1164  C1167   1.450   .     S
C1164  O1189   1.300   .     A
C1165  C1175   1.409   .     A
C1165  Cl1191  1.778   .     S
C1165  C1167   1.399   .     A
C1166  C1168   1.397   .     A
C1166  C1176   1.412   .     A
C1166  Cl1192  1.777   .     S
C1167  C1169   1.399   .     A
C1168  C1170   1.397   .     A
C1169  Cl1193  1.779   .     S
C1169  C1171   1.418   .     A
C1170  Cl1194  1.779   .     S
C1170  C1172   1.418   .     A
C1171  C1177   1.420   .     A
C1171  C1173   1.421   .     A
C1172  C1174   1.420   .     A
C1172  C1178   1.421   .     A
C1173  C1175   1.413   .     A
C1173  C436    1.411   1_556 S
C1174  C1176   1.414   .     A
C1177  C1195   1.480   .     S
C1177  C413    1.408   1_556 S
C1178  C1199   1.476   .     S
Cu1179 N1181   2.038   .     S
Cu1179 O1185   2.000   .     S
Cu1179 Cu1180  2.712   .     S
Cu1179 O1189   1.952   .     S
Cu1179 O1187   1.953   .     S
Cu1179 O1183   2.001   .     S
Cu1180 O1186   2.000   .     S
Cu1180 N1182   2.038   .     S
Cu1180 O1184   2.001   .     S
Cu1180 O1188   1.953   .     S
Cu1180 O1190   1.952   .     S
C1195  O1197   1.397   .     S
C1195  O1196   1.221   .     D
O1197  H1198   1.013   .     S
C1199  O1200   1.221   .     D
C1199  O1201   1.399   .     S
O1201  H1202   1.013   .     S
C1203  O1204   1.216   .     D
C1203  O1205   1.396   .     S
O1205  H1206   1.014   .     S
C1207  O1208   1.218   .     D
C1207  O1209   1.397   .     S
O1209  H1210   1.014   .     S
C1215  O1216   1.221   .     D
C1215  O1217   1.397   .     S
O1217  H1218   1.010   .     S
C1219  O1220   1.220   .     D
C1219  O1221   1.399   .     S
O1221  H1222   1.013   .     S
C1223  O1224   1.221   .     D
C1223  O1225   1.398   .     S
O1225  H1226   1.010   .     S
C1227  O1229   1.399   .     S
C1227  O1228   1.220   .     D
O1229  H1230   1.014   .     S
C1231  O1268   1.309   .     A
C1231  O1265   1.310   .     A
C1231  C1240   1.484   .     S
C1232  O1266   1.308   .     A
C1232  O1267   1.311   .     A
C1232  C1239   1.485   .     S
C1233  C1258   1.410   .     A
C1233  C1285   1.477   .     S
C1234  C1257   1.412   .     A
C1234  C1289   1.502   .     S
C1234  C522    1.416   1_556 S
C1235  Cl1293  1.779   .     S
C1235  C1240   1.417   .     A
C1235  C1401   1.398   1_455 S
C1236  Cl1294  1.777   .     S
C1236  C1239   1.417   .     A
C1236  C1320   1.396   .     S
C1237  Cl1295  1.778   .     S
C1237  C1239   1.420   .     A
C1237  C1317   1.398   .     S
C1238  Cl1296  1.777   .     S
C1238  C1240   1.416   .     A
C1238  C1400   1.396   1_455 S
C1241  C1297   1.471   .     S
C1241  N1264   1.377   .     A
C1242  C1301   1.478   .     S
C1242  N1263   1.375   .     A
C1242  C751    1.424   1_565 S
C1243  C1305   1.470   .     S
C1243  N1264   1.377   .     A
C1244  N1263   1.375   .     A
C1244  C1309   1.478   .     S
C1244  C749    1.426   1_565 S
C1245  C1250   1.452   .     S
C1245  O1269   1.299   .     A
C1245  O1272   1.300   .     A
C1246  O1270   1.299   .     A
C1246  C1249   1.450   .     S
C1246  O1271   1.300   .     A
C1247  C1257   1.409   .     A
C1247  Cl1273  1.778   .     S
C1247  C1249   1.399   .     A
C1248  C1250   1.397   .     A
C1248  C1258   1.412   .     A
C1248  Cl1274  1.777   .     S
C1249  C1251   1.399   .     A
C1250  C1252   1.397   .     A
C1251  Cl1275  1.779   .     S
C1251  C1253   1.418   .     A
C1252  Cl1276  1.779   .     S
C1252  C1254   1.418   .     A
C1253  C1259   1.420   .     A
C1253  C1255   1.421   .     A
C1254  C1256   1.420   .     A
C1254  C1260   1.421   .     A
C1255  C1257   1.413   .     A
C1255  C518    1.411   1_556 S
C1256  C1258   1.414   .     A
C1259  C1277   1.480   .     S
C1259  C495    1.408   1_556 S
C1260  C1281   1.476   .     S
Cu1261 N1263   2.038   .     S
Cu1261 O1267   2.000   .     S
Cu1261 Cu1262  2.712   .     S
Cu1261 O1271   1.952   .     S
Cu1261 O1269   1.953   .     S
Cu1261 O1265   2.001   .     S
Cu1262 O1268   2.000   .     S
Cu1262 N1264   2.038   .     S
Cu1262 O1266   2.001   .     S
Cu1262 O1270   1.953   .     S
Cu1262 O1272   1.952   .     S
C1277  O1279   1.397   .     S
C1277  O1278   1.221   .     D
O1279  H1280   1.013   .     S
C1281  O1282   1.221   .     D
C1281  O1283   1.399   .     S
O1283  H1284   1.013   .     S
C1285  O1286   1.216   .     D
C1285  O1287   1.396   .     S
O1287  H1288   1.014   .     S
C1289  O1290   1.218   .     D
C1289  O1291   1.397   .     S
O1291  H1292   1.014   .     S
C1297  O1298   1.221   .     D
C1297  O1299   1.397   .     S
O1299  H1300   1.010   .     S
C1301  O1302   1.220   .     D
C1301  O1303   1.399   .     S
O1303  H1304   1.013   .     S
C1305  O1306   1.221   .     D
C1305  O1307   1.398   .     S
O1307  H1308   1.010   .     S
C1309  O1311   1.399   .     S
C1309  O1310   1.220   .     D
O1311  H1312   1.014   .     S
C1313  O1350   1.309   .     A
C1313  O1347   1.310   .     A
C1313  C1322   1.484   .     S
C1314  O1348   1.308   .     A
C1314  O1349   1.311   .     A
C1314  C1321   1.485   .     S
C1315  C1340   1.410   .     A
C1315  C1367   1.477   .     S
C1316  C1339   1.412   .     A
C1316  C1371   1.502   .     S
C1316  C604    1.416   1_556 S
C1317  Cl1375  1.779   .     S
C1317  C1322   1.417   .     A
C1318  Cl1376  1.777   .     S
C1318  C1321   1.417   .     A
C1318  C1402   1.396   .     S
C1319  Cl1377  1.778   .     S
C1319  C1321   1.420   .     A
C1319  C1399   1.398   .     S
C1320  Cl1378  1.777   .     S
C1320  C1322   1.416   .     A
C1323  C1379   1.471   .     S
C1323  N1346   1.377   .     A
C1324  C1383   1.478   .     S
C1324  N1345   1.375   .     A
C1324  C833    1.424   1_565 S
C1325  C1387   1.470   .     S
C1325  N1346   1.377   .     A
C1326  N1345   1.375   .     A
C1326  C1391   1.478   .     S
C1326  C831    1.426   1_565 S
C1327  C1332   1.452   .     S
C1327  O1351   1.299   .     A
C1327  O1354   1.300   .     A
C1328  O1352   1.299   .     A
C1328  C1331   1.450   .     S
C1328  O1353   1.300   .     A
C1329  C1339   1.409   .     A
C1329  Cl1355  1.778   .     S
C1329  C1331   1.399   .     A
C1330  C1332   1.397   .     A
C1330  C1340   1.412   .     A
C1330  Cl1356  1.777   .     S
C1331  C1333   1.399   .     A
C1332  C1334   1.397   .     A
C1333  Cl1357  1.779   .     S
C1333  C1335   1.418   .     A
C1334  Cl1358  1.779   .     S
C1334  C1336   1.418   .     A
C1335  C1341   1.420   .     A
C1335  C1337   1.421   .     A
C1336  C1338   1.420   .     A
C1336  C1342   1.421   .     A
C1337  C1339   1.413   .     A
C1337  C600    1.411   1_556 S
C1338  C1340   1.414   .     A
C1341  C1359   1.480   .     S
C1341  C577    1.408   1_556 S
C1342  C1363   1.476   .     S
Cu1343 N1345   2.038   .     S
Cu1343 O1349   2.000   .     S
Cu1343 Cu1344  2.712   .     S
Cu1343 O1353   1.952   .     S
Cu1343 O1351   1.953   .     S
Cu1343 O1347   2.001   .     S
Cu1344 O1350   2.000   .     S
Cu1344 N1346   2.038   .     S
Cu1344 O1348   2.001   .     S
Cu1344 O1352   1.953   .     S
Cu1344 O1354   1.952   .     S
C1359  O1361   1.397   .     S
C1359  O1360   1.221   .     D
O1361  H1362   1.013   .     S
C1363  O1364   1.221   .     D
C1363  O1365   1.399   .     S
O1365  H1366   1.013   .     S
C1367  O1368   1.216   .     D
C1367  O1369   1.396   .     S
O1369  H1370   1.014   .     S
C1371  O1372   1.218   .     D
C1371  O1373   1.397   .     S
O1373  H1374   1.014   .     S
C1379  O1380   1.221   .     D
C1379  O1381   1.397   .     S
O1381  H1382   1.010   .     S
C1383  O1384   1.220   .     D
C1383  O1385   1.399   .     S
O1385  H1386   1.013   .     S
C1387  O1388   1.221   .     D
C1387  O1389   1.398   .     S
O1389  H1390   1.010   .     S
C1391  O1393   1.399   .     S
C1391  O1392   1.220   .     D
O1393  H1394   1.014   .     S
C1395  O1432   1.309   .     A
C1395  O1429   1.310   .     A
C1395  C1404   1.484   .     S
C1396  O1430   1.308   .     A
C1396  O1431   1.311   .     A
C1396  C1403   1.485   .     S
C1397  C1422   1.410   .     A
C1397  C1449   1.477   .     S
C1398  C1421   1.412   .     A
C1398  C1453   1.502   .     S
C1398  C686    1.416   1_556 S
C1399  Cl1457  1.779   .     S
C1399  C1404   1.417   .     A
C1400  Cl1458  1.777   .     S
C1400  C1403   1.417   .     A
C1400  C1238   1.396   1_655 S
C1401  Cl1459  1.778   .     S
C1401  C1403   1.420   .     A
C1401  C1235   1.398   1_655 S
C1402  Cl1460  1.777   .     S
C1402  C1404   1.416   .     A
C1405  C1461   1.471   .     S
C1405  N1428   1.377   .     A
C1406  C1465   1.478   .     S
C1406  N1427   1.375   .     A
C1406  C915    1.424   1_565 S
C1407  C1469   1.470   .     S
C1407  N1428   1.377   .     A
C1408  N1427   1.375   .     A
C1408  C1473   1.478   .     S
C1408  C913    1.426   1_565 S
C1409  C1414   1.452   .     S
C1409  O1433   1.299   .     A
C1409  O1436   1.300   .     A
C1410  O1434   1.299   .     A
C1410  C1413   1.450   .     S
C1410  O1435   1.300   .     A
C1411  C1421   1.409   .     A
C1411  Cl1437  1.778   .     S
C1411  C1413   1.399   .     A
C1412  C1414   1.397   .     A
C1412  C1422   1.412   .     A
C1412  Cl1438  1.777   .     S
C1413  C1415   1.399   .     A
C1414  C1416   1.397   .     A
C1415  Cl1439  1.779   .     S
C1415  C1417   1.418   .     A
C1416  Cl1440  1.779   .     S
C1416  C1418   1.418   .     A
C1417  C1423   1.420   .     A
C1417  C1419   1.421   .     A
C1418  C1420   1.420   .     A
C1418  C1424   1.421   .     A
C1419  C1421   1.413   .     A
C1419  C682    1.411   1_556 S
C1420  C1422   1.414   .     A
C1423  C1441   1.480   .     S
C1423  C659    1.408   1_556 S
C1424  C1445   1.476   .     S
Cu1425 N1427   2.038   .     S
Cu1425 O1431   2.000   .     S
Cu1425 Cu1426  2.712   .     S
Cu1425 O1435   1.952   .     S
Cu1425 O1433   1.953   .     S
Cu1425 O1429   2.001   .     S
Cu1426 O1432   2.000   .     S
Cu1426 N1428   2.038   .     S
Cu1426 O1430   2.001   .     S
Cu1426 O1434   1.953   .     S
Cu1426 O1436   1.952   .     S
C1441  O1443   1.397   .     S
C1441  O1442   1.221   .     D
O1443  H1444   1.013   .     S
C1445  O1446   1.221   .     D
C1445  O1447   1.399   .     S
O1447  H1448   1.013   .     S
C1449  O1450   1.216   .     D
C1449  O1451   1.396   .     S
O1451  H1452   1.014   .     S
C1453  O1454   1.218   .     D
C1453  O1455   1.397   .     S
O1455  H1456   1.014   .     S
C1461  O1462   1.221   .     D
C1461  O1463   1.397   .     S
O1463  H1464   1.010   .     S
C1465  O1466   1.220   .     D
C1465  O1467   1.399   .     S
O1467  H1468   1.013   .     S
C1469  O1470   1.221   .     D
C1469  O1471   1.398   .     S
O1471  H1472   1.010   .     S
C1473  O1475   1.399   .     S
C1473  O1474   1.220   .     D
O1475  H1476   1.014   .     S
