data_str_m3_o2_o5_pcu_sym.127
_audit_creation_date              2020-01-03
_audit_creation_method            'Materials Studio'
_symmetry_space_group_name_H-M    'P1'
_symmetry_Int_Tables_number       1
_symmetry_cell_setting            triclinic
loop_
_symmetry_equiv_pos_as_xyz
  x,y,z
_cell_length_a                    29.9744
_cell_length_b                    28.7631
_cell_length_c                    26.8081
_cell_angle_alpha                 90.2073
_cell_angle_beta                  97.4282
_cell_angle_gamma                 89.4161
loop_
_atom_site_label
_atom_site_type_symbol
_atom_site_fract_x
_atom_site_fract_y
_atom_site_fract_z
_atom_site_U_iso_or_equiv
_atom_site_adp_type
_atom_site_occupancy
C1     C     0.16422   0.25022   0.16885   0.00000  Uiso   1.00
C2     C     0.33621   0.24965   0.16579   0.00000  Uiso   1.00
C3     C     0.22306   0.10174   0.12930   0.00000  Uiso   1.00
C4     C     0.28617   0.39846   0.19024   0.00000  Uiso   1.00
C5     C     0.27693   0.10119   0.20378   0.00000  Uiso   1.00
C6     C     0.21465   0.39870   0.14140   0.00000  Uiso   1.00
C7     C     0.22406   0.05214   0.12823   0.00000  Uiso   1.00
C8     C     0.29017   0.44610   0.17819   0.00000  Uiso   1.00
C9     C     0.27603   0.05160   0.20433   0.00000  Uiso   1.00
C10    C     0.21050   0.44657   0.15245   0.00000  Uiso   1.00
C11    C     0.24990   0.24995   0.07296   0.00000  Uiso   1.00
C12    C     0.25021   0.25005   0.26039   0.00000  Uiso   1.00
C13    C     0.25009   0.02621   0.16609   0.00000  Uiso   1.00
C14    C     0.25025   0.47277   0.16554   0.00000  Uiso   1.00
C15    C     0.25004   0.24992   0.02181   0.00000  Uiso   1.00
C16    C     0.25014   0.25007   0.31156   0.00000  Uiso   1.00
C17    C     0.04157   0.27643   0.15134   0.00000  Uiso   1.00
C18    C     0.45477   0.20349   0.17196   0.00000  Uiso   1.00
C19    C     0.45576   0.28589   0.19479   0.00000  Uiso   1.00
C20    C     0.05673   0.21814   0.21732   0.00000  Uiso   1.00
C21    C     0.08738   0.28358   0.15285   0.00000  Uiso   1.00
C22    C     0.40797   0.20545   0.16237   0.00000  Uiso   1.00
C23    C     0.40981   0.28916   0.17930   0.00000  Uiso   1.00
C24    C     0.10191   0.21692   0.20871   0.00000  Uiso   1.00
C25    C     0.11720   0.25020   0.17650   0.00000  Uiso   1.00
C26    C     0.38513   0.24829   0.16785   0.00000  Uiso   1.00
C27    C     0.02643   0.24594   0.18606   0.00000  Uiso   1.00
C28    C     0.47844   0.24394   0.18783   0.00000  Uiso   1.00
N29    N     0.25000   0.12623   0.16667   0.00000  Uiso   1.00
N30    N     0.25000   0.37376   0.16667   0.00000  Uiso   1.00
O31    O     0.18453   0.28974   0.16667   0.00000  Uiso   1.00
O32    O     0.31547   0.21026   0.16666   0.00000  Uiso   1.00
O33    O     0.31547   0.28974   0.16666   0.00000  Uiso   1.00
O34    O     0.18453   0.21026   0.16667   0.00000  Uiso   1.00
O35    O     0.25000   0.28973   0.09511   0.00000  Uiso   1.00
O36    O     0.25000   0.21027   0.23822   0.00000  Uiso   1.00
O37    O     0.25000   0.28973   0.23822   0.00000  Uiso   1.00
O38    O     0.25000   0.21027   0.09511   0.00000  Uiso   1.00
Zn39   Zn    0.25000   0.30307   0.16667   0.00000  Uiso   1.00
Zn40   Zn    0.25000   0.19693   0.16667   0.00000  Uiso   1.00
S41    S     0.19002   0.12833   0.07550   0.00000  Uiso   1.00
O42    O     0.21971   0.13039   0.03459   0.00000  Uiso   1.00
O43    O     0.15036   0.09833   0.05749   0.00000  Uiso   1.00
O44    O     0.16823   0.18142   0.08178   0.00000  Uiso   1.00
H45    H     0.15567   0.19096   0.04728   0.00000  Uiso   1.00
S46    S     0.31833   0.37975   0.24769   0.00000  Uiso   1.00
O47    O     0.36193   0.40574   0.25595   0.00000  Uiso   1.00
O48    O     0.29132   0.39222   0.28937   0.00000  Uiso   1.00
O49    O     0.33086   0.32298   0.25292   0.00000  Uiso   1.00
H50    H     0.34757   0.31923   0.28707   0.00000  Uiso   1.00
S51    S     0.30982   0.12736   0.25768   0.00000  Uiso   1.00
O52    O     0.27977   0.13136   0.29813   0.00000  Uiso   1.00
O53    O     0.34904   0.09639   0.27661   0.00000  Uiso   1.00
O54    O     0.33222   0.17952   0.25072   0.00000  Uiso   1.00
H55    H     0.34490   0.18929   0.28509   0.00000  Uiso   1.00
S56    S     0.18721   0.38028   0.08176   0.00000  Uiso   1.00
O57    O     0.14677   0.41061   0.06605   0.00000  Uiso   1.00
O58    O     0.22005   0.38630   0.04444   0.00000  Uiso   1.00
O59    O     0.17025   0.32495   0.07871   0.00000  Uiso   1.00
H60    H     0.15814   0.31976   0.04299   0.00000  Uiso   1.00
O61    O     0.01126   0.30156   0.11821   0.00000  Uiso   1.00
C62    C     0.00773   0.28067   0.07003   0.00000  Uiso   1.00
H63    H     0.01863   0.24346   0.07052   0.00000  Uiso   1.00
H64    H     0.02878   0.30020   0.04622   0.00000  Uiso   1.00
C65    C     0.45889   0.28263   0.04601   0.00000  Uiso   1.00
H66    H     0.43708   0.26570   0.07096   0.00000  Uiso   1.00
H67    H     0.45515   0.26392   0.00944   0.00000  Uiso   1.00
H68    H     0.44787   0.31933   0.03954   0.00000  Uiso   1.00
O69    O     0.47640   0.16081   0.17004   0.00000  Uiso   1.00
C70    C     0.49496   0.15586   0.12438   0.00000  Uiso   1.00
H71    H     0.03052   0.16726   0.12976   0.00000  Uiso   1.00
H72    H     0.47661   0.17606   0.09261   0.00000  Uiso   1.00
C73    C     0.49438   0.10472   0.10965   0.00000  Uiso   1.00
H74    H     0.45920   0.09211   0.10349   0.00000  Uiso   1.00
H75    H     0.00977   0.09989   0.07448   0.00000  Uiso   1.00
H76    H     0.01386   0.08389   0.13997   0.00000  Uiso   1.00
O77    O     0.47952   0.32571   0.20966   0.00000  Uiso   1.00
C78    C     0.47746   0.33307   0.26132   0.00000  Uiso   1.00
H79    H     0.49679   0.30542   0.28373   0.00000  Uiso   1.00
H80    H     0.44208   0.33378   0.27007   0.00000  Uiso   1.00
C81    C     0.49853   0.37960   0.27688   0.00000  Uiso   1.00
H82    H     0.47994   0.40805   0.25500   0.00000  Uiso   1.00
H83    H     0.49708   0.38565   0.31759   0.00000  Uiso   1.00
H84    H     0.03423   0.37974   0.26994   0.00000  Uiso   1.00
O85    O     0.04130   0.18854   0.25176   0.00000  Uiso   1.00
C86    C     0.05437   0.20541   0.30097   0.00000  Uiso   1.00
H87    H     0.03208   0.23482   0.30886   0.00000  Uiso   1.00
H88    H     0.08993   0.21728   0.30722   0.00000  Uiso   1.00
C89    C     0.04963   0.16668   0.00496   0.00000  Uiso   1.00
H90    H     0.06992   0.13592   0.32943   0.00000  Uiso   1.00
H91    H     0.06191   0.17855   0.04370   0.00000  Uiso   1.00
H92    H     0.01377   0.15664   0.00299   0.00000  Uiso   1.00
O93    O     0.10307   0.32342   0.13255   0.00000  Uiso   1.00
C94    C     0.09208   0.36293   0.16077   0.00000  Uiso   1.00
H95    H     0.05522   0.36703   0.16117   0.00000  Uiso   1.00
H96    H     0.10270   0.39432   0.14181   0.00000  Uiso   1.00
C97    C     0.11622   0.36284   0.21485   0.00000  Uiso   1.00
H98    H     0.10666   0.39463   0.23462   0.00000  Uiso   1.00
H99    H     0.10614   0.33259   0.23626   0.00000  Uiso   1.00
H100   H     0.15323   0.36204   0.21476   0.00000  Uiso   1.00
O101   O     0.38512   0.16455   0.15006   0.00000  Uiso   1.00
C102   C     0.37225   0.16290   0.09745   0.00000  Uiso   1.00
H103   H     0.40212   0.16239   0.07693   0.00000  Uiso   1.00
H104   H     0.35046   0.19307   0.08392   0.00000  Uiso   1.00
C105   C     0.34604   0.11864   0.08433   0.00000  Uiso   1.00
H106   H     0.31465   0.11890   0.10216   0.00000  Uiso   1.00
H107   H     0.33728   0.11595   0.04305   0.00000  Uiso   1.00
H108   H     0.36679   0.08793   0.09766   0.00000  Uiso   1.00
O109   O     0.38893   0.33237   0.17824   0.00000  Uiso   1.00
C110   C     0.39802   0.35736   0.13530   0.00000  Uiso   1.00
H111   H     0.43151   0.34943   0.12334   0.00000  Uiso   1.00
H112   H     0.39860   0.39471   0.14517   0.00000  Uiso   1.00
C113   C     0.36120   0.34978   0.09118   0.00000  Uiso   1.00
H114   H     0.32793   0.36017   0.10186   0.00000  Uiso   1.00
H115   H     0.36804   0.37122   0.05870   0.00000  Uiso   1.00
H116   H     0.36029   0.31267   0.07962   0.00000  Uiso   1.00
O117   O     0.13245   0.18836   0.23732   0.00000  Uiso   1.00
C118   C     0.12752   0.14237   0.21925   0.00000  Uiso   1.00
H119   H     0.13347   0.13998   0.17914   0.00000  Uiso   1.00
H120   H     0.09357   0.12851   0.22285   0.00000  Uiso   1.00
C121   C     0.16204   0.11216   0.25054   0.00000  Uiso   1.00
H122   H     0.15524   0.11236   0.29022   0.00000  Uiso   1.00
H123   H     0.15997   0.07621   0.23614   0.00000  Uiso   1.00
H124   H     0.19633   0.12548   0.24860   0.00000  Uiso   1.00
O125   O     0.19611   0.02920   0.09127   0.00000  Uiso   1.00
C126   C     0.22054   0.01306   0.05311   0.00000  Uiso   1.00
H127   H     0.23968   0.48111   0.06570   0.00000  Uiso   1.00
H128   H     0.24430   0.03966   0.04245   0.00000  Uiso   1.00
C129   C     0.18730   0.00097   0.00704   0.00000  Uiso   1.00
H130   H     0.17715   0.03284   0.31857   0.00000  Uiso   1.00
H131   H     0.20261   0.47580   0.31605   0.00000  Uiso   1.00
H132   H     0.15663   0.48507   0.01838   0.00000  Uiso   1.00
O133   O     0.33221   0.46634   0.18486   0.00000  Uiso   1.00
C134   C     0.34387   0.47992   0.13766   0.00000  Uiso   1.00
H135   H     0.32088   0.00749   0.11999   0.00000  Uiso   1.00
H136   H     0.34304   0.44980   0.11139   0.00000  Uiso   1.00
C137   C     0.39123   0.49952   0.14508   0.00000  Uiso   1.00
H138   H     0.41533   0.47375   0.16426   0.00000  Uiso   1.00
H139   H     0.40177   0.00818   0.10803   0.00000  Uiso   1.00
H140   H     0.39203   0.03151   0.16852   0.00000  Uiso   1.00
O141   O     0.30429   0.02810   0.24081   0.00000  Uiso   1.00
C142   C     0.28030   0.01270   0.27929   0.00000  Uiso   1.00
H143   H     0.25995   0.48194   0.26632   0.00000  Uiso   1.00
H144   H     0.25781   0.04044   0.29133   0.00000  Uiso   1.00
C145   C     0.31409   0.49839   0.32421   0.00000  Uiso   1.00
H146   H     0.32783   0.02966   0.01161   0.00000  Uiso   1.00
H147   H     0.29787   0.47607   0.01673   0.00000  Uiso   1.00
H148   H     0.34234   0.47831   0.31147   0.00000  Uiso   1.00
O149   O     0.16822   0.46701   0.14656   0.00000  Uiso   1.00
C150   C     0.15713   0.47938   0.19450   0.00000  Uiso   1.00
H151   H     0.18046   0.00583   0.21277   0.00000  Uiso   1.00
H152   H     0.15892   0.44876   0.21979   0.00000  Uiso   1.00
C153   C     0.10962   0.49948   0.18902   0.00000  Uiso   1.00
H154   H     0.10754   0.03101   0.16497   0.00000  Uiso   1.00
H155   H     0.10060   0.00914   0.22662   0.00000  Uiso   1.00
H156   H     0.08524   0.47346   0.17163   0.00000  Uiso   1.00
C157   C     0.66422   0.25022   0.16885   0.00000  Uiso   1.00
C158   C     0.83621   0.24965   0.16579   0.00000  Uiso   1.00
C159   C     0.72306   0.10174   0.12930   0.00000  Uiso   1.00
C160   C     0.78617   0.39846   0.19024   0.00000  Uiso   1.00
C161   C     0.77693   0.10119   0.20378   0.00000  Uiso   1.00
C162   C     0.71465   0.39870   0.14140   0.00000  Uiso   1.00
C163   C     0.72406   0.05214   0.12823   0.00000  Uiso   1.00
C164   C     0.79017   0.44610   0.17819   0.00000  Uiso   1.00
C165   C     0.77603   0.05160   0.20433   0.00000  Uiso   1.00
C166   C     0.71050   0.44657   0.15245   0.00000  Uiso   1.00
C167   C     0.74990   0.24995   0.07296   0.00000  Uiso   1.00
C168   C     0.75021   0.25005   0.26039   0.00000  Uiso   1.00
C169   C     0.75009   0.02621   0.16609   0.00000  Uiso   1.00
C170   C     0.75025   0.47277   0.16554   0.00000  Uiso   1.00
C171   C     0.75004   0.24992   0.02181   0.00000  Uiso   1.00
C172   C     0.75014   0.25007   0.31156   0.00000  Uiso   1.00
C173   C     0.54157   0.27643   0.15134   0.00000  Uiso   1.00
C174   C     0.95477   0.20349   0.17196   0.00000  Uiso   1.00
C175   C     0.95576   0.28589   0.19479   0.00000  Uiso   1.00
C176   C     0.55673   0.21814   0.21732   0.00000  Uiso   1.00
C177   C     0.58738   0.28358   0.15285   0.00000  Uiso   1.00
C178   C     0.90797   0.20545   0.16237   0.00000  Uiso   1.00
C179   C     0.90981   0.28916   0.17930   0.00000  Uiso   1.00
C180   C     0.60191   0.21692   0.20871   0.00000  Uiso   1.00
C181   C     0.61720   0.25020   0.17650   0.00000  Uiso   1.00
C182   C     0.88513   0.24829   0.16785   0.00000  Uiso   1.00
C183   C     0.52643   0.24594   0.18606   0.00000  Uiso   1.00
C184   C     0.97844   0.24394   0.18783   0.00000  Uiso   1.00
N185   N     0.75000   0.12623   0.16667   0.00000  Uiso   1.00
N186   N     0.75000   0.37376   0.16667   0.00000  Uiso   1.00
O187   O     0.68453   0.28974   0.16667   0.00000  Uiso   1.00
O188   O     0.81547   0.21026   0.16666   0.00000  Uiso   1.00
O189   O     0.81547   0.28974   0.16666   0.00000  Uiso   1.00
O190   O     0.68453   0.21026   0.16667   0.00000  Uiso   1.00
O191   O     0.75000   0.28973   0.09511   0.00000  Uiso   1.00
O192   O     0.75000   0.21027   0.23822   0.00000  Uiso   1.00
O193   O     0.75000   0.28973   0.23822   0.00000  Uiso   1.00
O194   O     0.75000   0.21027   0.09511   0.00000  Uiso   1.00
Zn195  Zn    0.75000   0.30307   0.16667   0.00000  Uiso   1.00
Zn196  Zn    0.75000   0.19693   0.16667   0.00000  Uiso   1.00
S197   S     0.69002   0.12833   0.07550   0.00000  Uiso   1.00
O198   O     0.71971   0.13039   0.03459   0.00000  Uiso   1.00
O199   O     0.65036   0.09833   0.05749   0.00000  Uiso   1.00
O200   O     0.66823   0.18142   0.08178   0.00000  Uiso   1.00
H201   H     0.65567   0.19096   0.04728   0.00000  Uiso   1.00
S202   S     0.81833   0.37975   0.24769   0.00000  Uiso   1.00
O203   O     0.86193   0.40574   0.25595   0.00000  Uiso   1.00
O204   O     0.79132   0.39222   0.28937   0.00000  Uiso   1.00
O205   O     0.83086   0.32298   0.25292   0.00000  Uiso   1.00
H206   H     0.84757   0.31923   0.28707   0.00000  Uiso   1.00
S207   S     0.80982   0.12736   0.25768   0.00000  Uiso   1.00
O208   O     0.77977   0.13136   0.29813   0.00000  Uiso   1.00
O209   O     0.84904   0.09639   0.27661   0.00000  Uiso   1.00
O210   O     0.83222   0.17952   0.25072   0.00000  Uiso   1.00
H211   H     0.84490   0.18929   0.28509   0.00000  Uiso   1.00
S212   S     0.68721   0.38028   0.08176   0.00000  Uiso   1.00
O213   O     0.64677   0.41061   0.06605   0.00000  Uiso   1.00
O214   O     0.72005   0.38630   0.04444   0.00000  Uiso   1.00
O215   O     0.67025   0.32495   0.07871   0.00000  Uiso   1.00
H216   H     0.65814   0.31976   0.04299   0.00000  Uiso   1.00
O217   O     0.51126   0.30156   0.11821   0.00000  Uiso   1.00
C218   C     0.50773   0.28067   0.07003   0.00000  Uiso   1.00
H219   H     0.51863   0.24346   0.07052   0.00000  Uiso   1.00
H220   H     0.52878   0.30020   0.04622   0.00000  Uiso   1.00
C221   C     0.95889   0.28263   0.04601   0.00000  Uiso   1.00
H222   H     0.93708   0.26570   0.07096   0.00000  Uiso   1.00
H223   H     0.95515   0.26392   0.00944   0.00000  Uiso   1.00
H224   H     0.94787   0.31933   0.03954   0.00000  Uiso   1.00
O225   O     0.97640   0.16081   0.17004   0.00000  Uiso   1.00
C226   C     0.99496   0.15586   0.12438   0.00000  Uiso   1.00
H227   H     0.53052   0.16726   0.12976   0.00000  Uiso   1.00
H228   H     0.97661   0.17606   0.09261   0.00000  Uiso   1.00
C229   C     0.99438   0.10472   0.10965   0.00000  Uiso   1.00
H230   H     0.95920   0.09211   0.10349   0.00000  Uiso   1.00
H231   H     0.50977   0.09989   0.07448   0.00000  Uiso   1.00
H232   H     0.51386   0.08389   0.13997   0.00000  Uiso   1.00
O233   O     0.97952   0.32571   0.20966   0.00000  Uiso   1.00
C234   C     0.97746   0.33307   0.26132   0.00000  Uiso   1.00
H235   H     0.99679   0.30542   0.28373   0.00000  Uiso   1.00
H236   H     0.94208   0.33378   0.27007   0.00000  Uiso   1.00
C237   C     0.99853   0.37960   0.27688   0.00000  Uiso   1.00
H238   H     0.97994   0.40805   0.25500   0.00000  Uiso   1.00
H239   H     0.99708   0.38565   0.31759   0.00000  Uiso   1.00
H240   H     0.53423   0.37974   0.26994   0.00000  Uiso   1.00
O241   O     0.54130   0.18854   0.25176   0.00000  Uiso   1.00
C242   C     0.55437   0.20541   0.30097   0.00000  Uiso   1.00
H243   H     0.53208   0.23482   0.30886   0.00000  Uiso   1.00
H244   H     0.58993   0.21728   0.30722   0.00000  Uiso   1.00
C245   C     0.54963   0.16668   0.00496   0.00000  Uiso   1.00
H246   H     0.56992   0.13592   0.32943   0.00000  Uiso   1.00
H247   H     0.56191   0.17855   0.04370   0.00000  Uiso   1.00
H248   H     0.51377   0.15664   0.00299   0.00000  Uiso   1.00
O249   O     0.60307   0.32342   0.13255   0.00000  Uiso   1.00
C250   C     0.59208   0.36293   0.16077   0.00000  Uiso   1.00
H251   H     0.55522   0.36703   0.16117   0.00000  Uiso   1.00
H252   H     0.60270   0.39432   0.14181   0.00000  Uiso   1.00
C253   C     0.61622   0.36284   0.21485   0.00000  Uiso   1.00
H254   H     0.60666   0.39463   0.23462   0.00000  Uiso   1.00
H255   H     0.60614   0.33259   0.23626   0.00000  Uiso   1.00
H256   H     0.65323   0.36204   0.21476   0.00000  Uiso   1.00
O257   O     0.88512   0.16455   0.15006   0.00000  Uiso   1.00
C258   C     0.87225   0.16290   0.09745   0.00000  Uiso   1.00
H259   H     0.90212   0.16239   0.07693   0.00000  Uiso   1.00
H260   H     0.85046   0.19307   0.08392   0.00000  Uiso   1.00
C261   C     0.84604   0.11864   0.08433   0.00000  Uiso   1.00
H262   H     0.81465   0.11890   0.10216   0.00000  Uiso   1.00
H263   H     0.83728   0.11595   0.04305   0.00000  Uiso   1.00
H264   H     0.86679   0.08793   0.09766   0.00000  Uiso   1.00
O265   O     0.88893   0.33237   0.17824   0.00000  Uiso   1.00
C266   C     0.89802   0.35736   0.13530   0.00000  Uiso   1.00
H267   H     0.93151   0.34943   0.12334   0.00000  Uiso   1.00
H268   H     0.89860   0.39471   0.14517   0.00000  Uiso   1.00
C269   C     0.86120   0.34978   0.09118   0.00000  Uiso   1.00
H270   H     0.82793   0.36017   0.10186   0.00000  Uiso   1.00
H271   H     0.86804   0.37122   0.05870   0.00000  Uiso   1.00
H272   H     0.86029   0.31267   0.07962   0.00000  Uiso   1.00
O273   O     0.63245   0.18836   0.23732   0.00000  Uiso   1.00
C274   C     0.62752   0.14237   0.21925   0.00000  Uiso   1.00
H275   H     0.63347   0.13998   0.17914   0.00000  Uiso   1.00
H276   H     0.59357   0.12851   0.22285   0.00000  Uiso   1.00
C277   C     0.66204   0.11216   0.25054   0.00000  Uiso   1.00
H278   H     0.65524   0.11236   0.29022   0.00000  Uiso   1.00
H279   H     0.65997   0.07621   0.23614   0.00000  Uiso   1.00
H280   H     0.69633   0.12548   0.24860   0.00000  Uiso   1.00
O281   O     0.69611   0.02920   0.09127   0.00000  Uiso   1.00
C282   C     0.72054   0.01306   0.05311   0.00000  Uiso   1.00
H283   H     0.73968   0.48111   0.06570   0.00000  Uiso   1.00
H284   H     0.74430   0.03966   0.04245   0.00000  Uiso   1.00
C285   C     0.68730   0.00097   0.00704   0.00000  Uiso   1.00
H286   H     0.67715   0.03284   0.31857   0.00000  Uiso   1.00
H287   H     0.70261   0.47580   0.31605   0.00000  Uiso   1.00
H288   H     0.65663   0.48507   0.01838   0.00000  Uiso   1.00
O289   O     0.83221   0.46634   0.18486   0.00000  Uiso   1.00
C290   C     0.84387   0.47992   0.13766   0.00000  Uiso   1.00
H291   H     0.82088   0.00749   0.11999   0.00000  Uiso   1.00
H292   H     0.84304   0.44980   0.11139   0.00000  Uiso   1.00
C293   C     0.89123   0.49952   0.14508   0.00000  Uiso   1.00
H294   H     0.91533   0.47375   0.16426   0.00000  Uiso   1.00
H295   H     0.90177   0.00818   0.10803   0.00000  Uiso   1.00
H296   H     0.89203   0.03151   0.16852   0.00000  Uiso   1.00
O297   O     0.80429   0.02810   0.24081   0.00000  Uiso   1.00
C298   C     0.78030   0.01270   0.27929   0.00000  Uiso   1.00
H299   H     0.75995   0.48194   0.26632   0.00000  Uiso   1.00
H300   H     0.75781   0.04044   0.29133   0.00000  Uiso   1.00
C301   C     0.81409   0.49839   0.32421   0.00000  Uiso   1.00
H302   H     0.82783   0.02966   0.01161   0.00000  Uiso   1.00
H303   H     0.79787   0.47607   0.01673   0.00000  Uiso   1.00
H304   H     0.84234   0.47831   0.31147   0.00000  Uiso   1.00
O305   O     0.66822   0.46701   0.14656   0.00000  Uiso   1.00
C306   C     0.65713   0.47938   0.19450   0.00000  Uiso   1.00
H307   H     0.68046   0.00583   0.21277   0.00000  Uiso   1.00
H308   H     0.65892   0.44876   0.21979   0.00000  Uiso   1.00
C309   C     0.60962   0.49948   0.18902   0.00000  Uiso   1.00
H310   H     0.60754   0.03101   0.16497   0.00000  Uiso   1.00
H311   H     0.60060   0.00914   0.22662   0.00000  Uiso   1.00
H312   H     0.58524   0.47346   0.17163   0.00000  Uiso   1.00
C313   C     0.16422   0.75022   0.16885   0.00000  Uiso   1.00
C314   C     0.33621   0.74965   0.16579   0.00000  Uiso   1.00
C315   C     0.22306   0.60174   0.12930   0.00000  Uiso   1.00
C316   C     0.28617   0.89846   0.19024   0.00000  Uiso   1.00
C317   C     0.27693   0.60119   0.20378   0.00000  Uiso   1.00
C318   C     0.21465   0.89870   0.14140   0.00000  Uiso   1.00
C319   C     0.22406   0.55214   0.12823   0.00000  Uiso   1.00
C320   C     0.29017   0.94610   0.17819   0.00000  Uiso   1.00
C321   C     0.27603   0.55160   0.20433   0.00000  Uiso   1.00
C322   C     0.21050   0.94657   0.15245   0.00000  Uiso   1.00
C323   C     0.24990   0.74995   0.07296   0.00000  Uiso   1.00
C324   C     0.25021   0.75005   0.26039   0.00000  Uiso   1.00
C325   C     0.25009   0.52621   0.16609   0.00000  Uiso   1.00
C326   C     0.25025   0.97277   0.16554   0.00000  Uiso   1.00
C327   C     0.25004   0.74992   0.02181   0.00000  Uiso   1.00
C328   C     0.25014   0.75007   0.31156   0.00000  Uiso   1.00
C329   C     0.04157   0.77643   0.15134   0.00000  Uiso   1.00
C330   C     0.45477   0.70349   0.17196   0.00000  Uiso   1.00
C331   C     0.45576   0.78589   0.19479   0.00000  Uiso   1.00
C332   C     0.05673   0.71814   0.21732   0.00000  Uiso   1.00
C333   C     0.08738   0.78358   0.15285   0.00000  Uiso   1.00
C334   C     0.40797   0.70545   0.16237   0.00000  Uiso   1.00
C335   C     0.40981   0.78916   0.17930   0.00000  Uiso   1.00
C336   C     0.10191   0.71692   0.20871   0.00000  Uiso   1.00
C337   C     0.11720   0.75020   0.17650   0.00000  Uiso   1.00
C338   C     0.38513   0.74829   0.16785   0.00000  Uiso   1.00
C339   C     0.02643   0.74594   0.18606   0.00000  Uiso   1.00
C340   C     0.47844   0.74394   0.18783   0.00000  Uiso   1.00
N341   N     0.25000   0.62623   0.16667   0.00000  Uiso   1.00
N342   N     0.25000   0.87376   0.16667   0.00000  Uiso   1.00
O343   O     0.18453   0.78974   0.16667   0.00000  Uiso   1.00
O344   O     0.31547   0.71026   0.16666   0.00000  Uiso   1.00
O345   O     0.31547   0.78974   0.16666   0.00000  Uiso   1.00
O346   O     0.18453   0.71026   0.16667   0.00000  Uiso   1.00
O347   O     0.25000   0.78973   0.09511   0.00000  Uiso   1.00
O348   O     0.25000   0.71027   0.23822   0.00000  Uiso   1.00
O349   O     0.25000   0.78973   0.23822   0.00000  Uiso   1.00
O350   O     0.25000   0.71027   0.09511   0.00000  Uiso   1.00
Zn351  Zn    0.25000   0.80307   0.16667   0.00000  Uiso   1.00
Zn352  Zn    0.25000   0.69693   0.16667   0.00000  Uiso   1.00
S353   S     0.19002   0.62833   0.07550   0.00000  Uiso   1.00
O354   O     0.21971   0.63039   0.03459   0.00000  Uiso   1.00
O355   O     0.15036   0.59833   0.05749   0.00000  Uiso   1.00
O356   O     0.16823   0.68142   0.08178   0.00000  Uiso   1.00
H357   H     0.15567   0.69096   0.04728   0.00000  Uiso   1.00
S358   S     0.31833   0.87975   0.24769   0.00000  Uiso   1.00
O359   O     0.36193   0.90574   0.25595   0.00000  Uiso   1.00
O360   O     0.29132   0.89222   0.28937   0.00000  Uiso   1.00
O361   O     0.33086   0.82298   0.25292   0.00000  Uiso   1.00
H362   H     0.34757   0.81923   0.28707   0.00000  Uiso   1.00
S363   S     0.30982   0.62736   0.25768   0.00000  Uiso   1.00
O364   O     0.27977   0.63136   0.29813   0.00000  Uiso   1.00
O365   O     0.34904   0.59639   0.27661   0.00000  Uiso   1.00
O366   O     0.33222   0.67952   0.25072   0.00000  Uiso   1.00
H367   H     0.34490   0.68929   0.28509   0.00000  Uiso   1.00
S368   S     0.18721   0.88028   0.08176   0.00000  Uiso   1.00
O369   O     0.14677   0.91061   0.06605   0.00000  Uiso   1.00
O370   O     0.22005   0.88630   0.04444   0.00000  Uiso   1.00
O371   O     0.17025   0.82495   0.07871   0.00000  Uiso   1.00
H372   H     0.15814   0.81976   0.04299   0.00000  Uiso   1.00
O373   O     0.01126   0.80156   0.11821   0.00000  Uiso   1.00
C374   C     0.00773   0.78067   0.07003   0.00000  Uiso   1.00
H375   H     0.01863   0.74346   0.07052   0.00000  Uiso   1.00
H376   H     0.02878   0.80020   0.04622   0.00000  Uiso   1.00
C377   C     0.45889   0.78263   0.04601   0.00000  Uiso   1.00
H378   H     0.43708   0.76570   0.07096   0.00000  Uiso   1.00
H379   H     0.45515   0.76392   0.00944   0.00000  Uiso   1.00
H380   H     0.44787   0.81933   0.03954   0.00000  Uiso   1.00
O381   O     0.47640   0.66081   0.17004   0.00000  Uiso   1.00
C382   C     0.49496   0.65586   0.12438   0.00000  Uiso   1.00
H383   H     0.03052   0.66726   0.12976   0.00000  Uiso   1.00
H384   H     0.47661   0.67606   0.09261   0.00000  Uiso   1.00
C385   C     0.49438   0.60472   0.10965   0.00000  Uiso   1.00
H386   H     0.45920   0.59211   0.10349   0.00000  Uiso   1.00
H387   H     0.00977   0.59989   0.07448   0.00000  Uiso   1.00
H388   H     0.01386   0.58389   0.13997   0.00000  Uiso   1.00
O389   O     0.47952   0.82571   0.20966   0.00000  Uiso   1.00
C390   C     0.47746   0.83307   0.26132   0.00000  Uiso   1.00
H391   H     0.49679   0.80542   0.28373   0.00000  Uiso   1.00
H392   H     0.44208   0.83378   0.27007   0.00000  Uiso   1.00
C393   C     0.49853   0.87960   0.27688   0.00000  Uiso   1.00
H394   H     0.47994   0.90805   0.25500   0.00000  Uiso   1.00
H395   H     0.49708   0.88565   0.31759   0.00000  Uiso   1.00
H396   H     0.03423   0.87974   0.26994   0.00000  Uiso   1.00
O397   O     0.04130   0.68854   0.25176   0.00000  Uiso   1.00
C398   C     0.05437   0.70541   0.30097   0.00000  Uiso   1.00
H399   H     0.03208   0.73482   0.30886   0.00000  Uiso   1.00
H400   H     0.08993   0.71728   0.30722   0.00000  Uiso   1.00
C401   C     0.04963   0.66668   0.00496   0.00000  Uiso   1.00
H402   H     0.06992   0.63592   0.32943   0.00000  Uiso   1.00
H403   H     0.06191   0.67855   0.04370   0.00000  Uiso   1.00
H404   H     0.01377   0.65664   0.00299   0.00000  Uiso   1.00
O405   O     0.10307   0.82342   0.13255   0.00000  Uiso   1.00
C406   C     0.09208   0.86293   0.16077   0.00000  Uiso   1.00
H407   H     0.05522   0.86703   0.16117   0.00000  Uiso   1.00
H408   H     0.10270   0.89432   0.14181   0.00000  Uiso   1.00
C409   C     0.11622   0.86284   0.21485   0.00000  Uiso   1.00
H410   H     0.10666   0.89463   0.23462   0.00000  Uiso   1.00
H411   H     0.10614   0.83259   0.23626   0.00000  Uiso   1.00
H412   H     0.15323   0.86204   0.21476   0.00000  Uiso   1.00
O413   O     0.38512   0.66455   0.15006   0.00000  Uiso   1.00
C414   C     0.37225   0.66290   0.09745   0.00000  Uiso   1.00
H415   H     0.40212   0.66239   0.07693   0.00000  Uiso   1.00
H416   H     0.35046   0.69307   0.08392   0.00000  Uiso   1.00
C417   C     0.34604   0.61864   0.08433   0.00000  Uiso   1.00
H418   H     0.31465   0.61890   0.10216   0.00000  Uiso   1.00
H419   H     0.33728   0.61595   0.04305   0.00000  Uiso   1.00
H420   H     0.36679   0.58793   0.09766   0.00000  Uiso   1.00
O421   O     0.38893   0.83237   0.17824   0.00000  Uiso   1.00
C422   C     0.39802   0.85736   0.13530   0.00000  Uiso   1.00
H423   H     0.43151   0.84943   0.12334   0.00000  Uiso   1.00
H424   H     0.39860   0.89471   0.14517   0.00000  Uiso   1.00
C425   C     0.36120   0.84978   0.09118   0.00000  Uiso   1.00
H426   H     0.32793   0.86017   0.10186   0.00000  Uiso   1.00
H427   H     0.36804   0.87122   0.05870   0.00000  Uiso   1.00
H428   H     0.36029   0.81267   0.07962   0.00000  Uiso   1.00
O429   O     0.13245   0.68836   0.23732   0.00000  Uiso   1.00
C430   C     0.12752   0.64237   0.21925   0.00000  Uiso   1.00
H431   H     0.13347   0.63998   0.17914   0.00000  Uiso   1.00
H432   H     0.09357   0.62851   0.22285   0.00000  Uiso   1.00
C433   C     0.16204   0.61216   0.25054   0.00000  Uiso   1.00
H434   H     0.15524   0.61236   0.29022   0.00000  Uiso   1.00
H435   H     0.15997   0.57621   0.23614   0.00000  Uiso   1.00
H436   H     0.19633   0.62548   0.24860   0.00000  Uiso   1.00
O437   O     0.19611   0.52920   0.09127   0.00000  Uiso   1.00
C438   C     0.22054   0.51306   0.05311   0.00000  Uiso   1.00
H439   H     0.23968   0.98111   0.06570   0.00000  Uiso   1.00
H440   H     0.24430   0.53966   0.04245   0.00000  Uiso   1.00
C441   C     0.18730   0.50097   0.00704   0.00000  Uiso   1.00
H442   H     0.17715   0.53284   0.31857   0.00000  Uiso   1.00
H443   H     0.20261   0.97580   0.31605   0.00000  Uiso   1.00
H444   H     0.15663   0.98507   0.01838   0.00000  Uiso   1.00
O445   O     0.33221   0.96634   0.18486   0.00000  Uiso   1.00
C446   C     0.34387   0.97992   0.13766   0.00000  Uiso   1.00
H447   H     0.32088   0.50749   0.11999   0.00000  Uiso   1.00
H448   H     0.34304   0.94980   0.11139   0.00000  Uiso   1.00
C449   C     0.39123   0.99952   0.14508   0.00000  Uiso   1.00
H450   H     0.41533   0.97375   0.16426   0.00000  Uiso   1.00
H451   H     0.40177   0.50818   0.10803   0.00000  Uiso   1.00
H452   H     0.39203   0.53151   0.16852   0.00000  Uiso   1.00
O453   O     0.30429   0.52810   0.24081   0.00000  Uiso   1.00
C454   C     0.28030   0.51270   0.27929   0.00000  Uiso   1.00
H455   H     0.25995   0.98194   0.26632   0.00000  Uiso   1.00
H456   H     0.25781   0.54044   0.29133   0.00000  Uiso   1.00
C457   C     0.31409   0.99839   0.32421   0.00000  Uiso   1.00
H458   H     0.32783   0.52966   0.01161   0.00000  Uiso   1.00
H459   H     0.29787   0.97607   0.01673   0.00000  Uiso   1.00
H460   H     0.34234   0.97831   0.31147   0.00000  Uiso   1.00
O461   O     0.16822   0.96701   0.14656   0.00000  Uiso   1.00
C462   C     0.15713   0.97938   0.19450   0.00000  Uiso   1.00
H463   H     0.18046   0.50583   0.21277   0.00000  Uiso   1.00
H464   H     0.15892   0.94876   0.21979   0.00000  Uiso   1.00
C465   C     0.10962   0.99948   0.18902   0.00000  Uiso   1.00
H466   H     0.10754   0.53101   0.16497   0.00000  Uiso   1.00
H467   H     0.10060   0.50914   0.22662   0.00000  Uiso   1.00
H468   H     0.08524   0.97346   0.17163   0.00000  Uiso   1.00
C469   C     0.66422   0.75022   0.16885   0.00000  Uiso   1.00
C470   C     0.83621   0.74965   0.16579   0.00000  Uiso   1.00
C471   C     0.72306   0.60174   0.12930   0.00000  Uiso   1.00
C472   C     0.78617   0.89846   0.19024   0.00000  Uiso   1.00
C473   C     0.77693   0.60119   0.20378   0.00000  Uiso   1.00
C474   C     0.71465   0.89870   0.14140   0.00000  Uiso   1.00
C475   C     0.72406   0.55214   0.12823   0.00000  Uiso   1.00
C476   C     0.79017   0.94610   0.17819   0.00000  Uiso   1.00
C477   C     0.77603   0.55160   0.20433   0.00000  Uiso   1.00
C478   C     0.71050   0.94657   0.15245   0.00000  Uiso   1.00
C479   C     0.74990   0.74995   0.07296   0.00000  Uiso   1.00
C480   C     0.75021   0.75005   0.26039   0.00000  Uiso   1.00
C481   C     0.75009   0.52621   0.16609   0.00000  Uiso   1.00
C482   C     0.75025   0.97277   0.16554   0.00000  Uiso   1.00
C483   C     0.75004   0.74992   0.02181   0.00000  Uiso   1.00
C484   C     0.75014   0.75007   0.31156   0.00000  Uiso   1.00
C485   C     0.54157   0.77643   0.15134   0.00000  Uiso   1.00
C486   C     0.95477   0.70349   0.17196   0.00000  Uiso   1.00
C487   C     0.95576   0.78589   0.19479   0.00000  Uiso   1.00
C488   C     0.55673   0.71814   0.21732   0.00000  Uiso   1.00
C489   C     0.58738   0.78358   0.15285   0.00000  Uiso   1.00
C490   C     0.90797   0.70545   0.16237   0.00000  Uiso   1.00
C491   C     0.90981   0.78916   0.17930   0.00000  Uiso   1.00
C492   C     0.60191   0.71692   0.20871   0.00000  Uiso   1.00
C493   C     0.61720   0.75020   0.17650   0.00000  Uiso   1.00
C494   C     0.88513   0.74829   0.16785   0.00000  Uiso   1.00
C495   C     0.52643   0.74594   0.18606   0.00000  Uiso   1.00
C496   C     0.97844   0.74394   0.18783   0.00000  Uiso   1.00
N497   N     0.75000   0.62623   0.16667   0.00000  Uiso   1.00
N498   N     0.75000   0.87376   0.16667   0.00000  Uiso   1.00
O499   O     0.68453   0.78974   0.16667   0.00000  Uiso   1.00
O500   O     0.81547   0.71026   0.16666   0.00000  Uiso   1.00
O501   O     0.81547   0.78974   0.16666   0.00000  Uiso   1.00
O502   O     0.68453   0.71026   0.16667   0.00000  Uiso   1.00
O503   O     0.75000   0.78973   0.09511   0.00000  Uiso   1.00
O504   O     0.75000   0.71027   0.23822   0.00000  Uiso   1.00
O505   O     0.75000   0.78973   0.23822   0.00000  Uiso   1.00
O506   O     0.75000   0.71027   0.09511   0.00000  Uiso   1.00
Zn507  Zn    0.75000   0.80307   0.16667   0.00000  Uiso   1.00
Zn508  Zn    0.75000   0.69693   0.16667   0.00000  Uiso   1.00
S509   S     0.69002   0.62833   0.07550   0.00000  Uiso   1.00
O510   O     0.71971   0.63039   0.03459   0.00000  Uiso   1.00
O511   O     0.65036   0.59833   0.05749   0.00000  Uiso   1.00
O512   O     0.66823   0.68142   0.08178   0.00000  Uiso   1.00
H513   H     0.65567   0.69096   0.04728   0.00000  Uiso   1.00
S514   S     0.81833   0.87975   0.24769   0.00000  Uiso   1.00
O515   O     0.86193   0.90574   0.25595   0.00000  Uiso   1.00
O516   O     0.79132   0.89222   0.28937   0.00000  Uiso   1.00
O517   O     0.83086   0.82298   0.25292   0.00000  Uiso   1.00
H518   H     0.84757   0.81923   0.28707   0.00000  Uiso   1.00
S519   S     0.80982   0.62736   0.25768   0.00000  Uiso   1.00
O520   O     0.77977   0.63136   0.29813   0.00000  Uiso   1.00
O521   O     0.84904   0.59639   0.27661   0.00000  Uiso   1.00
O522   O     0.83222   0.67952   0.25072   0.00000  Uiso   1.00
H523   H     0.84490   0.68929   0.28509   0.00000  Uiso   1.00
S524   S     0.68721   0.88028   0.08176   0.00000  Uiso   1.00
O525   O     0.64677   0.91061   0.06605   0.00000  Uiso   1.00
O526   O     0.72005   0.88630   0.04444   0.00000  Uiso   1.00
O527   O     0.67025   0.82495   0.07871   0.00000  Uiso   1.00
H528   H     0.65814   0.81976   0.04299   0.00000  Uiso   1.00
O529   O     0.51126   0.80156   0.11821   0.00000  Uiso   1.00
C530   C     0.50773   0.78067   0.07003   0.00000  Uiso   1.00
H531   H     0.51863   0.74346   0.07052   0.00000  Uiso   1.00
H532   H     0.52878   0.80020   0.04622   0.00000  Uiso   1.00
C533   C     0.95889   0.78263   0.04601   0.00000  Uiso   1.00
H534   H     0.93708   0.76570   0.07096   0.00000  Uiso   1.00
H535   H     0.95515   0.76392   0.00944   0.00000  Uiso   1.00
H536   H     0.94787   0.81933   0.03954   0.00000  Uiso   1.00
O537   O     0.97640   0.66081   0.17004   0.00000  Uiso   1.00
C538   C     0.99496   0.65586   0.12438   0.00000  Uiso   1.00
H539   H     0.53052   0.66726   0.12976   0.00000  Uiso   1.00
H540   H     0.97661   0.67606   0.09261   0.00000  Uiso   1.00
C541   C     0.99438   0.60472   0.10965   0.00000  Uiso   1.00
H542   H     0.95920   0.59211   0.10349   0.00000  Uiso   1.00
H543   H     0.50977   0.59989   0.07448   0.00000  Uiso   1.00
H544   H     0.51386   0.58389   0.13997   0.00000  Uiso   1.00
O545   O     0.97952   0.82571   0.20966   0.00000  Uiso   1.00
C546   C     0.97746   0.83307   0.26132   0.00000  Uiso   1.00
H547   H     0.99679   0.80542   0.28373   0.00000  Uiso   1.00
H548   H     0.94208   0.83378   0.27007   0.00000  Uiso   1.00
C549   C     0.99853   0.87960   0.27688   0.00000  Uiso   1.00
H550   H     0.97994   0.90805   0.25500   0.00000  Uiso   1.00
H551   H     0.99708   0.88565   0.31759   0.00000  Uiso   1.00
H552   H     0.53423   0.87974   0.26994   0.00000  Uiso   1.00
O553   O     0.54130   0.68854   0.25176   0.00000  Uiso   1.00
C554   C     0.55437   0.70541   0.30097   0.00000  Uiso   1.00
H555   H     0.53208   0.73482   0.30886   0.00000  Uiso   1.00
H556   H     0.58993   0.71728   0.30722   0.00000  Uiso   1.00
C557   C     0.54963   0.66668   0.00496   0.00000  Uiso   1.00
H558   H     0.56992   0.63592   0.32943   0.00000  Uiso   1.00
H559   H     0.56191   0.67855   0.04370   0.00000  Uiso   1.00
H560   H     0.51377   0.65664   0.00299   0.00000  Uiso   1.00
O561   O     0.60307   0.82342   0.13255   0.00000  Uiso   1.00
C562   C     0.59208   0.86293   0.16077   0.00000  Uiso   1.00
H563   H     0.55522   0.86703   0.16117   0.00000  Uiso   1.00
H564   H     0.60270   0.89432   0.14181   0.00000  Uiso   1.00
C565   C     0.61622   0.86284   0.21485   0.00000  Uiso   1.00
H566   H     0.60666   0.89463   0.23462   0.00000  Uiso   1.00
H567   H     0.60614   0.83259   0.23626   0.00000  Uiso   1.00
H568   H     0.65323   0.86204   0.21476   0.00000  Uiso   1.00
O569   O     0.88512   0.66455   0.15006   0.00000  Uiso   1.00
C570   C     0.87225   0.66290   0.09745   0.00000  Uiso   1.00
H571   H     0.90212   0.66239   0.07693   0.00000  Uiso   1.00
H572   H     0.85046   0.69307   0.08392   0.00000  Uiso   1.00
C573   C     0.84604   0.61864   0.08433   0.00000  Uiso   1.00
H574   H     0.81465   0.61890   0.10216   0.00000  Uiso   1.00
H575   H     0.83728   0.61595   0.04305   0.00000  Uiso   1.00
H576   H     0.86679   0.58793   0.09766   0.00000  Uiso   1.00
O577   O     0.88893   0.83237   0.17824   0.00000  Uiso   1.00
C578   C     0.89802   0.85736   0.13530   0.00000  Uiso   1.00
H579   H     0.93151   0.84943   0.12334   0.00000  Uiso   1.00
H580   H     0.89860   0.89471   0.14517   0.00000  Uiso   1.00
C581   C     0.86120   0.84978   0.09118   0.00000  Uiso   1.00
H582   H     0.82793   0.86017   0.10186   0.00000  Uiso   1.00
H583   H     0.86804   0.87122   0.05870   0.00000  Uiso   1.00
H584   H     0.86029   0.81267   0.07962   0.00000  Uiso   1.00
O585   O     0.63245   0.68836   0.23732   0.00000  Uiso   1.00
C586   C     0.62752   0.64237   0.21925   0.00000  Uiso   1.00
H587   H     0.63347   0.63998   0.17914   0.00000  Uiso   1.00
H588   H     0.59357   0.62851   0.22285   0.00000  Uiso   1.00
C589   C     0.66204   0.61216   0.25054   0.00000  Uiso   1.00
H590   H     0.65524   0.61236   0.29022   0.00000  Uiso   1.00
H591   H     0.65997   0.57621   0.23614   0.00000  Uiso   1.00
H592   H     0.69633   0.62548   0.24860   0.00000  Uiso   1.00
O593   O     0.69611   0.52920   0.09127   0.00000  Uiso   1.00
C594   C     0.72054   0.51306   0.05311   0.00000  Uiso   1.00
H595   H     0.73968   0.98111   0.06570   0.00000  Uiso   1.00
H596   H     0.74430   0.53966   0.04245   0.00000  Uiso   1.00
C597   C     0.68730   0.50097   0.00704   0.00000  Uiso   1.00
H598   H     0.67715   0.53284   0.31857   0.00000  Uiso   1.00
H599   H     0.70261   0.97580   0.31605   0.00000  Uiso   1.00
H600   H     0.65663   0.98507   0.01838   0.00000  Uiso   1.00
O601   O     0.83221   0.96634   0.18486   0.00000  Uiso   1.00
C602   C     0.84387   0.97992   0.13766   0.00000  Uiso   1.00
H603   H     0.82088   0.50749   0.11999   0.00000  Uiso   1.00
H604   H     0.84304   0.94980   0.11139   0.00000  Uiso   1.00
C605   C     0.89123   0.99952   0.14508   0.00000  Uiso   1.00
H606   H     0.91533   0.97375   0.16426   0.00000  Uiso   1.00
H607   H     0.90177   0.50818   0.10803   0.00000  Uiso   1.00
H608   H     0.89203   0.53151   0.16852   0.00000  Uiso   1.00
O609   O     0.80429   0.52810   0.24081   0.00000  Uiso   1.00
C610   C     0.78030   0.51270   0.27929   0.00000  Uiso   1.00
H611   H     0.75995   0.98194   0.26632   0.00000  Uiso   1.00
H612   H     0.75781   0.54044   0.29133   0.00000  Uiso   1.00
C613   C     0.81409   0.99839   0.32421   0.00000  Uiso   1.00
H614   H     0.82783   0.52966   0.01161   0.00000  Uiso   1.00
H615   H     0.79787   0.97607   0.01673   0.00000  Uiso   1.00
H616   H     0.84234   0.97831   0.31147   0.00000  Uiso   1.00
O617   O     0.66822   0.96701   0.14656   0.00000  Uiso   1.00
C618   C     0.65713   0.97938   0.19450   0.00000  Uiso   1.00
H619   H     0.68046   0.50583   0.21277   0.00000  Uiso   1.00
H620   H     0.65892   0.94876   0.21979   0.00000  Uiso   1.00
C621   C     0.60962   0.99948   0.18902   0.00000  Uiso   1.00
H622   H     0.60754   0.53101   0.16497   0.00000  Uiso   1.00
H623   H     0.60060   0.50914   0.22662   0.00000  Uiso   1.00
H624   H     0.58524   0.97346   0.17163   0.00000  Uiso   1.00
C625   C     0.16422   0.25022   0.50218   0.00000  Uiso   1.00
C626   C     0.33621   0.24965   0.49912   0.00000  Uiso   1.00
C627   C     0.22306   0.10174   0.46263   0.00000  Uiso   1.00
C628   C     0.28617   0.39846   0.52358   0.00000  Uiso   1.00
C629   C     0.27693   0.10119   0.53712   0.00000  Uiso   1.00
C630   C     0.21465   0.39870   0.47474   0.00000  Uiso   1.00
C631   C     0.22406   0.05214   0.46156   0.00000  Uiso   1.00
C632   C     0.29017   0.44610   0.51152   0.00000  Uiso   1.00
C633   C     0.27603   0.05160   0.53766   0.00000  Uiso   1.00
C634   C     0.21050   0.44657   0.48578   0.00000  Uiso   1.00
C635   C     0.24990   0.24995   0.40629   0.00000  Uiso   1.00
C636   C     0.25021   0.25005   0.59373   0.00000  Uiso   1.00
C637   C     0.25009   0.02621   0.49942   0.00000  Uiso   1.00
C638   C     0.25025   0.47277   0.49887   0.00000  Uiso   1.00
C639   C     0.25004   0.24992   0.35514   0.00000  Uiso   1.00
C640   C     0.25014   0.25007   0.64489   0.00000  Uiso   1.00
C641   C     0.04157   0.27643   0.48467   0.00000  Uiso   1.00
C642   C     0.45477   0.20349   0.50529   0.00000  Uiso   1.00
C643   C     0.45576   0.28589   0.52813   0.00000  Uiso   1.00
C644   C     0.05673   0.21814   0.55065   0.00000  Uiso   1.00
C645   C     0.08738   0.28358   0.48619   0.00000  Uiso   1.00
C646   C     0.40797   0.20545   0.49571   0.00000  Uiso   1.00
C647   C     0.40981   0.28916   0.51263   0.00000  Uiso   1.00
C648   C     0.10191   0.21692   0.54204   0.00000  Uiso   1.00
C649   C     0.11720   0.25020   0.50983   0.00000  Uiso   1.00
C650   C     0.38513   0.24829   0.50119   0.00000  Uiso   1.00
C651   C     0.02643   0.24594   0.51940   0.00000  Uiso   1.00
C652   C     0.47844   0.24394   0.52117   0.00000  Uiso   1.00
N653   N     0.25000   0.12623   0.50000   0.00000  Uiso   1.00
N654   N     0.25000   0.37376   0.50000   0.00000  Uiso   1.00
O655   O     0.18453   0.28974   0.50000   0.00000  Uiso   1.00
O656   O     0.31547   0.21026   0.50000   0.00000  Uiso   1.00
O657   O     0.31547   0.28974   0.50000   0.00000  Uiso   1.00
O658   O     0.18453   0.21026   0.50000   0.00000  Uiso   1.00
O659   O     0.25000   0.28973   0.42845   0.00000  Uiso   1.00
O660   O     0.25000   0.21027   0.57155   0.00000  Uiso   1.00
O661   O     0.25000   0.28973   0.57155   0.00000  Uiso   1.00
O662   O     0.25000   0.21027   0.42845   0.00000  Uiso   1.00
Zn663  Zn    0.25000   0.30307   0.50000   0.00000  Uiso   1.00
Zn664  Zn    0.25000   0.19693   0.50000   0.00000  Uiso   1.00
S665   S     0.19002   0.12833   0.40884   0.00000  Uiso   1.00
O666   O     0.21971   0.13039   0.36793   0.00000  Uiso   1.00
O667   O     0.15036   0.09833   0.39083   0.00000  Uiso   1.00
O668   O     0.16823   0.18142   0.41511   0.00000  Uiso   1.00
H669   H     0.15567   0.19096   0.38062   0.00000  Uiso   1.00
S670   S     0.31833   0.37975   0.58102   0.00000  Uiso   1.00
O671   O     0.36193   0.40574   0.58928   0.00000  Uiso   1.00
O672   O     0.29132   0.39222   0.62270   0.00000  Uiso   1.00
O673   O     0.33086   0.32298   0.58625   0.00000  Uiso   1.00
H674   H     0.34757   0.31923   0.62040   0.00000  Uiso   1.00
S675   S     0.30982   0.12736   0.59101   0.00000  Uiso   1.00
O676   O     0.27977   0.13136   0.63147   0.00000  Uiso   1.00
O677   O     0.34904   0.09639   0.60995   0.00000  Uiso   1.00
O678   O     0.33222   0.17952   0.58406   0.00000  Uiso   1.00
H679   H     0.34490   0.18929   0.61842   0.00000  Uiso   1.00
S680   S     0.18721   0.38028   0.41509   0.00000  Uiso   1.00
O681   O     0.14677   0.41061   0.39939   0.00000  Uiso   1.00
O682   O     0.22005   0.38630   0.37778   0.00000  Uiso   1.00
O683   O     0.17025   0.32495   0.41205   0.00000  Uiso   1.00
H684   H     0.15814   0.31976   0.37632   0.00000  Uiso   1.00
O685   O     0.01126   0.30156   0.45154   0.00000  Uiso   1.00
C686   C     0.00773   0.28067   0.40336   0.00000  Uiso   1.00
H687   H     0.01863   0.24346   0.40385   0.00000  Uiso   1.00
H688   H     0.02878   0.30020   0.37955   0.00000  Uiso   1.00
C689   C     0.45889   0.28263   0.37935   0.00000  Uiso   1.00
H690   H     0.43708   0.26570   0.40429   0.00000  Uiso   1.00
H691   H     0.45515   0.26392   0.34278   0.00000  Uiso   1.00
H692   H     0.44787   0.31933   0.37287   0.00000  Uiso   1.00
O693   O     0.47640   0.16081   0.50337   0.00000  Uiso   1.00
C694   C     0.49496   0.15586   0.45771   0.00000  Uiso   1.00
H695   H     0.03052   0.16726   0.46309   0.00000  Uiso   1.00
H696   H     0.47661   0.17606   0.42594   0.00000  Uiso   1.00
C697   C     0.49438   0.10472   0.44299   0.00000  Uiso   1.00
H698   H     0.45920   0.09211   0.43683   0.00000  Uiso   1.00
H699   H     0.00977   0.09989   0.40781   0.00000  Uiso   1.00
H700   H     0.01386   0.08389   0.47330   0.00000  Uiso   1.00
O701   O     0.47952   0.32571   0.54299   0.00000  Uiso   1.00
C702   C     0.47746   0.33307   0.59466   0.00000  Uiso   1.00
H703   H     0.49679   0.30542   0.61706   0.00000  Uiso   1.00
H704   H     0.44208   0.33378   0.60340   0.00000  Uiso   1.00
C705   C     0.49853   0.37960   0.61022   0.00000  Uiso   1.00
H706   H     0.47994   0.40805   0.58833   0.00000  Uiso   1.00
H707   H     0.49708   0.38565   0.65092   0.00000  Uiso   1.00
H708   H     0.03423   0.37974   0.60328   0.00000  Uiso   1.00
O709   O     0.04130   0.18854   0.58509   0.00000  Uiso   1.00
C710   C     0.05437   0.20541   0.63430   0.00000  Uiso   1.00
H711   H     0.03208   0.23482   0.64220   0.00000  Uiso   1.00
H712   H     0.08993   0.21728   0.64055   0.00000  Uiso   1.00
C713   C     0.04963   0.16668   0.33829   0.00000  Uiso   1.00
H714   H     0.06992   0.13592   0.66276   0.00000  Uiso   1.00
H715   H     0.06191   0.17855   0.37704   0.00000  Uiso   1.00
H716   H     0.01377   0.15664   0.33632   0.00000  Uiso   1.00
O717   O     0.10307   0.32342   0.46589   0.00000  Uiso   1.00
C718   C     0.09208   0.36293   0.49410   0.00000  Uiso   1.00
H719   H     0.05522   0.36703   0.49450   0.00000  Uiso   1.00
H720   H     0.10270   0.39432   0.47514   0.00000  Uiso   1.00
C721   C     0.11622   0.36284   0.54818   0.00000  Uiso   1.00
H722   H     0.10666   0.39463   0.56795   0.00000  Uiso   1.00
H723   H     0.10614   0.33259   0.56960   0.00000  Uiso   1.00
H724   H     0.15323   0.36204   0.54810   0.00000  Uiso   1.00
O725   O     0.38512   0.16455   0.48339   0.00000  Uiso   1.00
C726   C     0.37225   0.16290   0.43078   0.00000  Uiso   1.00
H727   H     0.40212   0.16239   0.41027   0.00000  Uiso   1.00
H728   H     0.35046   0.19307   0.41725   0.00000  Uiso   1.00
C729   C     0.34604   0.11864   0.41767   0.00000  Uiso   1.00
H730   H     0.31465   0.11890   0.43549   0.00000  Uiso   1.00
H731   H     0.33728   0.11595   0.37638   0.00000  Uiso   1.00
H732   H     0.36679   0.08793   0.43099   0.00000  Uiso   1.00
O733   O     0.38893   0.33237   0.51157   0.00000  Uiso   1.00
C734   C     0.39802   0.35736   0.46863   0.00000  Uiso   1.00
H735   H     0.43151   0.34943   0.45667   0.00000  Uiso   1.00
H736   H     0.39860   0.39471   0.47850   0.00000  Uiso   1.00
C737   C     0.36120   0.34978   0.42452   0.00000  Uiso   1.00
H738   H     0.32793   0.36017   0.43519   0.00000  Uiso   1.00
H739   H     0.36804   0.37122   0.39203   0.00000  Uiso   1.00
H740   H     0.36029   0.31267   0.41295   0.00000  Uiso   1.00
O741   O     0.13245   0.18836   0.57065   0.00000  Uiso   1.00
C742   C     0.12752   0.14237   0.55258   0.00000  Uiso   1.00
H743   H     0.13347   0.13998   0.51247   0.00000  Uiso   1.00
H744   H     0.09357   0.12851   0.55618   0.00000  Uiso   1.00
C745   C     0.16204   0.11216   0.58387   0.00000  Uiso   1.00
H746   H     0.15524   0.11236   0.62355   0.00000  Uiso   1.00
H747   H     0.15997   0.07621   0.56947   0.00000  Uiso   1.00
H748   H     0.19633   0.12548   0.58193   0.00000  Uiso   1.00
O749   O     0.19611   0.02920   0.42460   0.00000  Uiso   1.00
C750   C     0.22054   0.01306   0.38644   0.00000  Uiso   1.00
H751   H     0.23968   0.48111   0.39903   0.00000  Uiso   1.00
H752   H     0.24430   0.03966   0.37578   0.00000  Uiso   1.00
C753   C     0.18730   0.00097   0.34037   0.00000  Uiso   1.00
H754   H     0.17715   0.03284   0.65190   0.00000  Uiso   1.00
H755   H     0.20261   0.47580   0.64938   0.00000  Uiso   1.00
H756   H     0.15663   0.48507   0.35171   0.00000  Uiso   1.00
O757   O     0.33221   0.46634   0.51819   0.00000  Uiso   1.00
C758   C     0.34387   0.47992   0.47099   0.00000  Uiso   1.00
H759   H     0.32088   0.00749   0.45332   0.00000  Uiso   1.00
H760   H     0.34304   0.44980   0.44473   0.00000  Uiso   1.00
C761   C     0.39123   0.49952   0.47842   0.00000  Uiso   1.00
H762   H     0.41533   0.47375   0.49759   0.00000  Uiso   1.00
H763   H     0.40177   0.00818   0.44136   0.00000  Uiso   1.00
H764   H     0.39203   0.03151   0.50185   0.00000  Uiso   1.00
O765   O     0.30429   0.02810   0.57415   0.00000  Uiso   1.00
C766   C     0.28030   0.01270   0.61262   0.00000  Uiso   1.00
H767   H     0.25995   0.48194   0.59965   0.00000  Uiso   1.00
H768   H     0.25781   0.04044   0.62467   0.00000  Uiso   1.00
C769   C     0.31409   0.49839   0.65755   0.00000  Uiso   1.00
H770   H     0.32783   0.02966   0.34494   0.00000  Uiso   1.00
H771   H     0.29787   0.47607   0.35006   0.00000  Uiso   1.00
H772   H     0.34234   0.47831   0.64481   0.00000  Uiso   1.00
O773   O     0.16822   0.46701   0.47989   0.00000  Uiso   1.00
C774   C     0.15713   0.47938   0.52783   0.00000  Uiso   1.00
H775   H     0.18046   0.00583   0.54610   0.00000  Uiso   1.00
H776   H     0.15892   0.44876   0.55312   0.00000  Uiso   1.00
C777   C     0.10962   0.49948   0.52235   0.00000  Uiso   1.00
H778   H     0.10754   0.03101   0.49831   0.00000  Uiso   1.00
H779   H     0.10060   0.00914   0.55995   0.00000  Uiso   1.00
H780   H     0.08524   0.47346   0.50497   0.00000  Uiso   1.00
C781   C     0.66422   0.25022   0.50218   0.00000  Uiso   1.00
C782   C     0.83621   0.24965   0.49912   0.00000  Uiso   1.00
C783   C     0.72306   0.10174   0.46263   0.00000  Uiso   1.00
C784   C     0.78617   0.39846   0.52358   0.00000  Uiso   1.00
C785   C     0.77693   0.10119   0.53712   0.00000  Uiso   1.00
C786   C     0.71465   0.39870   0.47474   0.00000  Uiso   1.00
C787   C     0.72406   0.05214   0.46156   0.00000  Uiso   1.00
C788   C     0.79017   0.44610   0.51152   0.00000  Uiso   1.00
C789   C     0.77603   0.05160   0.53766   0.00000  Uiso   1.00
C790   C     0.71050   0.44657   0.48578   0.00000  Uiso   1.00
C791   C     0.74990   0.24995   0.40629   0.00000  Uiso   1.00
C792   C     0.75021   0.25005   0.59373   0.00000  Uiso   1.00
C793   C     0.75009   0.02621   0.49942   0.00000  Uiso   1.00
C794   C     0.75025   0.47277   0.49887   0.00000  Uiso   1.00
C795   C     0.75004   0.24992   0.35514   0.00000  Uiso   1.00
C796   C     0.75014   0.25007   0.64489   0.00000  Uiso   1.00
C797   C     0.54157   0.27643   0.48467   0.00000  Uiso   1.00
C798   C     0.95477   0.20349   0.50529   0.00000  Uiso   1.00
C799   C     0.95576   0.28589   0.52813   0.00000  Uiso   1.00
C800   C     0.55673   0.21814   0.55065   0.00000  Uiso   1.00
C801   C     0.58738   0.28358   0.48619   0.00000  Uiso   1.00
C802   C     0.90797   0.20545   0.49571   0.00000  Uiso   1.00
C803   C     0.90981   0.28916   0.51263   0.00000  Uiso   1.00
C804   C     0.60191   0.21692   0.54204   0.00000  Uiso   1.00
C805   C     0.61720   0.25020   0.50983   0.00000  Uiso   1.00
C806   C     0.88513   0.24829   0.50119   0.00000  Uiso   1.00
C807   C     0.52643   0.24594   0.51940   0.00000  Uiso   1.00
C808   C     0.97844   0.24394   0.52117   0.00000  Uiso   1.00
N809   N     0.75000   0.12623   0.50000   0.00000  Uiso   1.00
N810   N     0.75000   0.37376   0.50000   0.00000  Uiso   1.00
O811   O     0.68453   0.28974   0.50000   0.00000  Uiso   1.00
O812   O     0.81547   0.21026   0.50000   0.00000  Uiso   1.00
O813   O     0.81547   0.28974   0.50000   0.00000  Uiso   1.00
O814   O     0.68453   0.21026   0.50000   0.00000  Uiso   1.00
O815   O     0.75000   0.28973   0.42845   0.00000  Uiso   1.00
O816   O     0.75000   0.21027   0.57155   0.00000  Uiso   1.00
O817   O     0.75000   0.28973   0.57155   0.00000  Uiso   1.00
O818   O     0.75000   0.21027   0.42845   0.00000  Uiso   1.00
Zn819  Zn    0.75000   0.30307   0.50000   0.00000  Uiso   1.00
Zn820  Zn    0.75000   0.19693   0.50000   0.00000  Uiso   1.00
S821   S     0.69002   0.12833   0.40884   0.00000  Uiso   1.00
O822   O     0.71971   0.13039   0.36793   0.00000  Uiso   1.00
O823   O     0.65036   0.09833   0.39083   0.00000  Uiso   1.00
O824   O     0.66823   0.18142   0.41511   0.00000  Uiso   1.00
H825   H     0.65567   0.19096   0.38062   0.00000  Uiso   1.00
S826   S     0.81833   0.37975   0.58102   0.00000  Uiso   1.00
O827   O     0.86193   0.40574   0.58928   0.00000  Uiso   1.00
O828   O     0.79132   0.39222   0.62270   0.00000  Uiso   1.00
O829   O     0.83086   0.32298   0.58625   0.00000  Uiso   1.00
H830   H     0.84757   0.31923   0.62040   0.00000  Uiso   1.00
S831   S     0.80982   0.12736   0.59101   0.00000  Uiso   1.00
O832   O     0.77977   0.13136   0.63147   0.00000  Uiso   1.00
O833   O     0.84904   0.09639   0.60995   0.00000  Uiso   1.00
O834   O     0.83222   0.17952   0.58406   0.00000  Uiso   1.00
H835   H     0.84490   0.18929   0.61842   0.00000  Uiso   1.00
S836   S     0.68721   0.38028   0.41509   0.00000  Uiso   1.00
O837   O     0.64677   0.41061   0.39939   0.00000  Uiso   1.00
O838   O     0.72005   0.38630   0.37778   0.00000  Uiso   1.00
O839   O     0.67025   0.32495   0.41205   0.00000  Uiso   1.00
H840   H     0.65814   0.31976   0.37632   0.00000  Uiso   1.00
O841   O     0.51126   0.30156   0.45154   0.00000  Uiso   1.00
C842   C     0.50773   0.28067   0.40336   0.00000  Uiso   1.00
H843   H     0.51863   0.24346   0.40385   0.00000  Uiso   1.00
H844   H     0.52878   0.30020   0.37955   0.00000  Uiso   1.00
C845   C     0.95889   0.28263   0.37935   0.00000  Uiso   1.00
H846   H     0.93708   0.26570   0.40429   0.00000  Uiso   1.00
H847   H     0.95515   0.26392   0.34278   0.00000  Uiso   1.00
H848   H     0.94787   0.31933   0.37287   0.00000  Uiso   1.00
O849   O     0.97640   0.16081   0.50337   0.00000  Uiso   1.00
C850   C     0.99496   0.15586   0.45771   0.00000  Uiso   1.00
H851   H     0.53052   0.16726   0.46309   0.00000  Uiso   1.00
H852   H     0.97661   0.17606   0.42594   0.00000  Uiso   1.00
C853   C     0.99438   0.10472   0.44299   0.00000  Uiso   1.00
H854   H     0.95920   0.09211   0.43683   0.00000  Uiso   1.00
H855   H     0.50977   0.09989   0.40781   0.00000  Uiso   1.00
H856   H     0.51386   0.08389   0.47330   0.00000  Uiso   1.00
O857   O     0.97952   0.32571   0.54299   0.00000  Uiso   1.00
C858   C     0.97746   0.33307   0.59466   0.00000  Uiso   1.00
H859   H     0.99679   0.30542   0.61706   0.00000  Uiso   1.00
H860   H     0.94208   0.33378   0.60340   0.00000  Uiso   1.00
C861   C     0.99853   0.37960   0.61022   0.00000  Uiso   1.00
H862   H     0.97994   0.40805   0.58833   0.00000  Uiso   1.00
H863   H     0.99708   0.38565   0.65092   0.00000  Uiso   1.00
H864   H     0.53423   0.37974   0.60328   0.00000  Uiso   1.00
O865   O     0.54130   0.18854   0.58509   0.00000  Uiso   1.00
C866   C     0.55437   0.20541   0.63430   0.00000  Uiso   1.00
H867   H     0.53208   0.23482   0.64220   0.00000  Uiso   1.00
H868   H     0.58993   0.21728   0.64055   0.00000  Uiso   1.00
C869   C     0.54963   0.16668   0.33829   0.00000  Uiso   1.00
H870   H     0.56992   0.13592   0.66276   0.00000  Uiso   1.00
H871   H     0.56191   0.17855   0.37704   0.00000  Uiso   1.00
H872   H     0.51377   0.15664   0.33632   0.00000  Uiso   1.00
O873   O     0.60307   0.32342   0.46589   0.00000  Uiso   1.00
C874   C     0.59208   0.36293   0.49410   0.00000  Uiso   1.00
H875   H     0.55522   0.36703   0.49450   0.00000  Uiso   1.00
H876   H     0.60270   0.39432   0.47514   0.00000  Uiso   1.00
C877   C     0.61622   0.36284   0.54818   0.00000  Uiso   1.00
H878   H     0.60666   0.39463   0.56795   0.00000  Uiso   1.00
H879   H     0.60614   0.33259   0.56960   0.00000  Uiso   1.00
H880   H     0.65323   0.36204   0.54810   0.00000  Uiso   1.00
O881   O     0.88512   0.16455   0.48339   0.00000  Uiso   1.00
C882   C     0.87225   0.16290   0.43078   0.00000  Uiso   1.00
H883   H     0.90212   0.16239   0.41027   0.00000  Uiso   1.00
H884   H     0.85046   0.19307   0.41725   0.00000  Uiso   1.00
C885   C     0.84604   0.11864   0.41767   0.00000  Uiso   1.00
H886   H     0.81465   0.11890   0.43549   0.00000  Uiso   1.00
H887   H     0.83728   0.11595   0.37638   0.00000  Uiso   1.00
H888   H     0.86679   0.08793   0.43099   0.00000  Uiso   1.00
O889   O     0.88893   0.33237   0.51157   0.00000  Uiso   1.00
C890   C     0.89802   0.35736   0.46863   0.00000  Uiso   1.00
H891   H     0.93151   0.34943   0.45667   0.00000  Uiso   1.00
H892   H     0.89860   0.39471   0.47850   0.00000  Uiso   1.00
C893   C     0.86120   0.34978   0.42452   0.00000  Uiso   1.00
H894   H     0.82793   0.36017   0.43519   0.00000  Uiso   1.00
H895   H     0.86804   0.37122   0.39203   0.00000  Uiso   1.00
H896   H     0.86029   0.31267   0.41295   0.00000  Uiso   1.00
O897   O     0.63245   0.18836   0.57065   0.00000  Uiso   1.00
C898   C     0.62752   0.14237   0.55258   0.00000  Uiso   1.00
H899   H     0.63347   0.13998   0.51247   0.00000  Uiso   1.00
H900   H     0.59357   0.12851   0.55618   0.00000  Uiso   1.00
C901   C     0.66204   0.11216   0.58387   0.00000  Uiso   1.00
H902   H     0.65524   0.11236   0.62355   0.00000  Uiso   1.00
H903   H     0.65997   0.07621   0.56947   0.00000  Uiso   1.00
H904   H     0.69633   0.12548   0.58193   0.00000  Uiso   1.00
O905   O     0.69611   0.02920   0.42460   0.00000  Uiso   1.00
C906   C     0.72054   0.01306   0.38644   0.00000  Uiso   1.00
H907   H     0.73968   0.48111   0.39903   0.00000  Uiso   1.00
H908   H     0.74430   0.03966   0.37578   0.00000  Uiso   1.00
C909   C     0.68730   0.00097   0.34037   0.00000  Uiso   1.00
H910   H     0.67715   0.03284   0.65190   0.00000  Uiso   1.00
H911   H     0.70261   0.47580   0.64938   0.00000  Uiso   1.00
H912   H     0.65663   0.48507   0.35171   0.00000  Uiso   1.00
O913   O     0.83221   0.46634   0.51819   0.00000  Uiso   1.00
C914   C     0.84387   0.47992   0.47099   0.00000  Uiso   1.00
H915   H     0.82088   0.00749   0.45332   0.00000  Uiso   1.00
H916   H     0.84304   0.44980   0.44473   0.00000  Uiso   1.00
C917   C     0.89123   0.49952   0.47842   0.00000  Uiso   1.00
H918   H     0.91533   0.47375   0.49759   0.00000  Uiso   1.00
H919   H     0.90177   0.00818   0.44136   0.00000  Uiso   1.00
H920   H     0.89203   0.03151   0.50185   0.00000  Uiso   1.00
O921   O     0.80429   0.02810   0.57415   0.00000  Uiso   1.00
C922   C     0.78030   0.01270   0.61262   0.00000  Uiso   1.00
H923   H     0.75995   0.48194   0.59965   0.00000  Uiso   1.00
H924   H     0.75781   0.04044   0.62467   0.00000  Uiso   1.00
C925   C     0.81409   0.49839   0.65755   0.00000  Uiso   1.00
H926   H     0.82783   0.02966   0.34494   0.00000  Uiso   1.00
H927   H     0.79787   0.47607   0.35006   0.00000  Uiso   1.00
H928   H     0.84234   0.47831   0.64481   0.00000  Uiso   1.00
O929   O     0.66822   0.46701   0.47989   0.00000  Uiso   1.00
C930   C     0.65713   0.47938   0.52783   0.00000  Uiso   1.00
H931   H     0.68046   0.00583   0.54610   0.00000  Uiso   1.00
H932   H     0.65892   0.44876   0.55312   0.00000  Uiso   1.00
C933   C     0.60962   0.49948   0.52235   0.00000  Uiso   1.00
H934   H     0.60754   0.03101   0.49831   0.00000  Uiso   1.00
H935   H     0.60060   0.00914   0.55995   0.00000  Uiso   1.00
H936   H     0.58524   0.47346   0.50497   0.00000  Uiso   1.00
C937   C     0.16422   0.75022   0.50218   0.00000  Uiso   1.00
C938   C     0.33621   0.74965   0.49912   0.00000  Uiso   1.00
C939   C     0.22306   0.60174   0.46263   0.00000  Uiso   1.00
C940   C     0.28617   0.89846   0.52358   0.00000  Uiso   1.00
C941   C     0.27693   0.60119   0.53712   0.00000  Uiso   1.00
C942   C     0.21465   0.89870   0.47474   0.00000  Uiso   1.00
C943   C     0.22406   0.55214   0.46156   0.00000  Uiso   1.00
C944   C     0.29017   0.94610   0.51152   0.00000  Uiso   1.00
C945   C     0.27603   0.55160   0.53766   0.00000  Uiso   1.00
C946   C     0.21050   0.94657   0.48578   0.00000  Uiso   1.00
C947   C     0.24990   0.74995   0.40629   0.00000  Uiso   1.00
C948   C     0.25021   0.75005   0.59373   0.00000  Uiso   1.00
C949   C     0.25009   0.52621   0.49942   0.00000  Uiso   1.00
C950   C     0.25025   0.97277   0.49887   0.00000  Uiso   1.00
C951   C     0.25004   0.74992   0.35514   0.00000  Uiso   1.00
C952   C     0.25014   0.75007   0.64489   0.00000  Uiso   1.00
C953   C     0.04157   0.77643   0.48467   0.00000  Uiso   1.00
C954   C     0.45477   0.70349   0.50529   0.00000  Uiso   1.00
C955   C     0.45576   0.78589   0.52813   0.00000  Uiso   1.00
C956   C     0.05673   0.71814   0.55065   0.00000  Uiso   1.00
C957   C     0.08738   0.78358   0.48619   0.00000  Uiso   1.00
C958   C     0.40797   0.70545   0.49571   0.00000  Uiso   1.00
C959   C     0.40981   0.78916   0.51263   0.00000  Uiso   1.00
C960   C     0.10191   0.71692   0.54204   0.00000  Uiso   1.00
C961   C     0.11720   0.75020   0.50983   0.00000  Uiso   1.00
C962   C     0.38513   0.74829   0.50119   0.00000  Uiso   1.00
C963   C     0.02643   0.74594   0.51940   0.00000  Uiso   1.00
C964   C     0.47844   0.74394   0.52117   0.00000  Uiso   1.00
N965   N     0.25000   0.62623   0.50000   0.00000  Uiso   1.00
N966   N     0.25000   0.87376   0.50000   0.00000  Uiso   1.00
O967   O     0.18453   0.78974   0.50000   0.00000  Uiso   1.00
O968   O     0.31547   0.71026   0.50000   0.00000  Uiso   1.00
O969   O     0.31547   0.78974   0.50000   0.00000  Uiso   1.00
O970   O     0.18453   0.71026   0.50000   0.00000  Uiso   1.00
O971   O     0.25000   0.78973   0.42845   0.00000  Uiso   1.00
O972   O     0.25000   0.71027   0.57155   0.00000  Uiso   1.00
O973   O     0.25000   0.78973   0.57155   0.00000  Uiso   1.00
O974   O     0.25000   0.71027   0.42845   0.00000  Uiso   1.00
Zn975  Zn    0.25000   0.80307   0.50000   0.00000  Uiso   1.00
Zn976  Zn    0.25000   0.69693   0.50000   0.00000  Uiso   1.00
S977   S     0.19002   0.62833   0.40884   0.00000  Uiso   1.00
O978   O     0.21971   0.63039   0.36793   0.00000  Uiso   1.00
O979   O     0.15036   0.59833   0.39083   0.00000  Uiso   1.00
O980   O     0.16823   0.68142   0.41511   0.00000  Uiso   1.00
H981   H     0.15567   0.69096   0.38062   0.00000  Uiso   1.00
S982   S     0.31833   0.87975   0.58102   0.00000  Uiso   1.00
O983   O     0.36193   0.90574   0.58928   0.00000  Uiso   1.00
O984   O     0.29132   0.89222   0.62270   0.00000  Uiso   1.00
O985   O     0.33086   0.82298   0.58625   0.00000  Uiso   1.00
H986   H     0.34757   0.81923   0.62040   0.00000  Uiso   1.00
S987   S     0.30982   0.62736   0.59101   0.00000  Uiso   1.00
O988   O     0.27977   0.63136   0.63147   0.00000  Uiso   1.00
O989   O     0.34904   0.59639   0.60995   0.00000  Uiso   1.00
O990   O     0.33222   0.67952   0.58406   0.00000  Uiso   1.00
H991   H     0.34490   0.68929   0.61842   0.00000  Uiso   1.00
S992   S     0.18721   0.88028   0.41509   0.00000  Uiso   1.00
O993   O     0.14677   0.91061   0.39939   0.00000  Uiso   1.00
O994   O     0.22005   0.88630   0.37778   0.00000  Uiso   1.00
O995   O     0.17025   0.82495   0.41205   0.00000  Uiso   1.00
H996   H     0.15814   0.81976   0.37632   0.00000  Uiso   1.00
O997   O     0.01126   0.80156   0.45154   0.00000  Uiso   1.00
C998   C     0.00773   0.78067   0.40336   0.00000  Uiso   1.00
H999   H     0.01863   0.74346   0.40385   0.00000  Uiso   1.00
H1000  H     0.02878   0.80020   0.37955   0.00000  Uiso   1.00
C1001  C     0.45889   0.78263   0.37935   0.00000  Uiso   1.00
H1002  H     0.43708   0.76570   0.40429   0.00000  Uiso   1.00
H1003  H     0.45515   0.76392   0.34278   0.00000  Uiso   1.00
H1004  H     0.44787   0.81933   0.37287   0.00000  Uiso   1.00
O1005  O     0.47640   0.66081   0.50337   0.00000  Uiso   1.00
C1006  C     0.49496   0.65586   0.45771   0.00000  Uiso   1.00
H1007  H     0.03052   0.66726   0.46309   0.00000  Uiso   1.00
H1008  H     0.47661   0.67606   0.42594   0.00000  Uiso   1.00
C1009  C     0.49438   0.60472   0.44299   0.00000  Uiso   1.00
H1010  H     0.45920   0.59211   0.43683   0.00000  Uiso   1.00
H1011  H     0.00977   0.59989   0.40781   0.00000  Uiso   1.00
H1012  H     0.01386   0.58389   0.47330   0.00000  Uiso   1.00
O1013  O     0.47952   0.82571   0.54299   0.00000  Uiso   1.00
C1014  C     0.47746   0.83307   0.59466   0.00000  Uiso   1.00
H1015  H     0.49679   0.80542   0.61706   0.00000  Uiso   1.00
H1016  H     0.44208   0.83378   0.60340   0.00000  Uiso   1.00
C1017  C     0.49853   0.87960   0.61022   0.00000  Uiso   1.00
H1018  H     0.47994   0.90805   0.58833   0.00000  Uiso   1.00
H1019  H     0.49708   0.88565   0.65092   0.00000  Uiso   1.00
H1020  H     0.03423   0.87974   0.60328   0.00000  Uiso   1.00
O1021  O     0.04130   0.68854   0.58509   0.00000  Uiso   1.00
C1022  C     0.05437   0.70541   0.63430   0.00000  Uiso   1.00
H1023  H     0.03208   0.73482   0.64220   0.00000  Uiso   1.00
H1024  H     0.08993   0.71728   0.64055   0.00000  Uiso   1.00
C1025  C     0.04963   0.66668   0.33829   0.00000  Uiso   1.00
H1026  H     0.06992   0.63592   0.66276   0.00000  Uiso   1.00
H1027  H     0.06191   0.67855   0.37704   0.00000  Uiso   1.00
H1028  H     0.01377   0.65664   0.33632   0.00000  Uiso   1.00
O1029  O     0.10307   0.82342   0.46589   0.00000  Uiso   1.00
C1030  C     0.09208   0.86293   0.49410   0.00000  Uiso   1.00
H1031  H     0.05522   0.86703   0.49450   0.00000  Uiso   1.00
H1032  H     0.10270   0.89432   0.47514   0.00000  Uiso   1.00
C1033  C     0.11622   0.86284   0.54818   0.00000  Uiso   1.00
H1034  H     0.10666   0.89463   0.56795   0.00000  Uiso   1.00
H1035  H     0.10614   0.83259   0.56960   0.00000  Uiso   1.00
H1036  H     0.15323   0.86204   0.54810   0.00000  Uiso   1.00
O1037  O     0.38512   0.66455   0.48339   0.00000  Uiso   1.00
C1038  C     0.37225   0.66290   0.43078   0.00000  Uiso   1.00
H1039  H     0.40212   0.66239   0.41027   0.00000  Uiso   1.00
H1040  H     0.35046   0.69307   0.41725   0.00000  Uiso   1.00
C1041  C     0.34604   0.61864   0.41767   0.00000  Uiso   1.00
H1042  H     0.31465   0.61890   0.43549   0.00000  Uiso   1.00
H1043  H     0.33728   0.61595   0.37638   0.00000  Uiso   1.00
H1044  H     0.36679   0.58793   0.43099   0.00000  Uiso   1.00
O1045  O     0.38893   0.83237   0.51157   0.00000  Uiso   1.00
C1046  C     0.39802   0.85736   0.46863   0.00000  Uiso   1.00
H1047  H     0.43151   0.84943   0.45667   0.00000  Uiso   1.00
H1048  H     0.39860   0.89471   0.47850   0.00000  Uiso   1.00
C1049  C     0.36120   0.84978   0.42452   0.00000  Uiso   1.00
H1050  H     0.32793   0.86017   0.43519   0.00000  Uiso   1.00
H1051  H     0.36804   0.87122   0.39203   0.00000  Uiso   1.00
H1052  H     0.36029   0.81267   0.41295   0.00000  Uiso   1.00
O1053  O     0.13245   0.68836   0.57065   0.00000  Uiso   1.00
C1054  C     0.12752   0.64237   0.55258   0.00000  Uiso   1.00
H1055  H     0.13347   0.63998   0.51247   0.00000  Uiso   1.00
H1056  H     0.09357   0.62851   0.55618   0.00000  Uiso   1.00
C1057  C     0.16204   0.61216   0.58387   0.00000  Uiso   1.00
H1058  H     0.15524   0.61236   0.62355   0.00000  Uiso   1.00
H1059  H     0.15997   0.57621   0.56947   0.00000  Uiso   1.00
H1060  H     0.19633   0.62548   0.58193   0.00000  Uiso   1.00
O1061  O     0.19611   0.52920   0.42460   0.00000  Uiso   1.00
C1062  C     0.22054   0.51306   0.38644   0.00000  Uiso   1.00
H1063  H     0.23968   0.98111   0.39903   0.00000  Uiso   1.00
H1064  H     0.24430   0.53966   0.37578   0.00000  Uiso   1.00
C1065  C     0.18730   0.50097   0.34037   0.00000  Uiso   1.00
H1066  H     0.17715   0.53284   0.65190   0.00000  Uiso   1.00
H1067  H     0.20261   0.97580   0.64938   0.00000  Uiso   1.00
H1068  H     0.15663   0.98507   0.35171   0.00000  Uiso   1.00
O1069  O     0.33221   0.96634   0.51819   0.00000  Uiso   1.00
C1070  C     0.34387   0.97992   0.47099   0.00000  Uiso   1.00
H1071  H     0.32088   0.50749   0.45332   0.00000  Uiso   1.00
H1072  H     0.34304   0.94980   0.44473   0.00000  Uiso   1.00
C1073  C     0.39123   0.99952   0.47842   0.00000  Uiso   1.00
H1074  H     0.41533   0.97375   0.49759   0.00000  Uiso   1.00
H1075  H     0.40177   0.50818   0.44136   0.00000  Uiso   1.00
H1076  H     0.39203   0.53151   0.50185   0.00000  Uiso   1.00
O1077  O     0.30429   0.52810   0.57415   0.00000  Uiso   1.00
C1078  C     0.28030   0.51270   0.61262   0.00000  Uiso   1.00
H1079  H     0.25995   0.98194   0.59965   0.00000  Uiso   1.00
H1080  H     0.25781   0.54044   0.62467   0.00000  Uiso   1.00
C1081  C     0.31409   0.99839   0.65755   0.00000  Uiso   1.00
H1082  H     0.32783   0.52966   0.34494   0.00000  Uiso   1.00
H1083  H     0.29787   0.97607   0.35006   0.00000  Uiso   1.00
H1084  H     0.34234   0.97831   0.64481   0.00000  Uiso   1.00
O1085  O     0.16822   0.96701   0.47989   0.00000  Uiso   1.00
C1086  C     0.15713   0.97938   0.52783   0.00000  Uiso   1.00
H1087  H     0.18046   0.50583   0.54610   0.00000  Uiso   1.00
H1088  H     0.15892   0.94876   0.55312   0.00000  Uiso   1.00
C1089  C     0.10962   0.99948   0.52235   0.00000  Uiso   1.00
H1090  H     0.10754   0.53101   0.49831   0.00000  Uiso   1.00
H1091  H     0.10060   0.50914   0.55995   0.00000  Uiso   1.00
H1092  H     0.08524   0.97346   0.50497   0.00000  Uiso   1.00
C1093  C     0.66422   0.75022   0.50218   0.00000  Uiso   1.00
C1094  C     0.83621   0.74965   0.49912   0.00000  Uiso   1.00
C1095  C     0.72306   0.60174   0.46263   0.00000  Uiso   1.00
C1096  C     0.78617   0.89846   0.52358   0.00000  Uiso   1.00
C1097  C     0.77693   0.60119   0.53712   0.00000  Uiso   1.00
C1098  C     0.71465   0.89870   0.47474   0.00000  Uiso   1.00
C1099  C     0.72406   0.55214   0.46156   0.00000  Uiso   1.00
C1100  C     0.79017   0.94610   0.51152   0.00000  Uiso   1.00
C1101  C     0.77603   0.55160   0.53766   0.00000  Uiso   1.00
C1102  C     0.71050   0.94657   0.48578   0.00000  Uiso   1.00
C1103  C     0.74990   0.74995   0.40629   0.00000  Uiso   1.00
C1104  C     0.75021   0.75005   0.59373   0.00000  Uiso   1.00
C1105  C     0.75009   0.52621   0.49942   0.00000  Uiso   1.00
C1106  C     0.75025   0.97277   0.49887   0.00000  Uiso   1.00
C1107  C     0.75004   0.74992   0.35514   0.00000  Uiso   1.00
C1108  C     0.75014   0.75007   0.64489   0.00000  Uiso   1.00
C1109  C     0.54157   0.77643   0.48467   0.00000  Uiso   1.00
C1110  C     0.95477   0.70349   0.50529   0.00000  Uiso   1.00
C1111  C     0.95576   0.78589   0.52813   0.00000  Uiso   1.00
C1112  C     0.55673   0.71814   0.55065   0.00000  Uiso   1.00
C1113  C     0.58738   0.78358   0.48619   0.00000  Uiso   1.00
C1114  C     0.90797   0.70545   0.49571   0.00000  Uiso   1.00
C1115  C     0.90981   0.78916   0.51263   0.00000  Uiso   1.00
C1116  C     0.60191   0.71692   0.54204   0.00000  Uiso   1.00
C1117  C     0.61720   0.75020   0.50983   0.00000  Uiso   1.00
C1118  C     0.88513   0.74829   0.50119   0.00000  Uiso   1.00
C1119  C     0.52643   0.74594   0.51940   0.00000  Uiso   1.00
C1120  C     0.97844   0.74394   0.52117   0.00000  Uiso   1.00
N1121  N     0.75000   0.62623   0.50000   0.00000  Uiso   1.00
N1122  N     0.75000   0.87376   0.50000   0.00000  Uiso   1.00
O1123  O     0.68453   0.78974   0.50000   0.00000  Uiso   1.00
O1124  O     0.81547   0.71026   0.50000   0.00000  Uiso   1.00
O1125  O     0.81547   0.78974   0.50000   0.00000  Uiso   1.00
O1126  O     0.68453   0.71026   0.50000   0.00000  Uiso   1.00
O1127  O     0.75000   0.78973   0.42845   0.00000  Uiso   1.00
O1128  O     0.75000   0.71027   0.57155   0.00000  Uiso   1.00
O1129  O     0.75000   0.78973   0.57155   0.00000  Uiso   1.00
O1130  O     0.75000   0.71027   0.42845   0.00000  Uiso   1.00
Zn1131 Zn    0.75000   0.80307   0.50000   0.00000  Uiso   1.00
Zn1132 Zn    0.75000   0.69693   0.50000   0.00000  Uiso   1.00
S1133  S     0.69002   0.62833   0.40884   0.00000  Uiso   1.00
O1134  O     0.71971   0.63039   0.36793   0.00000  Uiso   1.00
O1135  O     0.65036   0.59833   0.39083   0.00000  Uiso   1.00
O1136  O     0.66823   0.68142   0.41511   0.00000  Uiso   1.00
H1137  H     0.65567   0.69096   0.38062   0.00000  Uiso   1.00
S1138  S     0.81833   0.87975   0.58102   0.00000  Uiso   1.00
O1139  O     0.86193   0.90574   0.58928   0.00000  Uiso   1.00
O1140  O     0.79132   0.89222   0.62270   0.00000  Uiso   1.00
O1141  O     0.83086   0.82298   0.58625   0.00000  Uiso   1.00
H1142  H     0.84757   0.81923   0.62040   0.00000  Uiso   1.00
S1143  S     0.80982   0.62736   0.59101   0.00000  Uiso   1.00
O1144  O     0.77977   0.63136   0.63147   0.00000  Uiso   1.00
O1145  O     0.84904   0.59639   0.60995   0.00000  Uiso   1.00
O1146  O     0.83222   0.67952   0.58406   0.00000  Uiso   1.00
H1147  H     0.84490   0.68929   0.61842   0.00000  Uiso   1.00
S1148  S     0.68721   0.88028   0.41509   0.00000  Uiso   1.00
O1149  O     0.64677   0.91061   0.39939   0.00000  Uiso   1.00
O1150  O     0.72005   0.88630   0.37778   0.00000  Uiso   1.00
O1151  O     0.67025   0.82495   0.41205   0.00000  Uiso   1.00
H1152  H     0.65814   0.81976   0.37632   0.00000  Uiso   1.00
O1153  O     0.51126   0.80156   0.45154   0.00000  Uiso   1.00
C1154  C     0.50773   0.78067   0.40336   0.00000  Uiso   1.00
H1155  H     0.51863   0.74346   0.40385   0.00000  Uiso   1.00
H1156  H     0.52878   0.80020   0.37955   0.00000  Uiso   1.00
C1157  C     0.95889   0.78263   0.37935   0.00000  Uiso   1.00
H1158  H     0.93708   0.76570   0.40429   0.00000  Uiso   1.00
H1159  H     0.95515   0.76392   0.34278   0.00000  Uiso   1.00
H1160  H     0.94787   0.81933   0.37287   0.00000  Uiso   1.00
O1161  O     0.97640   0.66081   0.50337   0.00000  Uiso   1.00
C1162  C     0.99496   0.65586   0.45771   0.00000  Uiso   1.00
H1163  H     0.53052   0.66726   0.46309   0.00000  Uiso   1.00
H1164  H     0.97661   0.67606   0.42594   0.00000  Uiso   1.00
C1165  C     0.99438   0.60472   0.44299   0.00000  Uiso   1.00
H1166  H     0.95920   0.59211   0.43683   0.00000  Uiso   1.00
H1167  H     0.50977   0.59989   0.40781   0.00000  Uiso   1.00
H1168  H     0.51386   0.58389   0.47330   0.00000  Uiso   1.00
O1169  O     0.97952   0.82571   0.54299   0.00000  Uiso   1.00
C1170  C     0.97746   0.83307   0.59466   0.00000  Uiso   1.00
H1171  H     0.99679   0.80542   0.61706   0.00000  Uiso   1.00
H1172  H     0.94208   0.83378   0.60340   0.00000  Uiso   1.00
C1173  C     0.99853   0.87960   0.61022   0.00000  Uiso   1.00
H1174  H     0.97994   0.90805   0.58833   0.00000  Uiso   1.00
H1175  H     0.99708   0.88565   0.65092   0.00000  Uiso   1.00
H1176  H     0.53423   0.87974   0.60328   0.00000  Uiso   1.00
O1177  O     0.54130   0.68854   0.58509   0.00000  Uiso   1.00
C1178  C     0.55437   0.70541   0.63430   0.00000  Uiso   1.00
H1179  H     0.53208   0.73482   0.64220   0.00000  Uiso   1.00
H1180  H     0.58993   0.71728   0.64055   0.00000  Uiso   1.00
C1181  C     0.54963   0.66668   0.33829   0.00000  Uiso   1.00
H1182  H     0.56992   0.63592   0.66276   0.00000  Uiso   1.00
H1183  H     0.56191   0.67855   0.37704   0.00000  Uiso   1.00
H1184  H     0.51377   0.65664   0.33632   0.00000  Uiso   1.00
O1185  O     0.60307   0.82342   0.46589   0.00000  Uiso   1.00
C1186  C     0.59208   0.86293   0.49410   0.00000  Uiso   1.00
H1187  H     0.55522   0.86703   0.49450   0.00000  Uiso   1.00
H1188  H     0.60270   0.89432   0.47514   0.00000  Uiso   1.00
C1189  C     0.61622   0.86284   0.54818   0.00000  Uiso   1.00
H1190  H     0.60666   0.89463   0.56795   0.00000  Uiso   1.00
H1191  H     0.60614   0.83259   0.56960   0.00000  Uiso   1.00
H1192  H     0.65323   0.86204   0.54810   0.00000  Uiso   1.00
O1193  O     0.88512   0.66455   0.48339   0.00000  Uiso   1.00
C1194  C     0.87225   0.66290   0.43078   0.00000  Uiso   1.00
H1195  H     0.90212   0.66239   0.41027   0.00000  Uiso   1.00
H1196  H     0.85046   0.69307   0.41725   0.00000  Uiso   1.00
C1197  C     0.84604   0.61864   0.41767   0.00000  Uiso   1.00
H1198  H     0.81465   0.61890   0.43549   0.00000  Uiso   1.00
H1199  H     0.83728   0.61595   0.37638   0.00000  Uiso   1.00
H1200  H     0.86679   0.58793   0.43099   0.00000  Uiso   1.00
O1201  O     0.88893   0.83237   0.51157   0.00000  Uiso   1.00
C1202  C     0.89802   0.85736   0.46863   0.00000  Uiso   1.00
H1203  H     0.93151   0.84943   0.45667   0.00000  Uiso   1.00
H1204  H     0.89860   0.89471   0.47850   0.00000  Uiso   1.00
C1205  C     0.86120   0.84978   0.42452   0.00000  Uiso   1.00
H1206  H     0.82793   0.86017   0.43519   0.00000  Uiso   1.00
H1207  H     0.86804   0.87122   0.39203   0.00000  Uiso   1.00
H1208  H     0.86029   0.81267   0.41295   0.00000  Uiso   1.00
O1209  O     0.63245   0.68836   0.57065   0.00000  Uiso   1.00
C1210  C     0.62752   0.64237   0.55258   0.00000  Uiso   1.00
H1211  H     0.63347   0.63998   0.51247   0.00000  Uiso   1.00
H1212  H     0.59357   0.62851   0.55618   0.00000  Uiso   1.00
C1213  C     0.66204   0.61216   0.58387   0.00000  Uiso   1.00
H1214  H     0.65524   0.61236   0.62355   0.00000  Uiso   1.00
H1215  H     0.65997   0.57621   0.56947   0.00000  Uiso   1.00
H1216  H     0.69633   0.62548   0.58193   0.00000  Uiso   1.00
O1217  O     0.69611   0.52920   0.42460   0.00000  Uiso   1.00
C1218  C     0.72054   0.51306   0.38644   0.00000  Uiso   1.00
H1219  H     0.73968   0.98111   0.39903   0.00000  Uiso   1.00
H1220  H     0.74430   0.53966   0.37578   0.00000  Uiso   1.00
C1221  C     0.68730   0.50097   0.34037   0.00000  Uiso   1.00
H1222  H     0.67715   0.53284   0.65190   0.00000  Uiso   1.00
H1223  H     0.70261   0.97580   0.64938   0.00000  Uiso   1.00
H1224  H     0.65663   0.98507   0.35171   0.00000  Uiso   1.00
O1225  O     0.83221   0.96634   0.51819   0.00000  Uiso   1.00
C1226  C     0.84387   0.97992   0.47099   0.00000  Uiso   1.00
H1227  H     0.82088   0.50749   0.45332   0.00000  Uiso   1.00
H1228  H     0.84304   0.94980   0.44473   0.00000  Uiso   1.00
C1229  C     0.89123   0.99952   0.47842   0.00000  Uiso   1.00
H1230  H     0.91533   0.97375   0.49759   0.00000  Uiso   1.00
H1231  H     0.90177   0.50818   0.44136   0.00000  Uiso   1.00
H1232  H     0.89203   0.53151   0.50185   0.00000  Uiso   1.00
O1233  O     0.80429   0.52810   0.57415   0.00000  Uiso   1.00
C1234  C     0.78030   0.51270   0.61262   0.00000  Uiso   1.00
H1235  H     0.75995   0.98194   0.59965   0.00000  Uiso   1.00
H1236  H     0.75781   0.54044   0.62467   0.00000  Uiso   1.00
C1237  C     0.81409   0.99839   0.65755   0.00000  Uiso   1.00
H1238  H     0.82783   0.52966   0.34494   0.00000  Uiso   1.00
H1239  H     0.79787   0.97607   0.35006   0.00000  Uiso   1.00
H1240  H     0.84234   0.97831   0.64481   0.00000  Uiso   1.00
O1241  O     0.66822   0.96701   0.47989   0.00000  Uiso   1.00
C1242  C     0.65713   0.97938   0.52783   0.00000  Uiso   1.00
H1243  H     0.68046   0.50583   0.54610   0.00000  Uiso   1.00
H1244  H     0.65892   0.94876   0.55312   0.00000  Uiso   1.00
C1245  C     0.60962   0.99948   0.52235   0.00000  Uiso   1.00
H1246  H     0.60754   0.53101   0.49831   0.00000  Uiso   1.00
H1247  H     0.60060   0.50914   0.55995   0.00000  Uiso   1.00
H1248  H     0.58524   0.97346   0.50497   0.00000  Uiso   1.00
C1249  C     0.16422   0.25022   0.83552   0.00000  Uiso   1.00
C1250  C     0.33621   0.24965   0.83245   0.00000  Uiso   1.00
C1251  C     0.22306   0.10174   0.79597   0.00000  Uiso   1.00
C1252  C     0.28617   0.39846   0.85691   0.00000  Uiso   1.00
C1253  C     0.27693   0.10119   0.87045   0.00000  Uiso   1.00
C1254  C     0.21465   0.39870   0.80807   0.00000  Uiso   1.00
C1255  C     0.22406   0.05214   0.79489   0.00000  Uiso   1.00
C1256  C     0.29017   0.44610   0.84486   0.00000  Uiso   1.00
C1257  C     0.27603   0.05160   0.87099   0.00000  Uiso   1.00
C1258  C     0.21050   0.44657   0.81912   0.00000  Uiso   1.00
C1259  C     0.24990   0.24995   0.73963   0.00000  Uiso   1.00
C1260  C     0.25021   0.25005   0.92706   0.00000  Uiso   1.00
C1261  C     0.25009   0.02621   0.83275   0.00000  Uiso   1.00
C1262  C     0.25025   0.47277   0.83221   0.00000  Uiso   1.00
C1263  C     0.25004   0.24992   0.68847   0.00000  Uiso   1.00
C1264  C     0.25014   0.25007   0.97823   0.00000  Uiso   1.00
C1265  C     0.04157   0.27643   0.81800   0.00000  Uiso   1.00
C1266  C     0.45477   0.20349   0.83862   0.00000  Uiso   1.00
C1267  C     0.45576   0.28589   0.86146   0.00000  Uiso   1.00
C1268  C     0.05673   0.21814   0.88398   0.00000  Uiso   1.00
C1269  C     0.08738   0.28358   0.81952   0.00000  Uiso   1.00
C1270  C     0.40797   0.20545   0.82904   0.00000  Uiso   1.00
C1271  C     0.40981   0.28916   0.84596   0.00000  Uiso   1.00
C1272  C     0.10191   0.21692   0.87537   0.00000  Uiso   1.00
C1273  C     0.11720   0.25020   0.84316   0.00000  Uiso   1.00
C1274  C     0.38513   0.24829   0.83452   0.00000  Uiso   1.00
C1275  C     0.02643   0.24594   0.85273   0.00000  Uiso   1.00
C1276  C     0.47844   0.24394   0.85450   0.00000  Uiso   1.00
N1277  N     0.25000   0.12623   0.83333   0.00000  Uiso   1.00
N1278  N     0.25000   0.37376   0.83333   0.00000  Uiso   1.00
O1279  O     0.18453   0.28974   0.83334   0.00000  Uiso   1.00
O1280  O     0.31547   0.21026   0.83333   0.00000  Uiso   1.00
O1281  O     0.31547   0.28974   0.83333   0.00000  Uiso   1.00
O1282  O     0.18453   0.21026   0.83334   0.00000  Uiso   1.00
O1283  O     0.25000   0.28973   0.76178   0.00000  Uiso   1.00
O1284  O     0.25000   0.21027   0.90489   0.00000  Uiso   1.00
O1285  O     0.25000   0.28973   0.90489   0.00000  Uiso   1.00
O1286  O     0.25000   0.21027   0.76178   0.00000  Uiso   1.00
Zn1287 Zn    0.25000   0.30307   0.83333   0.00000  Uiso   1.00
Zn1288 Zn    0.25000   0.19693   0.83333   0.00000  Uiso   1.00
S1289  S     0.19002   0.12833   0.74217   0.00000  Uiso   1.00
O1290  O     0.21971   0.13039   0.70126   0.00000  Uiso   1.00
O1291  O     0.15036   0.09833   0.72416   0.00000  Uiso   1.00
O1292  O     0.16823   0.18142   0.74844   0.00000  Uiso   1.00
H1293  H     0.15567   0.19096   0.71395   0.00000  Uiso   1.00
S1294  S     0.31833   0.37975   0.91435   0.00000  Uiso   1.00
O1295  O     0.36193   0.40574   0.92261   0.00000  Uiso   1.00
O1296  O     0.29132   0.39222   0.95604   0.00000  Uiso   1.00
O1297  O     0.33086   0.32298   0.91958   0.00000  Uiso   1.00
H1298  H     0.34757   0.31923   0.95373   0.00000  Uiso   1.00
S1299  S     0.30982   0.12736   0.92435   0.00000  Uiso   1.00
O1300  O     0.27977   0.13136   0.96480   0.00000  Uiso   1.00
O1301  O     0.34904   0.09639   0.94328   0.00000  Uiso   1.00
O1302  O     0.33222   0.17952   0.91739   0.00000  Uiso   1.00
H1303  H     0.34490   0.18929   0.95176   0.00000  Uiso   1.00
S1304  S     0.18721   0.38028   0.74843   0.00000  Uiso   1.00
O1305  O     0.14677   0.41061   0.73272   0.00000  Uiso   1.00
O1306  O     0.22005   0.38630   0.71111   0.00000  Uiso   1.00
O1307  O     0.17025   0.32495   0.74538   0.00000  Uiso   1.00
H1308  H     0.15814   0.31976   0.70965   0.00000  Uiso   1.00
O1309  O     0.01126   0.30156   0.78487   0.00000  Uiso   1.00
C1310  C     0.00773   0.28067   0.73669   0.00000  Uiso   1.00
H1311  H     0.01863   0.24346   0.73718   0.00000  Uiso   1.00
H1312  H     0.02878   0.30020   0.71288   0.00000  Uiso   1.00
C1313  C     0.45889   0.28263   0.71268   0.00000  Uiso   1.00
H1314  H     0.43708   0.26570   0.73763   0.00000  Uiso   1.00
H1315  H     0.45515   0.26392   0.67611   0.00000  Uiso   1.00
H1316  H     0.44787   0.31933   0.70621   0.00000  Uiso   1.00
O1317  O     0.47640   0.16081   0.83670   0.00000  Uiso   1.00
C1318  C     0.49496   0.15586   0.79104   0.00000  Uiso   1.00
H1319  H     0.03052   0.16726   0.79642   0.00000  Uiso   1.00
H1320  H     0.47661   0.17606   0.75928   0.00000  Uiso   1.00
C1321  C     0.49438   0.10472   0.77632   0.00000  Uiso   1.00
H1322  H     0.45920   0.09211   0.77016   0.00000  Uiso   1.00
H1323  H     0.00977   0.09989   0.74115   0.00000  Uiso   1.00
H1324  H     0.01386   0.08389   0.80664   0.00000  Uiso   1.00
O1325  O     0.47952   0.32571   0.87632   0.00000  Uiso   1.00
C1326  C     0.47746   0.33307   0.92799   0.00000  Uiso   1.00
H1327  H     0.49679   0.30542   0.95039   0.00000  Uiso   1.00
H1328  H     0.44208   0.33378   0.93673   0.00000  Uiso   1.00
C1329  C     0.49853   0.37960   0.94355   0.00000  Uiso   1.00
H1330  H     0.47994   0.40805   0.92167   0.00000  Uiso   1.00
H1331  H     0.49708   0.38565   0.98425   0.00000  Uiso   1.00
H1332  H     0.03423   0.37974   0.93661   0.00000  Uiso   1.00
O1333  O     0.04130   0.18854   0.91842   0.00000  Uiso   1.00
C1334  C     0.05437   0.20541   0.96764   0.00000  Uiso   1.00
H1335  H     0.03208   0.23482   0.97553   0.00000  Uiso   1.00
H1336  H     0.08993   0.21728   0.97389   0.00000  Uiso   1.00
C1337  C     0.04963   0.16668   0.67162   0.00000  Uiso   1.00
H1338  H     0.06992   0.13592   0.99609   0.00000  Uiso   1.00
H1339  H     0.06191   0.17855   0.71037   0.00000  Uiso   1.00
H1340  H     0.01377   0.15664   0.66966   0.00000  Uiso   1.00
O1341  O     0.10307   0.32342   0.79922   0.00000  Uiso   1.00
C1342  C     0.09208   0.36293   0.82744   0.00000  Uiso   1.00
H1343  H     0.05522   0.36703   0.82783   0.00000  Uiso   1.00
H1344  H     0.10270   0.39432   0.80848   0.00000  Uiso   1.00
C1345  C     0.11622   0.36284   0.88152   0.00000  Uiso   1.00
H1346  H     0.10666   0.39463   0.90129   0.00000  Uiso   1.00
H1347  H     0.10614   0.33259   0.90293   0.00000  Uiso   1.00
H1348  H     0.15323   0.36204   0.88143   0.00000  Uiso   1.00
O1349  O     0.38512   0.16455   0.81673   0.00000  Uiso   1.00
C1350  C     0.37225   0.16290   0.76411   0.00000  Uiso   1.00
H1351  H     0.40212   0.16239   0.74360   0.00000  Uiso   1.00
H1352  H     0.35046   0.19307   0.75058   0.00000  Uiso   1.00
C1353  C     0.34604   0.11864   0.75100   0.00000  Uiso   1.00
H1354  H     0.31465   0.11890   0.76883   0.00000  Uiso   1.00
H1355  H     0.33728   0.11595   0.70971   0.00000  Uiso   1.00
H1356  H     0.36679   0.08793   0.76432   0.00000  Uiso   1.00
O1357  O     0.38893   0.33237   0.84491   0.00000  Uiso   1.00
C1358  C     0.39802   0.35736   0.80197   0.00000  Uiso   1.00
H1359  H     0.43151   0.34943   0.79001   0.00000  Uiso   1.00
H1360  H     0.39860   0.39471   0.81184   0.00000  Uiso   1.00
C1361  C     0.36120   0.34978   0.75785   0.00000  Uiso   1.00
H1362  H     0.32793   0.36017   0.76852   0.00000  Uiso   1.00
H1363  H     0.36804   0.37122   0.72536   0.00000  Uiso   1.00
H1364  H     0.36029   0.31267   0.74629   0.00000  Uiso   1.00
O1365  O     0.13245   0.18836   0.90398   0.00000  Uiso   1.00
C1366  C     0.12752   0.14237   0.88591   0.00000  Uiso   1.00
H1367  H     0.13347   0.13998   0.84581   0.00000  Uiso   1.00
H1368  H     0.09357   0.12851   0.88952   0.00000  Uiso   1.00
C1369  C     0.16204   0.11216   0.91721   0.00000  Uiso   1.00
H1370  H     0.15524   0.11236   0.95689   0.00000  Uiso   1.00
H1371  H     0.15997   0.07621   0.90280   0.00000  Uiso   1.00
H1372  H     0.19633   0.12548   0.91527   0.00000  Uiso   1.00
O1373  O     0.19611   0.02920   0.75793   0.00000  Uiso   1.00
C1374  C     0.22054   0.01306   0.71978   0.00000  Uiso   1.00
H1375  H     0.23968   0.48111   0.73236   0.00000  Uiso   1.00
H1376  H     0.24430   0.03966   0.70912   0.00000  Uiso   1.00
C1377  C     0.18730   0.00097   0.67371   0.00000  Uiso   1.00
H1378  H     0.17715   0.03284   0.98523   0.00000  Uiso   1.00
H1379  H     0.20261   0.47580   0.98271   0.00000  Uiso   1.00
H1380  H     0.15663   0.48507   0.68504   0.00000  Uiso   1.00
O1381  O     0.33221   0.46634   0.85153   0.00000  Uiso   1.00
C1382  C     0.34387   0.47992   0.80433   0.00000  Uiso   1.00
H1383  H     0.32088   0.00749   0.78665   0.00000  Uiso   1.00
H1384  H     0.34304   0.44980   0.77806   0.00000  Uiso   1.00
C1385  C     0.39123   0.49952   0.81175   0.00000  Uiso   1.00
H1386  H     0.41533   0.47375   0.83092   0.00000  Uiso   1.00
H1387  H     0.40177   0.00818   0.77470   0.00000  Uiso   1.00
H1388  H     0.39203   0.03151   0.83518   0.00000  Uiso   1.00
O1389  O     0.30429   0.02810   0.90748   0.00000  Uiso   1.00
C1390  C     0.28030   0.01270   0.94595   0.00000  Uiso   1.00
H1391  H     0.25995   0.48194   0.93298   0.00000  Uiso   1.00
H1392  H     0.25781   0.04044   0.95800   0.00000  Uiso   1.00
C1393  C     0.31409   0.49839   0.99088   0.00000  Uiso   1.00
H1394  H     0.32783   0.02966   0.67827   0.00000  Uiso   1.00
H1395  H     0.29787   0.47607   0.68340   0.00000  Uiso   1.00
H1396  H     0.34234   0.47831   0.97814   0.00000  Uiso   1.00
O1397  O     0.16822   0.46701   0.81323   0.00000  Uiso   1.00
C1398  C     0.15713   0.47938   0.86116   0.00000  Uiso   1.00
H1399  H     0.18046   0.00583   0.87944   0.00000  Uiso   1.00
H1400  H     0.15892   0.44876   0.88645   0.00000  Uiso   1.00
C1401  C     0.10962   0.49948   0.85568   0.00000  Uiso   1.00
H1402  H     0.10754   0.03101   0.83164   0.00000  Uiso   1.00
H1403  H     0.10060   0.00914   0.89329   0.00000  Uiso   1.00
H1404  H     0.08524   0.47346   0.83830   0.00000  Uiso   1.00
C1405  C     0.66422   0.25022   0.83552   0.00000  Uiso   1.00
C1406  C     0.83621   0.24965   0.83245   0.00000  Uiso   1.00
C1407  C     0.72306   0.10174   0.79597   0.00000  Uiso   1.00
C1408  C     0.78617   0.39846   0.85691   0.00000  Uiso   1.00
C1409  C     0.77693   0.10119   0.87045   0.00000  Uiso   1.00
C1410  C     0.71465   0.39870   0.80807   0.00000  Uiso   1.00
C1411  C     0.72406   0.05214   0.79489   0.00000  Uiso   1.00
C1412  C     0.79017   0.44610   0.84486   0.00000  Uiso   1.00
C1413  C     0.77603   0.05160   0.87099   0.00000  Uiso   1.00
C1414  C     0.71050   0.44657   0.81912   0.00000  Uiso   1.00
C1415  C     0.74990   0.24995   0.73963   0.00000  Uiso   1.00
C1416  C     0.75021   0.25005   0.92706   0.00000  Uiso   1.00
C1417  C     0.75009   0.02621   0.83275   0.00000  Uiso   1.00
C1418  C     0.75025   0.47277   0.83221   0.00000  Uiso   1.00
C1419  C     0.75004   0.24992   0.68847   0.00000  Uiso   1.00
C1420  C     0.75014   0.25007   0.97823   0.00000  Uiso   1.00
C1421  C     0.54157   0.27643   0.81800   0.00000  Uiso   1.00
C1422  C     0.95477   0.20349   0.83862   0.00000  Uiso   1.00
C1423  C     0.95576   0.28589   0.86146   0.00000  Uiso   1.00
C1424  C     0.55673   0.21814   0.88398   0.00000  Uiso   1.00
C1425  C     0.58738   0.28358   0.81952   0.00000  Uiso   1.00
C1426  C     0.90797   0.20545   0.82904   0.00000  Uiso   1.00
C1427  C     0.90981   0.28916   0.84596   0.00000  Uiso   1.00
C1428  C     0.60191   0.21692   0.87537   0.00000  Uiso   1.00
C1429  C     0.61720   0.25020   0.84316   0.00000  Uiso   1.00
C1430  C     0.88513   0.24829   0.83452   0.00000  Uiso   1.00
C1431  C     0.52643   0.24594   0.85273   0.00000  Uiso   1.00
C1432  C     0.97844   0.24394   0.85450   0.00000  Uiso   1.00
N1433  N     0.75000   0.12623   0.83333   0.00000  Uiso   1.00
N1434  N     0.75000   0.37376   0.83333   0.00000  Uiso   1.00
O1435  O     0.68453   0.28974   0.83334   0.00000  Uiso   1.00
O1436  O     0.81547   0.21026   0.83333   0.00000  Uiso   1.00
O1437  O     0.81547   0.28974   0.83333   0.00000  Uiso   1.00
O1438  O     0.68453   0.21026   0.83334   0.00000  Uiso   1.00
O1439  O     0.75000   0.28973   0.76178   0.00000  Uiso   1.00
O1440  O     0.75000   0.21027   0.90489   0.00000  Uiso   1.00
O1441  O     0.75000   0.28973   0.90489   0.00000  Uiso   1.00
O1442  O     0.75000   0.21027   0.76178   0.00000  Uiso   1.00
Zn1443 Zn    0.75000   0.30307   0.83333   0.00000  Uiso   1.00
Zn1444 Zn    0.75000   0.19693   0.83333   0.00000  Uiso   1.00
S1445  S     0.69002   0.12833   0.74217   0.00000  Uiso   1.00
O1446  O     0.71971   0.13039   0.70126   0.00000  Uiso   1.00
O1447  O     0.65036   0.09833   0.72416   0.00000  Uiso   1.00
O1448  O     0.66823   0.18142   0.74844   0.00000  Uiso   1.00
H1449  H     0.65567   0.19096   0.71395   0.00000  Uiso   1.00
S1450  S     0.81833   0.37975   0.91435   0.00000  Uiso   1.00
O1451  O     0.86193   0.40574   0.92261   0.00000  Uiso   1.00
O1452  O     0.79132   0.39222   0.95604   0.00000  Uiso   1.00
O1453  O     0.83086   0.32298   0.91958   0.00000  Uiso   1.00
H1454  H     0.84757   0.31923   0.95373   0.00000  Uiso   1.00
S1455  S     0.80982   0.12736   0.92435   0.00000  Uiso   1.00
O1456  O     0.77977   0.13136   0.96480   0.00000  Uiso   1.00
O1457  O     0.84904   0.09639   0.94328   0.00000  Uiso   1.00
O1458  O     0.83222   0.17952   0.91739   0.00000  Uiso   1.00
H1459  H     0.84490   0.18929   0.95176   0.00000  Uiso   1.00
S1460  S     0.68721   0.38028   0.74843   0.00000  Uiso   1.00
O1461  O     0.64677   0.41061   0.73272   0.00000  Uiso   1.00
O1462  O     0.72005   0.38630   0.71111   0.00000  Uiso   1.00
O1463  O     0.67025   0.32495   0.74538   0.00000  Uiso   1.00
H1464  H     0.65814   0.31976   0.70965   0.00000  Uiso   1.00
O1465  O     0.51126   0.30156   0.78487   0.00000  Uiso   1.00
C1466  C     0.50773   0.28067   0.73669   0.00000  Uiso   1.00
H1467  H     0.51863   0.24346   0.73718   0.00000  Uiso   1.00
H1468  H     0.52878   0.30020   0.71288   0.00000  Uiso   1.00
C1469  C     0.95889   0.28263   0.71268   0.00000  Uiso   1.00
H1470  H     0.93708   0.26570   0.73763   0.00000  Uiso   1.00
H1471  H     0.95515   0.26392   0.67611   0.00000  Uiso   1.00
H1472  H     0.94787   0.31933   0.70621   0.00000  Uiso   1.00
O1473  O     0.97640   0.16081   0.83670   0.00000  Uiso   1.00
C1474  C     0.99496   0.15586   0.79104   0.00000  Uiso   1.00
H1475  H     0.53052   0.16726   0.79642   0.00000  Uiso   1.00
H1476  H     0.97661   0.17606   0.75928   0.00000  Uiso   1.00
C1477  C     0.99438   0.10472   0.77632   0.00000  Uiso   1.00
H1478  H     0.95920   0.09211   0.77016   0.00000  Uiso   1.00
H1479  H     0.50977   0.09989   0.74115   0.00000  Uiso   1.00
H1480  H     0.51386   0.08389   0.80664   0.00000  Uiso   1.00
O1481  O     0.97952   0.32571   0.87632   0.00000  Uiso   1.00
C1482  C     0.97746   0.33307   0.92799   0.00000  Uiso   1.00
H1483  H     0.99679   0.30542   0.95039   0.00000  Uiso   1.00
H1484  H     0.94208   0.33378   0.93673   0.00000  Uiso   1.00
C1485  C     0.99853   0.37960   0.94355   0.00000  Uiso   1.00
H1486  H     0.97994   0.40805   0.92167   0.00000  Uiso   1.00
H1487  H     0.99708   0.38565   0.98425   0.00000  Uiso   1.00
H1488  H     0.53423   0.37974   0.93661   0.00000  Uiso   1.00
O1489  O     0.54130   0.18854   0.91842   0.00000  Uiso   1.00
C1490  C     0.55437   0.20541   0.96764   0.00000  Uiso   1.00
H1491  H     0.53208   0.23482   0.97553   0.00000  Uiso   1.00
H1492  H     0.58993   0.21728   0.97389   0.00000  Uiso   1.00
C1493  C     0.54963   0.16668   0.67162   0.00000  Uiso   1.00
H1494  H     0.56992   0.13592   0.99609   0.00000  Uiso   1.00
H1495  H     0.56191   0.17855   0.71037   0.00000  Uiso   1.00
H1496  H     0.51377   0.15664   0.66966   0.00000  Uiso   1.00
O1497  O     0.60307   0.32342   0.79922   0.00000  Uiso   1.00
C1498  C     0.59208   0.36293   0.82744   0.00000  Uiso   1.00
H1499  H     0.55522   0.36703   0.82783   0.00000  Uiso   1.00
H1500  H     0.60270   0.39432   0.80848   0.00000  Uiso   1.00
C1501  C     0.61622   0.36284   0.88152   0.00000  Uiso   1.00
H1502  H     0.60666   0.39463   0.90129   0.00000  Uiso   1.00
H1503  H     0.60614   0.33259   0.90293   0.00000  Uiso   1.00
H1504  H     0.65323   0.36204   0.88143   0.00000  Uiso   1.00
O1505  O     0.88512   0.16455   0.81673   0.00000  Uiso   1.00
C1506  C     0.87225   0.16290   0.76411   0.00000  Uiso   1.00
H1507  H     0.90212   0.16239   0.74360   0.00000  Uiso   1.00
H1508  H     0.85046   0.19307   0.75058   0.00000  Uiso   1.00
C1509  C     0.84604   0.11864   0.75100   0.00000  Uiso   1.00
H1510  H     0.81465   0.11890   0.76883   0.00000  Uiso   1.00
H1511  H     0.83728   0.11595   0.70971   0.00000  Uiso   1.00
H1512  H     0.86679   0.08793   0.76432   0.00000  Uiso   1.00
O1513  O     0.88893   0.33237   0.84491   0.00000  Uiso   1.00
C1514  C     0.89802   0.35736   0.80197   0.00000  Uiso   1.00
H1515  H     0.93151   0.34943   0.79001   0.00000  Uiso   1.00
H1516  H     0.89860   0.39471   0.81184   0.00000  Uiso   1.00
C1517  C     0.86120   0.34978   0.75785   0.00000  Uiso   1.00
H1518  H     0.82793   0.36017   0.76852   0.00000  Uiso   1.00
H1519  H     0.86804   0.37122   0.72536   0.00000  Uiso   1.00
H1520  H     0.86029   0.31267   0.74629   0.00000  Uiso   1.00
O1521  O     0.63245   0.18836   0.90398   0.00000  Uiso   1.00
C1522  C     0.62752   0.14237   0.88591   0.00000  Uiso   1.00
H1523  H     0.63347   0.13998   0.84581   0.00000  Uiso   1.00
H1524  H     0.59357   0.12851   0.88952   0.00000  Uiso   1.00
C1525  C     0.66204   0.11216   0.91721   0.00000  Uiso   1.00
H1526  H     0.65524   0.11236   0.95689   0.00000  Uiso   1.00
H1527  H     0.65997   0.07621   0.90280   0.00000  Uiso   1.00
H1528  H     0.69633   0.12548   0.91527   0.00000  Uiso   1.00
O1529  O     0.69611   0.02920   0.75793   0.00000  Uiso   1.00
C1530  C     0.72054   0.01306   0.71978   0.00000  Uiso   1.00
H1531  H     0.73968   0.48111   0.73236   0.00000  Uiso   1.00
H1532  H     0.74430   0.03966   0.70912   0.00000  Uiso   1.00
C1533  C     0.68730   0.00097   0.67371   0.00000  Uiso   1.00
H1534  H     0.67715   0.03284   0.98523   0.00000  Uiso   1.00
H1535  H     0.70261   0.47580   0.98271   0.00000  Uiso   1.00
H1536  H     0.65663   0.48507   0.68504   0.00000  Uiso   1.00
O1537  O     0.83221   0.46634   0.85153   0.00000  Uiso   1.00
C1538  C     0.84387   0.47992   0.80433   0.00000  Uiso   1.00
H1539  H     0.82088   0.00749   0.78665   0.00000  Uiso   1.00
H1540  H     0.84304   0.44980   0.77806   0.00000  Uiso   1.00
C1541  C     0.89123   0.49952   0.81175   0.00000  Uiso   1.00
H1542  H     0.91533   0.47375   0.83092   0.00000  Uiso   1.00
H1543  H     0.90177   0.00818   0.77470   0.00000  Uiso   1.00
H1544  H     0.89203   0.03151   0.83518   0.00000  Uiso   1.00
O1545  O     0.80429   0.02810   0.90748   0.00000  Uiso   1.00
C1546  C     0.78030   0.01270   0.94595   0.00000  Uiso   1.00
H1547  H     0.75995   0.48194   0.93298   0.00000  Uiso   1.00
H1548  H     0.75781   0.04044   0.95800   0.00000  Uiso   1.00
C1549  C     0.81409   0.49839   0.99088   0.00000  Uiso   1.00
H1550  H     0.82783   0.02966   0.67827   0.00000  Uiso   1.00
H1551  H     0.79787   0.47607   0.68340   0.00000  Uiso   1.00
H1552  H     0.84234   0.47831   0.97814   0.00000  Uiso   1.00
O1553  O     0.66822   0.46701   0.81323   0.00000  Uiso   1.00
C1554  C     0.65713   0.47938   0.86116   0.00000  Uiso   1.00
H1555  H     0.68046   0.00583   0.87944   0.00000  Uiso   1.00
H1556  H     0.65892   0.44876   0.88645   0.00000  Uiso   1.00
C1557  C     0.60962   0.49948   0.85568   0.00000  Uiso   1.00
H1558  H     0.60754   0.03101   0.83164   0.00000  Uiso   1.00
H1559  H     0.60060   0.00914   0.89329   0.00000  Uiso   1.00
H1560  H     0.58524   0.47346   0.83830   0.00000  Uiso   1.00
C1561  C     0.16422   0.75022   0.83552   0.00000  Uiso   1.00
C1562  C     0.33621   0.74965   0.83245   0.00000  Uiso   1.00
C1563  C     0.22306   0.60174   0.79597   0.00000  Uiso   1.00
C1564  C     0.28617   0.89846   0.85691   0.00000  Uiso   1.00
C1565  C     0.27693   0.60119   0.87045   0.00000  Uiso   1.00
C1566  C     0.21465   0.89870   0.80807   0.00000  Uiso   1.00
C1567  C     0.22406   0.55214   0.79489   0.00000  Uiso   1.00
C1568  C     0.29017   0.94610   0.84486   0.00000  Uiso   1.00
C1569  C     0.27603   0.55160   0.87099   0.00000  Uiso   1.00
C1570  C     0.21050   0.94657   0.81912   0.00000  Uiso   1.00
C1571  C     0.24990   0.74995   0.73963   0.00000  Uiso   1.00
C1572  C     0.25021   0.75005   0.92706   0.00000  Uiso   1.00
C1573  C     0.25009   0.52621   0.83275   0.00000  Uiso   1.00
C1574  C     0.25025   0.97277   0.83221   0.00000  Uiso   1.00
C1575  C     0.25004   0.74992   0.68847   0.00000  Uiso   1.00
C1576  C     0.25014   0.75007   0.97823   0.00000  Uiso   1.00
C1577  C     0.04157   0.77643   0.81800   0.00000  Uiso   1.00
C1578  C     0.45477   0.70349   0.83862   0.00000  Uiso   1.00
C1579  C     0.45576   0.78589   0.86146   0.00000  Uiso   1.00
C1580  C     0.05673   0.71814   0.88398   0.00000  Uiso   1.00
C1581  C     0.08738   0.78358   0.81952   0.00000  Uiso   1.00
C1582  C     0.40797   0.70545   0.82904   0.00000  Uiso   1.00
C1583  C     0.40981   0.78916   0.84596   0.00000  Uiso   1.00
C1584  C     0.10191   0.71692   0.87537   0.00000  Uiso   1.00
C1585  C     0.11720   0.75020   0.84316   0.00000  Uiso   1.00
C1586  C     0.38513   0.74829   0.83452   0.00000  Uiso   1.00
C1587  C     0.02643   0.74594   0.85273   0.00000  Uiso   1.00
C1588  C     0.47844   0.74394   0.85450   0.00000  Uiso   1.00
N1589  N     0.25000   0.62623   0.83333   0.00000  Uiso   1.00
N1590  N     0.25000   0.87376   0.83333   0.00000  Uiso   1.00
O1591  O     0.18453   0.78974   0.83334   0.00000  Uiso   1.00
O1592  O     0.31547   0.71026   0.83333   0.00000  Uiso   1.00
O1593  O     0.31547   0.78974   0.83333   0.00000  Uiso   1.00
O1594  O     0.18453   0.71026   0.83334   0.00000  Uiso   1.00
O1595  O     0.25000   0.78973   0.76178   0.00000  Uiso   1.00
O1596  O     0.25000   0.71027   0.90489   0.00000  Uiso   1.00
O1597  O     0.25000   0.78973   0.90489   0.00000  Uiso   1.00
O1598  O     0.25000   0.71027   0.76178   0.00000  Uiso   1.00
Zn1599 Zn    0.25000   0.80307   0.83333   0.00000  Uiso   1.00
Zn1600 Zn    0.25000   0.69693   0.83333   0.00000  Uiso   1.00
S1601  S     0.19002   0.62833   0.74217   0.00000  Uiso   1.00
O1602  O     0.21971   0.63039   0.70126   0.00000  Uiso   1.00
O1603  O     0.15036   0.59833   0.72416   0.00000  Uiso   1.00
O1604  O     0.16823   0.68142   0.74844   0.00000  Uiso   1.00
H1605  H     0.15567   0.69096   0.71395   0.00000  Uiso   1.00
S1606  S     0.31833   0.87975   0.91435   0.00000  Uiso   1.00
O1607  O     0.36193   0.90574   0.92261   0.00000  Uiso   1.00
O1608  O     0.29132   0.89222   0.95604   0.00000  Uiso   1.00
O1609  O     0.33086   0.82298   0.91958   0.00000  Uiso   1.00
H1610  H     0.34757   0.81923   0.95373   0.00000  Uiso   1.00
S1611  S     0.30982   0.62736   0.92435   0.00000  Uiso   1.00
O1612  O     0.27977   0.63136   0.96480   0.00000  Uiso   1.00
O1613  O     0.34904   0.59639   0.94328   0.00000  Uiso   1.00
O1614  O     0.33222   0.67952   0.91739   0.00000  Uiso   1.00
H1615  H     0.34490   0.68929   0.95176   0.00000  Uiso   1.00
S1616  S     0.18721   0.88028   0.74843   0.00000  Uiso   1.00
O1617  O     0.14677   0.91061   0.73272   0.00000  Uiso   1.00
O1618  O     0.22005   0.88630   0.71111   0.00000  Uiso   1.00
O1619  O     0.17025   0.82495   0.74538   0.00000  Uiso   1.00
H1620  H     0.15814   0.81976   0.70965   0.00000  Uiso   1.00
O1621  O     0.01126   0.80156   0.78487   0.00000  Uiso   1.00
C1622  C     0.00773   0.78067   0.73669   0.00000  Uiso   1.00
H1623  H     0.01863   0.74346   0.73718   0.00000  Uiso   1.00
H1624  H     0.02878   0.80020   0.71288   0.00000  Uiso   1.00
C1625  C     0.45889   0.78263   0.71268   0.00000  Uiso   1.00
H1626  H     0.43708   0.76570   0.73763   0.00000  Uiso   1.00
H1627  H     0.45515   0.76392   0.67611   0.00000  Uiso   1.00
H1628  H     0.44787   0.81933   0.70621   0.00000  Uiso   1.00
O1629  O     0.47640   0.66081   0.83670   0.00000  Uiso   1.00
C1630  C     0.49496   0.65586   0.79104   0.00000  Uiso   1.00
H1631  H     0.03052   0.66726   0.79642   0.00000  Uiso   1.00
H1632  H     0.47661   0.67606   0.75928   0.00000  Uiso   1.00
C1633  C     0.49438   0.60472   0.77632   0.00000  Uiso   1.00
H1634  H     0.45920   0.59211   0.77016   0.00000  Uiso   1.00
H1635  H     0.00977   0.59989   0.74115   0.00000  Uiso   1.00
H1636  H     0.01386   0.58389   0.80664   0.00000  Uiso   1.00
O1637  O     0.47952   0.82571   0.87632   0.00000  Uiso   1.00
C1638  C     0.47746   0.83307   0.92799   0.00000  Uiso   1.00
H1639  H     0.49679   0.80542   0.95039   0.00000  Uiso   1.00
H1640  H     0.44208   0.83378   0.93673   0.00000  Uiso   1.00
C1641  C     0.49853   0.87960   0.94355   0.00000  Uiso   1.00
H1642  H     0.47994   0.90805   0.92167   0.00000  Uiso   1.00
H1643  H     0.49708   0.88565   0.98425   0.00000  Uiso   1.00
H1644  H     0.03423   0.87974   0.93661   0.00000  Uiso   1.00
O1645  O     0.04130   0.68854   0.91842   0.00000  Uiso   1.00
C1646  C     0.05437   0.70541   0.96764   0.00000  Uiso   1.00
H1647  H     0.03208   0.73482   0.97553   0.00000  Uiso   1.00
H1648  H     0.08993   0.71728   0.97389   0.00000  Uiso   1.00
C1649  C     0.04963   0.66668   0.67162   0.00000  Uiso   1.00
H1650  H     0.06992   0.63592   0.99609   0.00000  Uiso   1.00
H1651  H     0.06191   0.67855   0.71037   0.00000  Uiso   1.00
H1652  H     0.01377   0.65664   0.66966   0.00000  Uiso   1.00
O1653  O     0.10307   0.82342   0.79922   0.00000  Uiso   1.00
C1654  C     0.09208   0.86293   0.82744   0.00000  Uiso   1.00
H1655  H     0.05522   0.86703   0.82783   0.00000  Uiso   1.00
H1656  H     0.10270   0.89432   0.80848   0.00000  Uiso   1.00
C1657  C     0.11622   0.86284   0.88152   0.00000  Uiso   1.00
H1658  H     0.10666   0.89463   0.90129   0.00000  Uiso   1.00
H1659  H     0.10614   0.83259   0.90293   0.00000  Uiso   1.00
H1660  H     0.15323   0.86204   0.88143   0.00000  Uiso   1.00
O1661  O     0.38512   0.66455   0.81673   0.00000  Uiso   1.00
C1662  C     0.37225   0.66290   0.76411   0.00000  Uiso   1.00
H1663  H     0.40212   0.66239   0.74360   0.00000  Uiso   1.00
H1664  H     0.35046   0.69307   0.75058   0.00000  Uiso   1.00
C1665  C     0.34604   0.61864   0.75100   0.00000  Uiso   1.00
H1666  H     0.31465   0.61890   0.76883   0.00000  Uiso   1.00
H1667  H     0.33728   0.61595   0.70971   0.00000  Uiso   1.00
H1668  H     0.36679   0.58793   0.76432   0.00000  Uiso   1.00
O1669  O     0.38893   0.83237   0.84491   0.00000  Uiso   1.00
C1670  C     0.39802   0.85736   0.80197   0.00000  Uiso   1.00
H1671  H     0.43151   0.84943   0.79001   0.00000  Uiso   1.00
H1672  H     0.39860   0.89471   0.81184   0.00000  Uiso   1.00
C1673  C     0.36120   0.84978   0.75785   0.00000  Uiso   1.00
H1674  H     0.32793   0.86017   0.76852   0.00000  Uiso   1.00
H1675  H     0.36804   0.87122   0.72536   0.00000  Uiso   1.00
H1676  H     0.36029   0.81267   0.74629   0.00000  Uiso   1.00
O1677  O     0.13245   0.68836   0.90398   0.00000  Uiso   1.00
C1678  C     0.12752   0.64237   0.88591   0.00000  Uiso   1.00
H1679  H     0.13347   0.63998   0.84581   0.00000  Uiso   1.00
H1680  H     0.09357   0.62851   0.88952   0.00000  Uiso   1.00
C1681  C     0.16204   0.61216   0.91721   0.00000  Uiso   1.00
H1682  H     0.15524   0.61236   0.95689   0.00000  Uiso   1.00
H1683  H     0.15997   0.57621   0.90280   0.00000  Uiso   1.00
H1684  H     0.19633   0.62548   0.91527   0.00000  Uiso   1.00
O1685  O     0.19611   0.52920   0.75793   0.00000  Uiso   1.00
C1686  C     0.22054   0.51306   0.71978   0.00000  Uiso   1.00
H1687  H     0.23968   0.98111   0.73236   0.00000  Uiso   1.00
H1688  H     0.24430   0.53966   0.70912   0.00000  Uiso   1.00
C1689  C     0.18730   0.50097   0.67371   0.00000  Uiso   1.00
H1690  H     0.17715   0.53284   0.98523   0.00000  Uiso   1.00
H1691  H     0.20261   0.97580   0.98271   0.00000  Uiso   1.00
H1692  H     0.15663   0.98507   0.68504   0.00000  Uiso   1.00
O1693  O     0.33221   0.96634   0.85153   0.00000  Uiso   1.00
C1694  C     0.34387   0.97992   0.80433   0.00000  Uiso   1.00
H1695  H     0.32088   0.50749   0.78665   0.00000  Uiso   1.00
H1696  H     0.34304   0.94980   0.77806   0.00000  Uiso   1.00
C1697  C     0.39123   0.99952   0.81175   0.00000  Uiso   1.00
H1698  H     0.41533   0.97375   0.83092   0.00000  Uiso   1.00
H1699  H     0.40177   0.50818   0.77470   0.00000  Uiso   1.00
H1700  H     0.39203   0.53151   0.83518   0.00000  Uiso   1.00
O1701  O     0.30429   0.52810   0.90748   0.00000  Uiso   1.00
C1702  C     0.28030   0.51270   0.94595   0.00000  Uiso   1.00
H1703  H     0.25995   0.98194   0.93298   0.00000  Uiso   1.00
H1704  H     0.25781   0.54044   0.95800   0.00000  Uiso   1.00
C1705  C     0.31409   0.99839   0.99088   0.00000  Uiso   1.00
H1706  H     0.32783   0.52966   0.67827   0.00000  Uiso   1.00
H1707  H     0.29787   0.97607   0.68340   0.00000  Uiso   1.00
H1708  H     0.34234   0.97831   0.97814   0.00000  Uiso   1.00
O1709  O     0.16822   0.96701   0.81323   0.00000  Uiso   1.00
C1710  C     0.15713   0.97938   0.86116   0.00000  Uiso   1.00
H1711  H     0.18046   0.50583   0.87944   0.00000  Uiso   1.00
H1712  H     0.15892   0.94876   0.88645   0.00000  Uiso   1.00
C1713  C     0.10962   0.99948   0.85568   0.00000  Uiso   1.00
H1714  H     0.10754   0.53101   0.83164   0.00000  Uiso   1.00
H1715  H     0.10060   0.50914   0.89329   0.00000  Uiso   1.00
H1716  H     0.08524   0.97346   0.83830   0.00000  Uiso   1.00
C1717  C     0.66422   0.75022   0.83552   0.00000  Uiso   1.00
C1718  C     0.83621   0.74965   0.83245   0.00000  Uiso   1.00
C1719  C     0.72306   0.60174   0.79597   0.00000  Uiso   1.00
C1720  C     0.78617   0.89846   0.85691   0.00000  Uiso   1.00
C1721  C     0.77693   0.60119   0.87045   0.00000  Uiso   1.00
C1722  C     0.71465   0.89870   0.80807   0.00000  Uiso   1.00
C1723  C     0.72406   0.55214   0.79489   0.00000  Uiso   1.00
C1724  C     0.79017   0.94610   0.84486   0.00000  Uiso   1.00
C1725  C     0.77603   0.55160   0.87099   0.00000  Uiso   1.00
C1726  C     0.71050   0.94657   0.81912   0.00000  Uiso   1.00
C1727  C     0.74990   0.74995   0.73963   0.00000  Uiso   1.00
C1728  C     0.75021   0.75005   0.92706   0.00000  Uiso   1.00
C1729  C     0.75009   0.52621   0.83275   0.00000  Uiso   1.00
C1730  C     0.75025   0.97277   0.83221   0.00000  Uiso   1.00
C1731  C     0.75004   0.74992   0.68847   0.00000  Uiso   1.00
C1732  C     0.75014   0.75007   0.97823   0.00000  Uiso   1.00
C1733  C     0.54157   0.77643   0.81800   0.00000  Uiso   1.00
C1734  C     0.95477   0.70349   0.83862   0.00000  Uiso   1.00
C1735  C     0.95576   0.78589   0.86146   0.00000  Uiso   1.00
C1736  C     0.55673   0.71814   0.88398   0.00000  Uiso   1.00
C1737  C     0.58738   0.78358   0.81952   0.00000  Uiso   1.00
C1738  C     0.90797   0.70545   0.82904   0.00000  Uiso   1.00
C1739  C     0.90981   0.78916   0.84596   0.00000  Uiso   1.00
C1740  C     0.60191   0.71692   0.87537   0.00000  Uiso   1.00
C1741  C     0.61720   0.75020   0.84316   0.00000  Uiso   1.00
C1742  C     0.88513   0.74829   0.83452   0.00000  Uiso   1.00
C1743  C     0.52643   0.74594   0.85273   0.00000  Uiso   1.00
C1744  C     0.97844   0.74394   0.85450   0.00000  Uiso   1.00
N1745  N     0.75000   0.62623   0.83333   0.00000  Uiso   1.00
N1746  N     0.75000   0.87376   0.83333   0.00000  Uiso   1.00
O1747  O     0.68453   0.78974   0.83334   0.00000  Uiso   1.00
O1748  O     0.81547   0.71026   0.83333   0.00000  Uiso   1.00
O1749  O     0.81547   0.78974   0.83333   0.00000  Uiso   1.00
O1750  O     0.68453   0.71026   0.83334   0.00000  Uiso   1.00
O1751  O     0.75000   0.78973   0.76178   0.00000  Uiso   1.00
O1752  O     0.75000   0.71027   0.90489   0.00000  Uiso   1.00
O1753  O     0.75000   0.78973   0.90489   0.00000  Uiso   1.00
O1754  O     0.75000   0.71027   0.76178   0.00000  Uiso   1.00
Zn1755 Zn    0.75000   0.80307   0.83333   0.00000  Uiso   1.00
Zn1756 Zn    0.75000   0.69693   0.83333   0.00000  Uiso   1.00
S1757  S     0.69002   0.62833   0.74217   0.00000  Uiso   1.00
O1758  O     0.71971   0.63039   0.70126   0.00000  Uiso   1.00
O1759  O     0.65036   0.59833   0.72416   0.00000  Uiso   1.00
O1760  O     0.66823   0.68142   0.74844   0.00000  Uiso   1.00
H1761  H     0.65567   0.69096   0.71395   0.00000  Uiso   1.00
S1762  S     0.81833   0.87975   0.91435   0.00000  Uiso   1.00
O1763  O     0.86193   0.90574   0.92261   0.00000  Uiso   1.00
O1764  O     0.79132   0.89222   0.95604   0.00000  Uiso   1.00
O1765  O     0.83086   0.82298   0.91958   0.00000  Uiso   1.00
H1766  H     0.84757   0.81923   0.95373   0.00000  Uiso   1.00
S1767  S     0.80982   0.62736   0.92435   0.00000  Uiso   1.00
O1768  O     0.77977   0.63136   0.96480   0.00000  Uiso   1.00
O1769  O     0.84904   0.59639   0.94328   0.00000  Uiso   1.00
O1770  O     0.83222   0.67952   0.91739   0.00000  Uiso   1.00
H1771  H     0.84490   0.68929   0.95176   0.00000  Uiso   1.00
S1772  S     0.68721   0.88028   0.74843   0.00000  Uiso   1.00
O1773  O     0.64677   0.91061   0.73272   0.00000  Uiso   1.00
O1774  O     0.72005   0.88630   0.71111   0.00000  Uiso   1.00
O1775  O     0.67025   0.82495   0.74538   0.00000  Uiso   1.00
H1776  H     0.65814   0.81976   0.70965   0.00000  Uiso   1.00
O1777  O     0.51126   0.80156   0.78487   0.00000  Uiso   1.00
C1778  C     0.50773   0.78067   0.73669   0.00000  Uiso   1.00
H1779  H     0.51863   0.74346   0.73718   0.00000  Uiso   1.00
H1780  H     0.52878   0.80020   0.71288   0.00000  Uiso   1.00
C1781  C     0.95889   0.78263   0.71268   0.00000  Uiso   1.00
H1782  H     0.93708   0.76570   0.73763   0.00000  Uiso   1.00
H1783  H     0.95515   0.76392   0.67611   0.00000  Uiso   1.00
H1784  H     0.94787   0.81933   0.70621   0.00000  Uiso   1.00
O1785  O     0.97640   0.66081   0.83670   0.00000  Uiso   1.00
C1786  C     0.99496   0.65586   0.79104   0.00000  Uiso   1.00
H1787  H     0.53052   0.66726   0.79642   0.00000  Uiso   1.00
H1788  H     0.97661   0.67606   0.75928   0.00000  Uiso   1.00
C1789  C     0.99438   0.60472   0.77632   0.00000  Uiso   1.00
H1790  H     0.95920   0.59211   0.77016   0.00000  Uiso   1.00
H1791  H     0.50977   0.59989   0.74115   0.00000  Uiso   1.00
H1792  H     0.51386   0.58389   0.80664   0.00000  Uiso   1.00
O1793  O     0.97952   0.82571   0.87632   0.00000  Uiso   1.00
C1794  C     0.97746   0.83307   0.92799   0.00000  Uiso   1.00
H1795  H     0.99679   0.80542   0.95039   0.00000  Uiso   1.00
H1796  H     0.94208   0.83378   0.93673   0.00000  Uiso   1.00
C1797  C     0.99853   0.87960   0.94355   0.00000  Uiso   1.00
H1798  H     0.97994   0.90805   0.92167   0.00000  Uiso   1.00
H1799  H     0.99708   0.88565   0.98425   0.00000  Uiso   1.00
H1800  H     0.53423   0.87974   0.93661   0.00000  Uiso   1.00
O1801  O     0.54130   0.68854   0.91842   0.00000  Uiso   1.00
C1802  C     0.55437   0.70541   0.96764   0.00000  Uiso   1.00
H1803  H     0.53208   0.73482   0.97553   0.00000  Uiso   1.00
H1804  H     0.58993   0.71728   0.97389   0.00000  Uiso   1.00
C1805  C     0.54963   0.66668   0.67162   0.00000  Uiso   1.00
H1806  H     0.56992   0.63592   0.99609   0.00000  Uiso   1.00
H1807  H     0.56191   0.67855   0.71037   0.00000  Uiso   1.00
H1808  H     0.51377   0.65664   0.66966   0.00000  Uiso   1.00
O1809  O     0.60307   0.82342   0.79922   0.00000  Uiso   1.00
C1810  C     0.59208   0.86293   0.82744   0.00000  Uiso   1.00
H1811  H     0.55522   0.86703   0.82783   0.00000  Uiso   1.00
H1812  H     0.60270   0.89432   0.80848   0.00000  Uiso   1.00
C1813  C     0.61622   0.86284   0.88152   0.00000  Uiso   1.00
H1814  H     0.60666   0.89463   0.90129   0.00000  Uiso   1.00
H1815  H     0.60614   0.83259   0.90293   0.00000  Uiso   1.00
H1816  H     0.65323   0.86204   0.88143   0.00000  Uiso   1.00
O1817  O     0.88512   0.66455   0.81673   0.00000  Uiso   1.00
C1818  C     0.87225   0.66290   0.76411   0.00000  Uiso   1.00
H1819  H     0.90212   0.66239   0.74360   0.00000  Uiso   1.00
H1820  H     0.85046   0.69307   0.75058   0.00000  Uiso   1.00
C1821  C     0.84604   0.61864   0.75100   0.00000  Uiso   1.00
H1822  H     0.81465   0.61890   0.76883   0.00000  Uiso   1.00
H1823  H     0.83728   0.61595   0.70971   0.00000  Uiso   1.00
H1824  H     0.86679   0.58793   0.76432   0.00000  Uiso   1.00
O1825  O     0.88893   0.83237   0.84491   0.00000  Uiso   1.00
C1826  C     0.89802   0.85736   0.80197   0.00000  Uiso   1.00
H1827  H     0.93151   0.84943   0.79001   0.00000  Uiso   1.00
H1828  H     0.89860   0.89471   0.81184   0.00000  Uiso   1.00
C1829  C     0.86120   0.84978   0.75785   0.00000  Uiso   1.00
H1830  H     0.82793   0.86017   0.76852   0.00000  Uiso   1.00
H1831  H     0.86804   0.87122   0.72536   0.00000  Uiso   1.00
H1832  H     0.86029   0.81267   0.74629   0.00000  Uiso   1.00
O1833  O     0.63245   0.68836   0.90398   0.00000  Uiso   1.00
C1834  C     0.62752   0.64237   0.88591   0.00000  Uiso   1.00
H1835  H     0.63347   0.63998   0.84581   0.00000  Uiso   1.00
H1836  H     0.59357   0.62851   0.88952   0.00000  Uiso   1.00
C1837  C     0.66204   0.61216   0.91721   0.00000  Uiso   1.00
H1838  H     0.65524   0.61236   0.95689   0.00000  Uiso   1.00
H1839  H     0.65997   0.57621   0.90280   0.00000  Uiso   1.00
H1840  H     0.69633   0.62548   0.91527   0.00000  Uiso   1.00
O1841  O     0.69611   0.52920   0.75793   0.00000  Uiso   1.00
C1842  C     0.72054   0.51306   0.71978   0.00000  Uiso   1.00
H1843  H     0.73968   0.98111   0.73236   0.00000  Uiso   1.00
H1844  H     0.74430   0.53966   0.70912   0.00000  Uiso   1.00
C1845  C     0.68730   0.50097   0.67371   0.00000  Uiso   1.00
H1846  H     0.67715   0.53284   0.98523   0.00000  Uiso   1.00
H1847  H     0.70261   0.97580   0.98271   0.00000  Uiso   1.00
H1848  H     0.65663   0.98507   0.68504   0.00000  Uiso   1.00
O1849  O     0.83221   0.96634   0.85153   0.00000  Uiso   1.00
C1850  C     0.84387   0.97992   0.80433   0.00000  Uiso   1.00
H1851  H     0.82088   0.50749   0.78665   0.00000  Uiso   1.00
H1852  H     0.84304   0.94980   0.77806   0.00000  Uiso   1.00
C1853  C     0.89123   0.99952   0.81175   0.00000  Uiso   1.00
H1854  H     0.91533   0.97375   0.83092   0.00000  Uiso   1.00
H1855  H     0.90177   0.50818   0.77470   0.00000  Uiso   1.00
H1856  H     0.89203   0.53151   0.83518   0.00000  Uiso   1.00
O1857  O     0.80429   0.52810   0.90748   0.00000  Uiso   1.00
C1858  C     0.78030   0.51270   0.94595   0.00000  Uiso   1.00
H1859  H     0.75995   0.98194   0.93298   0.00000  Uiso   1.00
H1860  H     0.75781   0.54044   0.95800   0.00000  Uiso   1.00
C1861  C     0.81409   0.99839   0.99088   0.00000  Uiso   1.00
H1862  H     0.82783   0.52966   0.67827   0.00000  Uiso   1.00
H1863  H     0.79787   0.97607   0.68340   0.00000  Uiso   1.00
H1864  H     0.84234   0.97831   0.97814   0.00000  Uiso   1.00
O1865  O     0.66822   0.96701   0.81323   0.00000  Uiso   1.00
C1866  C     0.65713   0.97938   0.86116   0.00000  Uiso   1.00
H1867  H     0.68046   0.50583   0.87944   0.00000  Uiso   1.00
H1868  H     0.65892   0.94876   0.88645   0.00000  Uiso   1.00
C1869  C     0.60962   0.99948   0.85568   0.00000  Uiso   1.00
H1870  H     0.60754   0.53101   0.83164   0.00000  Uiso   1.00
H1871  H     0.60060   0.50914   0.89329   0.00000  Uiso   1.00
H1872  H     0.58524   0.97346   0.83830   0.00000  Uiso   1.00
loop_
_geom_bond_atom_site_label_1
_geom_bond_atom_site_label_2
_geom_bond_distance
_geom_bond_site_symmetry_2
_ccdc_geom_bond_type
C1     O31     1.300   .     A
C1     C25     1.450   .     S
C1     O34     1.300   .     A
C2     O32     1.300   .     A
C2     C26     1.460   .     S
C2     O33     1.306   .     A
C3     C7      1.427   .     A
C3     N29     1.396   .     A
C3     S41     1.808   .     S
C4     C8      1.419   .     A
C4     S46     1.789   .     S
C4     N30     1.384   .     A
C5     N29     1.395   .     A
C5     C9      1.427   .     A
C5     S51     1.807   .     S
C6     N30     1.378   .     A
C6     S56     1.782   .     S
C6     C10     1.415   .     A
C7     O125    1.382   .     S
C7     C13     1.408   .     A
C8     C14     1.419   .     A
C8     O133    1.384   .     S
C9     C13     1.410   .     A
C9     O141    1.382   .     S
C10    O149    1.382   .     S
C10    C14     1.421   .     A
C11    C15     1.372   .     S
C11    O38     1.288   .     A
C11    O35     1.287   .     A
C12    O37     1.288   .     A
C12    C16     1.372   .     S
C12    O36     1.287   .     A
C13    C326    1.537   1_545 S
C14    C325    1.537   .     S
C15    C1264   1.169   1_554 S
C16    C639    1.169   .     S
C17    O61     1.385   .     S
C17    C27     1.402   .     A
C17    C21     1.386   .     A
C18    O69     1.386   .     S
C18    C28     1.405   .     A
C18    C22     1.393   .     A
C19    C23     1.389   .     A
C19    O77     1.385   .     S
C19    C28     1.403   .     A
C20    C24     1.403   .     A
C20    O85     1.384   .     S
C20    C27     1.400   .     A
C21    C25     1.401   .     A
C21    O93     1.383   .     S
C22    O101    1.385   .     S
C22    C26     1.420   .     A
C23    C26     1.407   .     A
C23    O109    1.384   .     S
C24    O117    1.381   .     S
C24    C25     1.410   .     A
C27    C184    1.447   1_455 S
C28    C183    1.447   .     S
N29    Zn40    2.033   .     S
N30    Zn39    2.033   .     S
O31    Zn39    2.003   .     S
O32    Zn40    2.003   .     S
O33    Zn39    1.996   .     S
O34    Zn40    1.996   .     S
O35    Zn39    1.955   .     S
O36    Zn40    1.955   .     S
O37    Zn39    1.958   .     S
O38    Zn40    1.958   .     S
S41    O42     1.501   .     D
S41    O43     1.504   .     D
S41    O44     1.671   .     S
O44    H45     0.991   .     S
S46    O49     1.674   .     S
S46    O48     1.503   .     D
S46    O47     1.503   .     D
O49    H50     0.991   .     S
S51    O52     1.500   .     D
S51    O53     1.503   .     D
S51    O54     1.671   .     S
O54    H55     0.991   .     S
S56    O57     1.502   .     D
S56    O59     1.674   .     S
S56    O58     1.503   .     D
O59    H60     0.991   .     S
O61    C62     1.414   .     S
C62    H64     1.111   .     S
C62    H63     1.115   .     S
C62    C221    1.522   1_455 S
C65    H67     1.110   .     S
C65    H68     1.110   .     S
C65    H66     1.111   .     S
C65    C218    1.522   .     S
O69    C70     1.415   .     S
C70    C73     1.521   .     S
C70    H72     1.114   .     S
C70    H227    1.110   .     S
H71    C226    1.110   1_455 S
C73    H74     1.111   .     S
C73    H231    1.110   .     S
C73    H232    1.111   .     S
H75    C229    1.110   1_455 S
H76    C229    1.111   1_455 S
O77    C78     1.410   .     S
C78    H80     1.115   .     S
C78    H79     1.110   .     S
C78    C81     1.520   .     S
C81    H82     1.111   .     S
C81    H83     1.111   .     S
C81    H240    1.110   .     S
H84    C237    1.110   1_455 S
O85    C86     1.413   .     S
C86    H87     1.109   .     S
C86    H88     1.114   .     S
C86    C713    1.520   .     S
C89    H91     1.110   .     S
C89    H92     1.110   .     S
C89    C1334   1.520   1_554 S
C89    H1338   1.111   1_554 S
H90    C713    1.111   .     S
O93    C94     1.422   .     S
C94    H96     1.107   .     S
C94    H95     1.112   .     S
C94    C97     1.534   .     S
C97    H100    1.110   .     S
C97    H98     1.109   .     S
C97    H99     1.110   .     S
O101   C102    1.414   .     S
C102   C105    1.519   .     S
C102   H103    1.110   .     S
C102   H104    1.114   .     S
C105   H107    1.107   .     S
C105   H108    1.108   .     S
C105   H106    1.109   .     S
O109   C110    1.417   .     S
C110   H111    1.114   .     S
C110   C113    1.526   .     S
C110   H112    1.105   .     S
C113   H114    1.110   .     S
C113   H116    1.110   .     S
C113   H115    1.111   .     S
O117   C118    1.410   .     S
C118   H119    1.114   .     S
C118   C121    1.514   .     S
C118   H120    1.112   .     S
C121   H124    1.108   .     S
C121   H122    1.109   .     S
C121   H123    1.102   .     S
O125   C126    1.408   .     S
C126   H128    1.113   .     S
C126   C129    1.525   .     S
C126   H439    1.109   1_545 S
H127   C438    1.109   .     S
C129   H1378   1.108   1_554 S
C129   H1691   1.108   1_544 S
C129   H444    1.108   1_545 S
H130   C753    1.108   .     S
H131   C1065   1.108   .     S
H132   C441    1.108   .     S
O133   C134    1.413   .     S
C134   C137    1.521   .     S
C134   H136    1.113   .     S
C134   H447    1.111   .     S
H135   C446    1.111   1_545 S
C137   H138    1.110   .     S
C137   H451    1.111   .     S
C137   H452    1.111   .     S
H139   C449    1.111   1_545 S
H140   C449    1.111   1_545 S
O141   C142    1.407   .     S
C142   H144    1.113   .     S
C142   H455    1.109   1_545 S
C142   C457    1.525   1_545 S
H143   C454    1.109   .     S
C145   H148    1.109   .     S
C145   C454    1.525   .     S
C145   H1082   1.110   .     S
C145   H771    1.107   .     S
H146   C1705   1.110   1_544 S
H147   C1393   1.107   1_554 S
O149   C150    1.412   .     S
C150   C153    1.521   .     S
C150   H152    1.110   .     S
C150   H463    1.108   .     S
H151   C462    1.108   1_545 S
C153   H156    1.110   .     S
C153   H466    1.111   .     S
C153   H467    1.111   .     S
H154   C465    1.111   1_545 S
H155   C465    1.111   1_545 S
C157   O187    1.300   .     A
C157   C181    1.450   .     S
C157   O190    1.300   .     A
C158   O188    1.300   .     A
C158   C182    1.460   .     S
C158   O189    1.306   .     A
C159   C163    1.427   .     A
C159   N185    1.396   .     A
C159   S197    1.808   .     S
C160   C164    1.419   .     A
C160   S202    1.789   .     S
C160   N186    1.384   .     A
C161   N185    1.395   .     A
C161   C165    1.427   .     A
C161   S207    1.807   .     S
C162   N186    1.378   .     A
C162   S212    1.782   .     S
C162   C166    1.415   .     A
C163   O281    1.382   .     S
C163   C169    1.408   .     A
C164   C170    1.419   .     A
C164   O289    1.384   .     S
C165   C169    1.410   .     A
C165   O297    1.382   .     S
C166   O305    1.382   .     S
C166   C170    1.421   .     A
C167   C171    1.372   .     S
C167   O194    1.288   .     A
C167   O191    1.287   .     A
C168   O193    1.288   .     A
C168   C172    1.372   .     S
C168   O192    1.287   .     A
C169   C482    1.537   1_545 S
C170   C481    1.537   .     S
C171   C1420   1.169   1_554 S
C172   C795    1.169   .     S
C173   O217    1.385   .     S
C173   C183    1.402   .     A
C173   C177    1.386   .     A
C174   O225    1.386   .     S
C174   C184    1.405   .     A
C174   C178    1.393   .     A
C175   C179    1.389   .     A
C175   O233    1.385   .     S
C175   C184    1.403   .     A
C176   C180    1.403   .     A
C176   O241    1.384   .     S
C176   C183    1.400   .     A
C177   C181    1.401   .     A
C177   O249    1.383   .     S
C178   O257    1.385   .     S
C178   C182    1.420   .     A
C179   C182    1.407   .     A
C179   O265    1.384   .     S
C180   O273    1.381   .     S
C180   C181    1.410   .     A
C184   C27     1.447   1_655 S
N185   Zn196   2.033   .     S
N186   Zn195   2.033   .     S
O187   Zn195   2.003   .     S
O188   Zn196   2.003   .     S
O189   Zn195   1.996   .     S
O190   Zn196   1.996   .     S
O191   Zn195   1.955   .     S
O192   Zn196   1.955   .     S
O193   Zn195   1.958   .     S
O194   Zn196   1.958   .     S
S197   O198    1.501   .     D
S197   O199    1.504   .     D
S197   O200    1.671   .     S
O200   H201    0.991   .     S
S202   O205    1.674   .     S
S202   O204    1.503   .     D
S202   O203    1.503   .     D
O205   H206    0.991   .     S
S207   O208    1.500   .     D
S207   O209    1.503   .     D
S207   O210    1.671   .     S
O210   H211    0.991   .     S
S212   O213    1.502   .     D
S212   O215    1.674   .     S
S212   O214    1.503   .     D
O215   H216    0.991   .     S
O217   C218    1.414   .     S
C218   H220    1.111   .     S
C218   H219    1.115   .     S
C221   H223    1.110   .     S
C221   H224    1.110   .     S
C221   H222    1.111   .     S
C221   C62     1.522   1_655 S
O225   C226    1.415   .     S
C226   C229    1.521   .     S
C226   H228    1.114   .     S
C226   H71     1.110   1_655 S
C229   H230    1.111   .     S
C229   H75     1.110   1_655 S
C229   H76     1.111   1_655 S
O233   C234    1.410   .     S
C234   H236    1.115   .     S
C234   H235    1.110   .     S
C234   C237    1.520   .     S
C237   H238    1.111   .     S
C237   H239    1.111   .     S
C237   H84     1.110   1_655 S
O241   C242    1.413   .     S
C242   H243    1.109   .     S
C242   H244    1.114   .     S
C242   C869    1.520   .     S
C245   H247    1.110   .     S
C245   H248    1.110   .     S
C245   C1490   1.520   1_554 S
C245   H1494   1.111   1_554 S
H246   C869    1.111   .     S
O249   C250    1.422   .     S
C250   H252    1.107   .     S
C250   H251    1.112   .     S
C250   C253    1.534   .     S
C253   H256    1.110   .     S
C253   H254    1.109   .     S
C253   H255    1.110   .     S
O257   C258    1.414   .     S
C258   C261    1.519   .     S
C258   H259    1.110   .     S
C258   H260    1.114   .     S
C261   H263    1.107   .     S
C261   H264    1.108   .     S
C261   H262    1.109   .     S
O265   C266    1.417   .     S
C266   H267    1.114   .     S
C266   C269    1.526   .     S
C266   H268    1.105   .     S
C269   H270    1.110   .     S
C269   H272    1.110   .     S
C269   H271    1.111   .     S
O273   C274    1.410   .     S
C274   H275    1.114   .     S
C274   C277    1.514   .     S
C274   H276    1.112   .     S
C277   H280    1.108   .     S
C277   H278    1.109   .     S
C277   H279    1.102   .     S
O281   C282    1.408   .     S
C282   H284    1.113   .     S
C282   C285    1.525   .     S
C282   H595    1.109   1_545 S
H283   C594    1.109   .     S
C285   H1534   1.108   1_554 S
C285   H1847   1.108   1_544 S
C285   H600    1.108   1_545 S
H286   C909    1.108   .     S
H287   C1221   1.108   .     S
H288   C597    1.108   .     S
O289   C290    1.413   .     S
C290   C293    1.521   .     S
C290   H292    1.113   .     S
C290   H603    1.111   .     S
H291   C602    1.111   1_545 S
C293   H294    1.110   .     S
C293   H607    1.111   .     S
C293   H608    1.111   .     S
H295   C605    1.111   1_545 S
H296   C605    1.111   1_545 S
O297   C298    1.407   .     S
C298   H300    1.113   .     S
C298   H611    1.109   1_545 S
C298   C613    1.525   1_545 S
H299   C610    1.109   .     S
C301   H304    1.109   .     S
C301   C610    1.525   .     S
C301   H1238   1.110   .     S
C301   H927    1.107   .     S
H302   C1861   1.110   1_544 S
H303   C1549   1.107   1_554 S
O305   C306    1.412   .     S
C306   C309    1.521   .     S
C306   H308    1.110   .     S
C306   H619    1.108   .     S
H307   C618    1.108   1_545 S
C309   H312    1.110   .     S
C309   H622    1.111   .     S
C309   H623    1.111   .     S
H310   C621    1.111   1_545 S
H311   C621    1.111   1_545 S
C313   O343    1.300   .     A
C313   C337    1.450   .     S
C313   O346    1.300   .     A
C314   O344    1.300   .     A
C314   C338    1.460   .     S
C314   O345    1.306   .     A
C315   C319    1.427   .     A
C315   N341    1.396   .     A
C315   S353    1.808   .     S
C316   C320    1.419   .     A
C316   S358    1.789   .     S
C316   N342    1.384   .     A
C317   N341    1.395   .     A
C317   C321    1.427   .     A
C317   S363    1.807   .     S
C318   N342    1.378   .     A
C318   S368    1.782   .     S
C318   C322    1.415   .     A
C319   O437    1.382   .     S
C319   C325    1.408   .     A
C320   C326    1.419   .     A
C320   O445    1.384   .     S
C321   C325    1.410   .     A
C321   O453    1.382   .     S
C322   O461    1.382   .     S
C322   C326    1.421   .     A
C323   C327    1.372   .     S
C323   O350    1.288   .     A
C323   O347    1.287   .     A
C324   O349    1.288   .     A
C324   C328    1.372   .     S
C324   O348    1.287   .     A
C326   C13     1.537   1_565 S
C327   C1576   1.169   1_554 S
C328   C951    1.169   .     S
C329   O373    1.385   .     S
C329   C339    1.402   .     A
C329   C333    1.386   .     A
C330   O381    1.386   .     S
C330   C340    1.405   .     A
C330   C334    1.393   .     A
C331   C335    1.389   .     A
C331   O389    1.385   .     S
C331   C340    1.403   .     A
C332   C336    1.403   .     A
C332   O397    1.384   .     S
C332   C339    1.400   .     A
C333   C337    1.401   .     A
C333   O405    1.383   .     S
C334   O413    1.385   .     S
C334   C338    1.420   .     A
C335   C338    1.407   .     A
C335   O421    1.384   .     S
C336   O429    1.381   .     S
C336   C337    1.410   .     A
C339   C496    1.447   1_455 S
C340   C495    1.447   .     S
N341   Zn352   2.033   .     S
N342   Zn351   2.033   .     S
O343   Zn351   2.003   .     S
O344   Zn352   2.003   .     S
O345   Zn351   1.996   .     S
O346   Zn352   1.996   .     S
O347   Zn351   1.955   .     S
O348   Zn352   1.955   .     S
O349   Zn351   1.958   .     S
O350   Zn352   1.958   .     S
S353   O354    1.501   .     D
S353   O355    1.504   .     D
S353   O356    1.671   .     S
O356   H357    0.991   .     S
S358   O361    1.674   .     S
S358   O360    1.503   .     D
S358   O359    1.503   .     D
O361   H362    0.991   .     S
S363   O364    1.500   .     D
S363   O365    1.503   .     D
S363   O366    1.671   .     S
O366   H367    0.991   .     S
S368   O369    1.502   .     D
S368   O371    1.674   .     S
S368   O370    1.503   .     D
O371   H372    0.991   .     S
O373   C374    1.414   .     S
C374   H376    1.111   .     S
C374   H375    1.115   .     S
C374   C533    1.522   1_455 S
C377   H379    1.110   .     S
C377   H380    1.110   .     S
C377   H378    1.111   .     S
C377   C530    1.522   .     S
O381   C382    1.415   .     S
C382   C385    1.521   .     S
C382   H384    1.114   .     S
C382   H539    1.110   .     S
H383   C538    1.110   1_455 S
C385   H386    1.111   .     S
C385   H543    1.110   .     S
C385   H544    1.111   .     S
H387   C541    1.110   1_455 S
H388   C541    1.111   1_455 S
O389   C390    1.410   .     S
C390   H392    1.115   .     S
C390   H391    1.110   .     S
C390   C393    1.520   .     S
C393   H394    1.111   .     S
C393   H395    1.111   .     S
C393   H552    1.110   .     S
H396   C549    1.110   1_455 S
O397   C398    1.413   .     S
C398   H399    1.109   .     S
C398   H400    1.114   .     S
C398   C1025   1.520   .     S
C401   H403    1.110   .     S
C401   H404    1.110   .     S
C401   C1646   1.520   1_554 S
C401   H1650   1.111   1_554 S
H402   C1025   1.111   .     S
O405   C406    1.422   .     S
C406   H408    1.107   .     S
C406   H407    1.112   .     S
C406   C409    1.534   .     S
C409   H412    1.110   .     S
C409   H410    1.109   .     S
C409   H411    1.110   .     S
O413   C414    1.414   .     S
C414   C417    1.519   .     S
C414   H415    1.110   .     S
C414   H416    1.114   .     S
C417   H419    1.107   .     S
C417   H420    1.108   .     S
C417   H418    1.109   .     S
O421   C422    1.417   .     S
C422   H423    1.114   .     S
C422   C425    1.526   .     S
C422   H424    1.105   .     S
C425   H426    1.110   .     S
C425   H428    1.110   .     S
C425   H427    1.111   .     S
O429   C430    1.410   .     S
C430   H431    1.114   .     S
C430   C433    1.514   .     S
C430   H432    1.112   .     S
C433   H436    1.108   .     S
C433   H434    1.109   .     S
C433   H435    1.102   .     S
O437   C438    1.408   .     S
C438   H440    1.113   .     S
C438   C441    1.525   .     S
H439   C126    1.109   1_565 S
C441   H1690   1.108   1_554 S
C441   H1379   1.108   1_554 S
H442   C1065   1.108   .     S
H443   C753    1.108   1_565 S
H444   C129    1.108   1_565 S
O445   C446    1.413   .     S
C446   C449    1.521   .     S
C446   H448    1.113   .     S
C446   H135    1.111   1_565 S
C449   H450    1.110   .     S
C449   H139    1.111   1_565 S
C449   H140    1.111   1_565 S
O453   C454    1.407   .     S
C454   H456    1.113   .     S
H455   C142    1.109   1_565 S
C457   H460    1.109   .     S
C457   C142    1.525   1_565 S
C457   H770    1.110   1_565 S
C457   H1083   1.107   .     S
H458   C1393   1.110   1_554 S
H459   C1705   1.107   1_554 S
O461   C462    1.412   .     S
C462   C465    1.521   .     S
C462   H464    1.110   .     S
C462   H151    1.108   1_565 S
C465   H468    1.110   .     S
C465   H154    1.111   1_565 S
C465   H155    1.111   1_565 S
C469   O499    1.300   .     A
C469   C493    1.450   .     S
C469   O502    1.300   .     A
C470   O500    1.300   .     A
C470   C494    1.460   .     S
C470   O501    1.306   .     A
C471   C475    1.427   .     A
C471   N497    1.396   .     A
C471   S509    1.808   .     S
C472   C476    1.419   .     A
C472   S514    1.789   .     S
C472   N498    1.384   .     A
C473   N497    1.395   .     A
C473   C477    1.427   .     A
C473   S519    1.807   .     S
C474   N498    1.378   .     A
C474   S524    1.782   .     S
C474   C478    1.415   .     A
C475   O593    1.382   .     S
C475   C481    1.408   .     A
C476   C482    1.419   .     A
C476   O601    1.384   .     S
C477   C481    1.410   .     A
C477   O609    1.382   .     S
C478   O617    1.382   .     S
C478   C482    1.421   .     A
C479   C483    1.372   .     S
C479   O506    1.288   .     A
C479   O503    1.287   .     A
C480   O505    1.288   .     A
C480   C484    1.372   .     S
C480   O504    1.287   .     A
C482   C169    1.537   1_565 S
C483   C1732   1.169   1_554 S
C484   C1107   1.169   .     S
C485   O529    1.385   .     S
C485   C495    1.402   .     A
C485   C489    1.386   .     A
C486   O537    1.386   .     S
C486   C496    1.405   .     A
C486   C490    1.393   .     A
C487   C491    1.389   .     A
C487   O545    1.385   .     S
C487   C496    1.403   .     A
C488   C492    1.403   .     A
C488   O553    1.384   .     S
C488   C495    1.400   .     A
C489   C493    1.401   .     A
C489   O561    1.383   .     S
C490   O569    1.385   .     S
C490   C494    1.420   .     A
C491   C494    1.407   .     A
C491   O577    1.384   .     S
C492   O585    1.381   .     S
C492   C493    1.410   .     A
C496   C339    1.447   1_655 S
N497   Zn508   2.033   .     S
N498   Zn507   2.033   .     S
O499   Zn507   2.003   .     S
O500   Zn508   2.003   .     S
O501   Zn507   1.996   .     S
O502   Zn508   1.996   .     S
O503   Zn507   1.955   .     S
O504   Zn508   1.955   .     S
O505   Zn507   1.958   .     S
O506   Zn508   1.958   .     S
S509   O510    1.501   .     D
S509   O511    1.504   .     D
S509   O512    1.671   .     S
O512   H513    0.991   .     S
S514   O517    1.674   .     S
S514   O516    1.503   .     D
S514   O515    1.503   .     D
O517   H518    0.991   .     S
S519   O520    1.500   .     D
S519   O521    1.503   .     D
S519   O522    1.671   .     S
O522   H523    0.991   .     S
S524   O525    1.502   .     D
S524   O527    1.674   .     S
S524   O526    1.503   .     D
O527   H528    0.991   .     S
O529   C530    1.414   .     S
C530   H532    1.111   .     S
C530   H531    1.115   .     S
C533   H535    1.110   .     S
C533   H536    1.110   .     S
C533   H534    1.111   .     S
C533   C374    1.522   1_655 S
O537   C538    1.415   .     S
C538   C541    1.521   .     S
C538   H540    1.114   .     S
C538   H383    1.110   1_655 S
C541   H542    1.111   .     S
C541   H387    1.110   1_655 S
C541   H388    1.111   1_655 S
O545   C546    1.410   .     S
C546   H548    1.115   .     S
C546   H547    1.110   .     S
C546   C549    1.520   .     S
C549   H550    1.111   .     S
C549   H551    1.111   .     S
C549   H396    1.110   1_655 S
O553   C554    1.413   .     S
C554   H555    1.109   .     S
C554   H556    1.114   .     S
C554   C1181   1.520   .     S
C557   H559    1.110   .     S
C557   H560    1.110   .     S
C557   C1802   1.520   1_554 S
C557   H1806   1.111   1_554 S
H558   C1181   1.111   .     S
O561   C562    1.422   .     S
C562   H564    1.107   .     S
C562   H563    1.112   .     S
C562   C565    1.534   .     S
C565   H568    1.110   .     S
C565   H566    1.109   .     S
C565   H567    1.110   .     S
O569   C570    1.414   .     S
C570   C573    1.519   .     S
C570   H571    1.110   .     S
C570   H572    1.114   .     S
C573   H575    1.107   .     S
C573   H576    1.108   .     S
C573   H574    1.109   .     S
O577   C578    1.417   .     S
C578   H579    1.114   .     S
C578   C581    1.526   .     S
C578   H580    1.105   .     S
C581   H582    1.110   .     S
C581   H584    1.110   .     S
C581   H583    1.111   .     S
O585   C586    1.410   .     S
C586   H587    1.114   .     S
C586   C589    1.514   .     S
C586   H588    1.112   .     S
C589   H592    1.108   .     S
C589   H590    1.109   .     S
C589   H591    1.102   .     S
O593   C594    1.408   .     S
C594   H596    1.113   .     S
C594   C597    1.525   .     S
H595   C282    1.109   1_565 S
C597   H1846   1.108   1_554 S
C597   H1535   1.108   1_554 S
H598   C1221   1.108   .     S
H599   C909    1.108   1_565 S
H600   C285    1.108   1_565 S
O601   C602    1.413   .     S
C602   C605    1.521   .     S
C602   H604    1.113   .     S
C602   H291    1.111   1_565 S
C605   H606    1.110   .     S
C605   H295    1.111   1_565 S
C605   H296    1.111   1_565 S
O609   C610    1.407   .     S
C610   H612    1.113   .     S
H611   C298    1.109   1_565 S
C613   H616    1.109   .     S
C613   C298    1.525   1_565 S
C613   H926    1.110   1_565 S
C613   H1239   1.107   .     S
H614   C1549   1.110   1_554 S
H615   C1861   1.107   1_554 S
O617   C618    1.412   .     S
C618   C621    1.521   .     S
C618   H620    1.110   .     S
C618   H307    1.108   1_565 S
C621   H624    1.110   .     S
C621   H310    1.111   1_565 S
C621   H311    1.111   1_565 S
C625   O655    1.300   .     A
C625   C649    1.450   .     S
C625   O658    1.300   .     A
C626   O656    1.300   .     A
C626   C650    1.460   .     S
C626   O657    1.306   .     A
C627   C631    1.427   .     A
C627   N653    1.396   .     A
C627   S665    1.808   .     S
C628   C632    1.419   .     A
C628   S670    1.789   .     S
C628   N654    1.384   .     A
C629   N653    1.395   .     A
C629   C633    1.427   .     A
C629   S675    1.807   .     S
C630   N654    1.378   .     A
C630   S680    1.782   .     S
C630   C634    1.415   .     A
C631   O749    1.382   .     S
C631   C637    1.408   .     A
C632   C638    1.419   .     A
C632   O757    1.384   .     S
C633   C637    1.410   .     A
C633   O765    1.382   .     S
C634   O773    1.382   .     S
C634   C638    1.421   .     A
C635   C639    1.372   .     S
C635   O662    1.288   .     A
C635   O659    1.287   .     A
C636   O661    1.288   .     A
C636   C640    1.372   .     S
C636   O660    1.287   .     A
C637   C950    1.537   1_545 S
C638   C949    1.537   .     S
C640   C1263   1.169   .     S
C641   O685    1.385   .     S
C641   C651    1.402   .     A
C641   C645    1.386   .     A
C642   O693    1.386   .     S
C642   C652    1.405   .     A
C642   C646    1.393   .     A
C643   C647    1.389   .     A
C643   O701    1.385   .     S
C643   C652    1.403   .     A
C644   C648    1.403   .     A
C644   O709    1.384   .     S
C644   C651    1.400   .     A
C645   C649    1.401   .     A
C645   O717    1.383   .     S
C646   O725    1.385   .     S
C646   C650    1.420   .     A
C647   C650    1.407   .     A
C647   O733    1.384   .     S
C648   O741    1.381   .     S
C648   C649    1.410   .     A
C651   C808    1.447   1_455 S
C652   C807    1.447   .     S
N653   Zn664   2.033   .     S
N654   Zn663   2.033   .     S
O655   Zn663   2.003   .     S
O656   Zn664   2.003   .     S
O657   Zn663   1.996   .     S
O658   Zn664   1.996   .     S
O659   Zn663   1.955   .     S
O660   Zn664   1.955   .     S
O661   Zn663   1.958   .     S
O662   Zn664   1.958   .     S
S665   O666    1.501   .     D
S665   O667    1.504   .     D
S665   O668    1.671   .     S
O668   H669    0.991   .     S
S670   O673    1.674   .     S
S670   O672    1.503   .     D
S670   O671    1.503   .     D
O673   H674    0.991   .     S
S675   O676    1.500   .     D
S675   O677    1.503   .     D
S675   O678    1.671   .     S
O678   H679    0.991   .     S
S680   O681    1.502   .     D
S680   O683    1.674   .     S
S680   O682    1.503   .     D
O683   H684    0.991   .     S
O685   C686    1.414   .     S
C686   H688    1.111   .     S
C686   H687    1.115   .     S
C686   C845    1.522   1_455 S
C689   H691    1.110   .     S
C689   H692    1.110   .     S
C689   H690    1.111   .     S
C689   C842    1.522   .     S
O693   C694    1.415   .     S
C694   C697    1.521   .     S
C694   H696    1.114   .     S
C694   H851    1.110   .     S
H695   C850    1.110   1_455 S
C697   H698    1.111   .     S
C697   H855    1.110   .     S
C697   H856    1.111   .     S
H699   C853    1.110   1_455 S
H700   C853    1.111   1_455 S
O701   C702    1.410   .     S
C702   H704    1.115   .     S
C702   H703    1.110   .     S
C702   C705    1.520   .     S
C705   H706    1.111   .     S
C705   H707    1.111   .     S
C705   H864    1.110   .     S
H708   C861    1.110   1_455 S
O709   C710    1.413   .     S
C710   H711    1.109   .     S
C710   H712    1.114   .     S
C710   C1337   1.520   .     S
C713   H715    1.110   .     S
C713   H716    1.110   .     S
H714   C1337   1.111   .     S
O717   C718    1.422   .     S
C718   H720    1.107   .     S
C718   H719    1.112   .     S
C718   C721    1.534   .     S
C721   H724    1.110   .     S
C721   H722    1.109   .     S
C721   H723    1.110   .     S
O725   C726    1.414   .     S
C726   C729    1.519   .     S
C726   H727    1.110   .     S
C726   H728    1.114   .     S
C729   H731    1.107   .     S
C729   H732    1.108   .     S
C729   H730    1.109   .     S
O733   C734    1.417   .     S
C734   H735    1.114   .     S
C734   C737    1.526   .     S
C734   H736    1.105   .     S
C737   H738    1.110   .     S
C737   H740    1.110   .     S
C737   H739    1.111   .     S
O741   C742    1.410   .     S
C742   H743    1.114   .     S
C742   C745    1.514   .     S
C742   H744    1.112   .     S
C745   H748    1.108   .     S
C745   H746    1.109   .     S
C745   H747    1.102   .     S
O749   C750    1.408   .     S
C750   H752    1.113   .     S
C750   C753    1.525   .     S
C750   H1063   1.109   1_545 S
H751   C1062   1.109   .     S
C753   H443    1.108   1_545 S
C753   H1068   1.108   1_545 S
H754   C1377   1.108   .     S
H755   C1689   1.108   .     S
H756   C1065   1.108   .     S
O757   C758    1.413   .     S
C758   C761    1.521   .     S
C758   H760    1.113   .     S
C758   H1071   1.111   .     S
H759   C1070   1.111   1_545 S
C761   H762    1.110   .     S
C761   H1075   1.111   .     S
C761   H1076   1.111   .     S
H763   C1073   1.111   1_545 S
H764   C1073   1.111   1_545 S
O765   C766    1.407   .     S
C766   H768    1.113   .     S
C766   H1079   1.109   1_545 S
C766   C1081   1.525   1_545 S
H767   C1078   1.109   .     S
C769   H772    1.109   .     S
C769   C1078   1.525   .     S
C769   H1706   1.110   .     S
C769   H1395   1.107   .     S
H770   C457    1.110   1_545 S
O773   C774    1.412   .     S
C774   C777    1.521   .     S
C774   H776    1.110   .     S
C774   H1087   1.108   .     S
H775   C1086   1.108   1_545 S
C777   H780    1.110   .     S
C777   H1090   1.111   .     S
C777   H1091   1.111   .     S
H778   C1089   1.111   1_545 S
H779   C1089   1.111   1_545 S
C781   O811    1.300   .     A
C781   C805    1.450   .     S
C781   O814    1.300   .     A
C782   O812    1.300   .     A
C782   C806    1.460   .     S
C782   O813    1.306   .     A
C783   C787    1.427   .     A
C783   N809    1.396   .     A
C783   S821    1.808   .     S
C784   C788    1.419   .     A
C784   S826    1.789   .     S
C784   N810    1.384   .     A
C785   N809    1.395   .     A
C785   C789    1.427   .     A
C785   S831    1.807   .     S
C786   N810    1.378   .     A
C786   S836    1.782   .     S
C786   C790    1.415   .     A
C787   O905    1.382   .     S
C787   C793    1.408   .     A
C788   C794    1.419   .     A
C788   O913    1.384   .     S
C789   C793    1.410   .     A
C789   O921    1.382   .     S
C790   O929    1.382   .     S
C790   C794    1.421   .     A
C791   C795    1.372   .     S
C791   O818    1.288   .     A
C791   O815    1.287   .     A
C792   O817    1.288   .     A
C792   C796    1.372   .     S
C792   O816    1.287   .     A
C793   C1106   1.537   1_545 S
C794   C1105   1.537   .     S
C796   C1419   1.169   .     S
C797   O841    1.385   .     S
C797   C807    1.402   .     A
C797   C801    1.386   .     A
C798   O849    1.386   .     S
C798   C808    1.405   .     A
C798   C802    1.393   .     A
C799   C803    1.389   .     A
C799   O857    1.385   .     S
C799   C808    1.403   .     A
C800   C804    1.403   .     A
C800   O865    1.384   .     S
C800   C807    1.400   .     A
C801   C805    1.401   .     A
C801   O873    1.383   .     S
C802   O881    1.385   .     S
C802   C806    1.420   .     A
C803   C806    1.407   .     A
C803   O889    1.384   .     S
C804   O897    1.381   .     S
C804   C805    1.410   .     A
C808   C651    1.447   1_655 S
N809   Zn820   2.033   .     S
N810   Zn819   2.033   .     S
O811   Zn819   2.003   .     S
O812   Zn820   2.003   .     S
O813   Zn819   1.996   .     S
O814   Zn820   1.996   .     S
O815   Zn819   1.955   .     S
O816   Zn820   1.955   .     S
O817   Zn819   1.958   .     S
O818   Zn820   1.958   .     S
S821   O822    1.501   .     D
S821   O823    1.504   .     D
S821   O824    1.671   .     S
O824   H825    0.991   .     S
S826   O829    1.674   .     S
S826   O828    1.503   .     D
S826   O827    1.503   .     D
O829   H830    0.991   .     S
S831   O832    1.500   .     D
S831   O833    1.503   .     D
S831   O834    1.671   .     S
O834   H835    0.991   .     S
S836   O837    1.502   .     D
S836   O839    1.674   .     S
S836   O838    1.503   .     D
O839   H840    0.991   .     S
O841   C842    1.414   .     S
C842   H844    1.111   .     S
C842   H843    1.115   .     S
C845   H847    1.110   .     S
C845   H848    1.110   .     S
C845   H846    1.111   .     S
C845   C686    1.522   1_655 S
O849   C850    1.415   .     S
C850   C853    1.521   .     S
C850   H852    1.114   .     S
C850   H695    1.110   1_655 S
C853   H854    1.111   .     S
C853   H699    1.110   1_655 S
C853   H700    1.111   1_655 S
O857   C858    1.410   .     S
C858   H860    1.115   .     S
C858   H859    1.110   .     S
C858   C861    1.520   .     S
C861   H862    1.111   .     S
C861   H863    1.111   .     S
C861   H708    1.110   1_655 S
O865   C866    1.413   .     S
C866   H867    1.109   .     S
C866   H868    1.114   .     S
C866   C1493   1.520   .     S
C869   H871    1.110   .     S
C869   H872    1.110   .     S
H870   C1493   1.111   .     S
O873   C874    1.422   .     S
C874   H876    1.107   .     S
C874   H875    1.112   .     S
C874   C877    1.534   .     S
C877   H880    1.110   .     S
C877   H878    1.109   .     S
C877   H879    1.110   .     S
O881   C882    1.414   .     S
C882   C885    1.519   .     S
C882   H883    1.110   .     S
C882   H884    1.114   .     S
C885   H887    1.107   .     S
C885   H888    1.108   .     S
C885   H886    1.109   .     S
O889   C890    1.417   .     S
C890   H891    1.114   .     S
C890   C893    1.526   .     S
C890   H892    1.105   .     S
C893   H894    1.110   .     S
C893   H896    1.110   .     S
C893   H895    1.111   .     S
O897   C898    1.410   .     S
C898   H899    1.114   .     S
C898   C901    1.514   .     S
C898   H900    1.112   .     S
C901   H904    1.108   .     S
C901   H902    1.109   .     S
C901   H903    1.102   .     S
O905   C906    1.408   .     S
C906   H908    1.113   .     S
C906   C909    1.525   .     S
C906   H1219   1.109   1_545 S
H907   C1218   1.109   .     S
C909   H599    1.108   1_545 S
C909   H1224   1.108   1_545 S
H910   C1533   1.108   .     S
H911   C1845   1.108   .     S
H912   C1221   1.108   .     S
O913   C914    1.413   .     S
C914   C917    1.521   .     S
C914   H916    1.113   .     S
C914   H1227   1.111   .     S
H915   C1226   1.111   1_545 S
C917   H918    1.110   .     S
C917   H1231   1.111   .     S
C917   H1232   1.111   .     S
H919   C1229   1.111   1_545 S
H920   C1229   1.111   1_545 S
O921   C922    1.407   .     S
C922   H924    1.113   .     S
C922   H1235   1.109   1_545 S
C922   C1237   1.525   1_545 S
H923   C1234   1.109   .     S
C925   H928    1.109   .     S
C925   C1234   1.525   .     S
C925   H1862   1.110   .     S
C925   H1551   1.107   .     S
H926   C613    1.110   1_545 S
O929   C930    1.412   .     S
C930   C933    1.521   .     S
C930   H932    1.110   .     S
C930   H1243   1.108   .     S
H931   C1242   1.108   1_545 S
C933   H936    1.110   .     S
C933   H1246   1.111   .     S
C933   H1247   1.111   .     S
H934   C1245   1.111   1_545 S
H935   C1245   1.111   1_545 S
C937   O967    1.300   .     A
C937   C961    1.450   .     S
C937   O970    1.300   .     A
C938   O968    1.300   .     A
C938   C962    1.460   .     S
C938   O969    1.306   .     A
C939   C943    1.427   .     A
C939   N965    1.396   .     A
C939   S977    1.808   .     S
C940   C944    1.419   .     A
C940   S982    1.789   .     S
C940   N966    1.384   .     A
C941   N965    1.395   .     A
C941   C945    1.427   .     A
C941   S987    1.807   .     S
C942   N966    1.378   .     A
C942   S992    1.782   .     S
C942   C946    1.415   .     A
C943   O1061   1.382   .     S
C943   C949    1.408   .     A
C944   C950    1.419   .     A
C944   O1069   1.384   .     S
C945   C949    1.410   .     A
C945   O1077   1.382   .     S
C946   O1085   1.382   .     S
C946   C950    1.421   .     A
C947   C951    1.372   .     S
C947   O974    1.288   .     A
C947   O971    1.287   .     A
C948   O973    1.288   .     A
C948   C952    1.372   .     S
C948   O972    1.287   .     A
C950   C637    1.537   1_565 S
C952   C1575   1.169   .     S
C953   O997    1.385   .     S
C953   C963    1.402   .     A
C953   C957    1.386   .     A
C954   O1005   1.386   .     S
C954   C964    1.405   .     A
C954   C958    1.393   .     A
C955   C959    1.389   .     A
C955   O1013   1.385   .     S
C955   C964    1.403   .     A
C956   C960    1.403   .     A
C956   O1021   1.384   .     S
C956   C963    1.400   .     A
C957   C961    1.401   .     A
C957   O1029   1.383   .     S
C958   O1037   1.385   .     S
C958   C962    1.420   .     A
C959   C962    1.407   .     A
C959   O1045   1.384   .     S
C960   O1053   1.381   .     S
C960   C961    1.410   .     A
C963   C1120   1.447   1_455 S
C964   C1119   1.447   .     S
N965   Zn976   2.033   .     S
N966   Zn975   2.033   .     S
O967   Zn975   2.003   .     S
O968   Zn976   2.003   .     S
O969   Zn975   1.996   .     S
O970   Zn976   1.996   .     S
O971   Zn975   1.955   .     S
O972   Zn976   1.955   .     S
O973   Zn975   1.958   .     S
O974   Zn976   1.958   .     S
S977   O978    1.501   .     D
S977   O979    1.504   .     D
S977   O980    1.671   .     S
O980   H981    0.991   .     S
S982   O985    1.674   .     S
S982   O984    1.503   .     D
S982   O983    1.503   .     D
O985   H986    0.991   .     S
S987   O988    1.500   .     D
S987   O989    1.503   .     D
S987   O990    1.671   .     S
O990   H991    0.991   .     S
S992   O993    1.502   .     D
S992   O995    1.674   .     S
S992   O994    1.503   .     D
O995   H996    0.991   .     S
O997   C998    1.414   .     S
C998   H1000   1.111   .     S
C998   H999    1.115   .     S
C998   C1157   1.522   1_455 S
C1001  H1003   1.110   .     S
C1001  H1004   1.110   .     S
C1001  H1002   1.111   .     S
C1001  C1154   1.522   .     S
O1005  C1006   1.415   .     S
C1006  C1009   1.521   .     S
C1006  H1008   1.114   .     S
C1006  H1163   1.110   .     S
H1007  C1162   1.110   1_455 S
C1009  H1010   1.111   .     S
C1009  H1167   1.110   .     S
C1009  H1168   1.111   .     S
H1011  C1165   1.110   1_455 S
H1012  C1165   1.111   1_455 S
O1013  C1014   1.410   .     S
C1014  H1016   1.115   .     S
C1014  H1015   1.110   .     S
C1014  C1017   1.520   .     S
C1017  H1018   1.111   .     S
C1017  H1019   1.111   .     S
C1017  H1176   1.110   .     S
H1020  C1173   1.110   1_455 S
O1021  C1022   1.413   .     S
C1022  H1023   1.109   .     S
C1022  H1024   1.114   .     S
C1022  C1649   1.520   .     S
C1025  H1027   1.110   .     S
C1025  H1028   1.110   .     S
H1026  C1649   1.111   .     S
O1029  C1030   1.422   .     S
C1030  H1032   1.107   .     S
C1030  H1031   1.112   .     S
C1030  C1033   1.534   .     S
C1033  H1036   1.110   .     S
C1033  H1034   1.109   .     S
C1033  H1035   1.110   .     S
O1037  C1038   1.414   .     S
C1038  C1041   1.519   .     S
C1038  H1039   1.110   .     S
C1038  H1040   1.114   .     S
C1041  H1043   1.107   .     S
C1041  H1044   1.108   .     S
C1041  H1042   1.109   .     S
O1045  C1046   1.417   .     S
C1046  H1047   1.114   .     S
C1046  C1049   1.526   .     S
C1046  H1048   1.105   .     S
C1049  H1050   1.110   .     S
C1049  H1052   1.110   .     S
C1049  H1051   1.111   .     S
O1053  C1054   1.410   .     S
C1054  H1055   1.114   .     S
C1054  C1057   1.514   .     S
C1054  H1056   1.112   .     S
C1057  H1060   1.108   .     S
C1057  H1058   1.109   .     S
C1057  H1059   1.102   .     S
O1061  C1062   1.408   .     S
C1062  H1064   1.113   .     S
C1062  C1065   1.525   .     S
H1063  C750    1.109   1_565 S
H1066  C1689   1.108   .     S
H1067  C1377   1.108   1_565 S
H1068  C753    1.108   1_565 S
O1069  C1070   1.413   .     S
C1070  C1073   1.521   .     S
C1070  H1072   1.113   .     S
C1070  H759    1.111   1_565 S
C1073  H1074   1.110   .     S
C1073  H763    1.111   1_565 S
C1073  H764    1.111   1_565 S
O1077  C1078   1.407   .     S
C1078  H1080   1.113   .     S
H1079  C766    1.109   1_565 S
C1081  H1084   1.109   .     S
C1081  C766    1.525   1_565 S
C1081  H1394   1.110   1_565 S
C1081  H1707   1.107   .     S
O1085  C1086   1.412   .     S
C1086  C1089   1.521   .     S
C1086  H1088   1.110   .     S
C1086  H775    1.108   1_565 S
C1089  H1092   1.110   .     S
C1089  H778    1.111   1_565 S
C1089  H779    1.111   1_565 S
C1093  O1123   1.300   .     A
C1093  C1117   1.450   .     S
C1093  O1126   1.300   .     A
C1094  O1124   1.300   .     A
C1094  C1118   1.460   .     S
C1094  O1125   1.306   .     A
C1095  C1099   1.427   .     A
C1095  N1121   1.396   .     A
C1095  S1133   1.808   .     S
C1096  C1100   1.419   .     A
C1096  S1138   1.789   .     S
C1096  N1122   1.384   .     A
C1097  N1121   1.395   .     A
C1097  C1101   1.427   .     A
C1097  S1143   1.807   .     S
C1098  N1122   1.378   .     A
C1098  S1148   1.782   .     S
C1098  C1102   1.415   .     A
C1099  O1217   1.382   .     S
C1099  C1105   1.408   .     A
C1100  C1106   1.419   .     A
C1100  O1225   1.384   .     S
C1101  C1105   1.410   .     A
C1101  O1233   1.382   .     S
C1102  O1241   1.382   .     S
C1102  C1106   1.421   .     A
C1103  C1107   1.372   .     S
C1103  O1130   1.288   .     A
C1103  O1127   1.287   .     A
C1104  O1129   1.288   .     A
C1104  C1108   1.372   .     S
C1104  O1128   1.287   .     A
C1106  C793    1.537   1_565 S
C1108  C1731   1.169   .     S
C1109  O1153   1.385   .     S
C1109  C1119   1.402   .     A
C1109  C1113   1.386   .     A
C1110  O1161   1.386   .     S
C1110  C1120   1.405   .     A
C1110  C1114   1.393   .     A
C1111  C1115   1.389   .     A
C1111  O1169   1.385   .     S
C1111  C1120   1.403   .     A
C1112  C1116   1.403   .     A
C1112  O1177   1.384   .     S
C1112  C1119   1.400   .     A
C1113  C1117   1.401   .     A
C1113  O1185   1.383   .     S
C1114  O1193   1.385   .     S
C1114  C1118   1.420   .     A
C1115  C1118   1.407   .     A
C1115  O1201   1.384   .     S
C1116  O1209   1.381   .     S
C1116  C1117   1.410   .     A
C1120  C963    1.447   1_655 S
N1121  Zn1132  2.033   .     S
N1122  Zn1131  2.033   .     S
O1123  Zn1131  2.003   .     S
O1124  Zn1132  2.003   .     S
O1125  Zn1131  1.996   .     S
O1126  Zn1132  1.996   .     S
O1127  Zn1131  1.955   .     S
O1128  Zn1132  1.955   .     S
O1129  Zn1131  1.958   .     S
O1130  Zn1132  1.958   .     S
S1133  O1134   1.501   .     D
S1133  O1135   1.504   .     D
S1133  O1136   1.671   .     S
O1136  H1137   0.991   .     S
S1138  O1141   1.674   .     S
S1138  O1140   1.503   .     D
S1138  O1139   1.503   .     D
O1141  H1142   0.991   .     S
S1143  O1144   1.500   .     D
S1143  O1145   1.503   .     D
S1143  O1146   1.671   .     S
O1146  H1147   0.991   .     S
S1148  O1149   1.502   .     D
S1148  O1151   1.674   .     S
S1148  O1150   1.503   .     D
O1151  H1152   0.991   .     S
O1153  C1154   1.414   .     S
C1154  H1156   1.111   .     S
C1154  H1155   1.115   .     S
C1157  H1159   1.110   .     S
C1157  H1160   1.110   .     S
C1157  H1158   1.111   .     S
C1157  C998    1.522   1_655 S
O1161  C1162   1.415   .     S
C1162  C1165   1.521   .     S
C1162  H1164   1.114   .     S
C1162  H1007   1.110   1_655 S
C1165  H1166   1.111   .     S
C1165  H1011   1.110   1_655 S
C1165  H1012   1.111   1_655 S
O1169  C1170   1.410   .     S
C1170  H1172   1.115   .     S
C1170  H1171   1.110   .     S
C1170  C1173   1.520   .     S
C1173  H1174   1.111   .     S
C1173  H1175   1.111   .     S
C1173  H1020   1.110   1_655 S
O1177  C1178   1.413   .     S
C1178  H1179   1.109   .     S
C1178  H1180   1.114   .     S
C1178  C1805   1.520   .     S
C1181  H1183   1.110   .     S
C1181  H1184   1.110   .     S
H1182  C1805   1.111   .     S
O1185  C1186   1.422   .     S
C1186  H1188   1.107   .     S
C1186  H1187   1.112   .     S
C1186  C1189   1.534   .     S
C1189  H1192   1.110   .     S
C1189  H1190   1.109   .     S
C1189  H1191   1.110   .     S
O1193  C1194   1.414   .     S
C1194  C1197   1.519   .     S
C1194  H1195   1.110   .     S
C1194  H1196   1.114   .     S
C1197  H1199   1.107   .     S
C1197  H1200   1.108   .     S
C1197  H1198   1.109   .     S
O1201  C1202   1.417   .     S
C1202  H1203   1.114   .     S
C1202  C1205   1.526   .     S
C1202  H1204   1.105   .     S
C1205  H1206   1.110   .     S
C1205  H1208   1.110   .     S
C1205  H1207   1.111   .     S
O1209  C1210   1.410   .     S
C1210  H1211   1.114   .     S
C1210  C1213   1.514   .     S
C1210  H1212   1.112   .     S
C1213  H1216   1.108   .     S
C1213  H1214   1.109   .     S
C1213  H1215   1.102   .     S
O1217  C1218   1.408   .     S
C1218  H1220   1.113   .     S
C1218  C1221   1.525   .     S
H1219  C906    1.109   1_565 S
H1222  C1845   1.108   .     S
H1223  C1533   1.108   1_565 S
H1224  C909    1.108   1_565 S
O1225  C1226   1.413   .     S
C1226  C1229   1.521   .     S
C1226  H1228   1.113   .     S
C1226  H915    1.111   1_565 S
C1229  H1230   1.110   .     S
C1229  H919    1.111   1_565 S
C1229  H920    1.111   1_565 S
O1233  C1234   1.407   .     S
C1234  H1236   1.113   .     S
H1235  C922    1.109   1_565 S
C1237  H1240   1.109   .     S
C1237  C922    1.525   1_565 S
C1237  H1550   1.110   1_565 S
C1237  H1863   1.107   .     S
O1241  C1242   1.412   .     S
C1242  C1245   1.521   .     S
C1242  H1244   1.110   .     S
C1242  H931    1.108   1_565 S
C1245  H1248   1.110   .     S
C1245  H934    1.111   1_565 S
C1245  H935    1.111   1_565 S
C1249  O1279   1.300   .     A
C1249  C1273   1.450   .     S
C1249  O1282   1.300   .     A
C1250  O1280   1.300   .     A
C1250  C1274   1.460   .     S
C1250  O1281   1.306   .     A
C1251  C1255   1.427   .     A
C1251  N1277   1.396   .     A
C1251  S1289   1.808   .     S
C1252  C1256   1.419   .     A
C1252  S1294   1.789   .     S
C1252  N1278   1.384   .     A
C1253  N1277   1.395   .     A
C1253  C1257   1.427   .     A
C1253  S1299   1.807   .     S
C1254  N1278   1.378   .     A
C1254  S1304   1.782   .     S
C1254  C1258   1.415   .     A
C1255  O1373   1.382   .     S
C1255  C1261   1.408   .     A
C1256  C1262   1.419   .     A
C1256  O1381   1.384   .     S
C1257  C1261   1.410   .     A
C1257  O1389   1.382   .     S
C1258  O1397   1.382   .     S
C1258  C1262   1.421   .     A
C1259  C1263   1.372   .     S
C1259  O1286   1.288   .     A
C1259  O1283   1.287   .     A
C1260  O1285   1.288   .     A
C1260  C1264   1.372   .     S
C1260  O1284   1.287   .     A
C1261  C1574   1.537   1_545 S
C1262  C1573   1.537   .     S
C1264  C15     1.169   1_556 S
C1265  O1309   1.385   .     S
C1265  C1275   1.402   .     A
C1265  C1269   1.386   .     A
C1266  O1317   1.386   .     S
C1266  C1276   1.405   .     A
C1266  C1270   1.393   .     A
C1267  C1271   1.389   .     A
C1267  O1325   1.385   .     S
C1267  C1276   1.403   .     A
C1268  C1272   1.403   .     A
C1268  O1333   1.384   .     S
C1268  C1275   1.400   .     A
C1269  C1273   1.401   .     A
C1269  O1341   1.383   .     S
C1270  O1349   1.385   .     S
C1270  C1274   1.420   .     A
C1271  C1274   1.407   .     A
C1271  O1357   1.384   .     S
C1272  O1365   1.381   .     S
C1272  C1273   1.410   .     A
C1275  C1432   1.447   1_455 S
C1276  C1431   1.447   .     S
N1277  Zn1288  2.033   .     S
N1278  Zn1287  2.033   .     S
O1279  Zn1287  2.003   .     S
O1280  Zn1288  2.003   .     S
O1281  Zn1287  1.996   .     S
O1282  Zn1288  1.996   .     S
O1283  Zn1287  1.955   .     S
O1284  Zn1288  1.955   .     S
O1285  Zn1287  1.958   .     S
O1286  Zn1288  1.958   .     S
S1289  O1290   1.501   .     D
S1289  O1291   1.504   .     D
S1289  O1292   1.671   .     S
O1292  H1293   0.991   .     S
S1294  O1297   1.674   .     S
S1294  O1296   1.503   .     D
S1294  O1295   1.503   .     D
O1297  H1298   0.991   .     S
S1299  O1300   1.500   .     D
S1299  O1301   1.503   .     D
S1299  O1302   1.671   .     S
O1302  H1303   0.991   .     S
S1304  O1305   1.502   .     D
S1304  O1307   1.674   .     S
S1304  O1306   1.503   .     D
O1307  H1308   0.991   .     S
O1309  C1310   1.414   .     S
C1310  H1312   1.111   .     S
C1310  H1311   1.115   .     S
C1310  C1469   1.522   1_455 S
C1313  H1315   1.110   .     S
C1313  H1316   1.110   .     S
C1313  H1314   1.111   .     S
C1313  C1466   1.522   .     S
O1317  C1318   1.415   .     S
C1318  C1321   1.521   .     S
C1318  H1320   1.114   .     S
C1318  H1475   1.110   .     S
H1319  C1474   1.110   1_455 S
C1321  H1322   1.111   .     S
C1321  H1479   1.110   .     S
C1321  H1480   1.111   .     S
H1323  C1477   1.110   1_455 S
H1324  C1477   1.111   1_455 S
O1325  C1326   1.410   .     S
C1326  H1328   1.115   .     S
C1326  H1327   1.110   .     S
C1326  C1329   1.520   .     S
C1329  H1330   1.111   .     S
C1329  H1331   1.111   .     S
C1329  H1488   1.110   .     S
H1332  C1485   1.110   1_455 S
O1333  C1334   1.413   .     S
C1334  H1335   1.109   .     S
C1334  H1336   1.114   .     S
C1334  C89     1.520   1_556 S
C1337  H1339   1.110   .     S
C1337  H1340   1.110   .     S
H1338  C89     1.111   1_556 S
O1341  C1342   1.422   .     S
C1342  H1344   1.107   .     S
C1342  H1343   1.112   .     S
C1342  C1345   1.534   .     S
C1345  H1348   1.110   .     S
C1345  H1346   1.109   .     S
C1345  H1347   1.110   .     S
O1349  C1350   1.414   .     S
C1350  C1353   1.519   .     S
C1350  H1351   1.110   .     S
C1350  H1352   1.114   .     S
C1353  H1355   1.107   .     S
C1353  H1356   1.108   .     S
C1353  H1354   1.109   .     S
O1357  C1358   1.417   .     S
C1358  H1359   1.114   .     S
C1358  C1361   1.526   .     S
C1358  H1360   1.105   .     S
C1361  H1362   1.110   .     S
C1361  H1364   1.110   .     S
C1361  H1363   1.111   .     S
O1365  C1366   1.410   .     S
C1366  H1367   1.114   .     S
C1366  C1369   1.514   .     S
C1366  H1368   1.112   .     S
C1369  H1372   1.108   .     S
C1369  H1370   1.109   .     S
C1369  H1371   1.102   .     S
O1373  C1374   1.408   .     S
C1374  H1376   1.113   .     S
C1374  C1377   1.525   .     S
C1374  H1687   1.109   1_545 S
H1375  C1686   1.109   .     S
C1377  H1067   1.108   1_545 S
C1377  H1692   1.108   1_545 S
H1378  C129    1.108   1_556 S
H1379  C441    1.108   1_556 S
H1380  C1689   1.108   .     S
O1381  C1382   1.413   .     S
C1382  C1385   1.521   .     S
C1382  H1384   1.113   .     S
C1382  H1695   1.111   .     S
H1383  C1694   1.111   1_545 S
C1385  H1386   1.110   .     S
C1385  H1699   1.111   .     S
C1385  H1700   1.111   .     S
H1387  C1697   1.111   1_545 S
H1388  C1697   1.111   1_545 S
O1389  C1390   1.407   .     S
C1390  H1392   1.113   .     S
C1390  H1703   1.109   1_545 S
C1390  C1705   1.525   1_545 S
H1391  C1702   1.109   .     S
C1393  H1396   1.109   .     S
C1393  C1702   1.525   .     S
C1393  H458    1.110   1_556 S
C1393  H147    1.107   1_556 S
H1394  C1081   1.110   1_545 S
O1397  C1398   1.412   .     S
C1398  C1401   1.521   .     S
C1398  H1400   1.110   .     S
C1398  H1711   1.108   .     S
H1399  C1710   1.108   1_545 S
C1401  H1404   1.110   .     S
C1401  H1714   1.111   .     S
C1401  H1715   1.111   .     S
H1402  C1713   1.111   1_545 S
H1403  C1713   1.111   1_545 S
C1405  O1435   1.300   .     A
C1405  C1429   1.450   .     S
C1405  O1438   1.300   .     A
C1406  O1436   1.300   .     A
C1406  C1430   1.460   .     S
C1406  O1437   1.306   .     A
C1407  C1411   1.427   .     A
C1407  N1433   1.396   .     A
C1407  S1445   1.808   .     S
C1408  C1412   1.419   .     A
C1408  S1450   1.789   .     S
C1408  N1434   1.384   .     A
C1409  N1433   1.395   .     A
C1409  C1413   1.427   .     A
C1409  S1455   1.807   .     S
C1410  N1434   1.378   .     A
C1410  S1460   1.782   .     S
C1410  C1414   1.415   .     A
C1411  O1529   1.382   .     S
C1411  C1417   1.408   .     A
C1412  C1418   1.419   .     A
C1412  O1537   1.384   .     S
C1413  C1417   1.410   .     A
C1413  O1545   1.382   .     S
C1414  O1553   1.382   .     S
C1414  C1418   1.421   .     A
C1415  C1419   1.372   .     S
C1415  O1442   1.288   .     A
C1415  O1439   1.287   .     A
C1416  O1441   1.288   .     A
C1416  C1420   1.372   .     S
C1416  O1440   1.287   .     A
C1417  C1730   1.537   1_545 S
C1418  C1729   1.537   .     S
C1420  C171    1.169   1_556 S
C1421  O1465   1.385   .     S
C1421  C1431   1.402   .     A
C1421  C1425   1.386   .     A
C1422  O1473   1.386   .     S
C1422  C1432   1.405   .     A
C1422  C1426   1.393   .     A
C1423  C1427   1.389   .     A
C1423  O1481   1.385   .     S
C1423  C1432   1.403   .     A
C1424  C1428   1.403   .     A
C1424  O1489   1.384   .     S
C1424  C1431   1.400   .     A
C1425  C1429   1.401   .     A
C1425  O1497   1.383   .     S
C1426  O1505   1.385   .     S
C1426  C1430   1.420   .     A
C1427  C1430   1.407   .     A
C1427  O1513   1.384   .     S
C1428  O1521   1.381   .     S
C1428  C1429   1.410   .     A
C1432  C1275   1.447   1_655 S
N1433  Zn1444  2.033   .     S
N1434  Zn1443  2.033   .     S
O1435  Zn1443  2.003   .     S
O1436  Zn1444  2.003   .     S
O1437  Zn1443  1.996   .     S
O1438  Zn1444  1.996   .     S
O1439  Zn1443  1.955   .     S
O1440  Zn1444  1.955   .     S
O1441  Zn1443  1.958   .     S
O1442  Zn1444  1.958   .     S
S1445  O1446   1.501   .     D
S1445  O1447   1.504   .     D
S1445  O1448   1.671   .     S
O1448  H1449   0.991   .     S
S1450  O1453   1.674   .     S
S1450  O1452   1.503   .     D
S1450  O1451   1.503   .     D
O1453  H1454   0.991   .     S
S1455  O1456   1.500   .     D
S1455  O1457   1.503   .     D
S1455  O1458   1.671   .     S
O1458  H1459   0.991   .     S
S1460  O1461   1.502   .     D
S1460  O1463   1.674   .     S
S1460  O1462   1.503   .     D
O1463  H1464   0.991   .     S
O1465  C1466   1.414   .     S
C1466  H1468   1.111   .     S
C1466  H1467   1.115   .     S
C1469  H1471   1.110   .     S
C1469  H1472   1.110   .     S
C1469  H1470   1.111   .     S
C1469  C1310   1.522   1_655 S
O1473  C1474   1.415   .     S
C1474  C1477   1.521   .     S
C1474  H1476   1.114   .     S
C1474  H1319   1.110   1_655 S
C1477  H1478   1.111   .     S
C1477  H1323   1.110   1_655 S
C1477  H1324   1.111   1_655 S
O1481  C1482   1.410   .     S
C1482  H1484   1.115   .     S
C1482  H1483   1.110   .     S
C1482  C1485   1.520   .     S
C1485  H1486   1.111   .     S
C1485  H1487   1.111   .     S
C1485  H1332   1.110   1_655 S
O1489  C1490   1.413   .     S
C1490  H1491   1.109   .     S
C1490  H1492   1.114   .     S
C1490  C245    1.520   1_556 S
C1493  H1495   1.110   .     S
C1493  H1496   1.110   .     S
H1494  C245    1.111   1_556 S
O1497  C1498   1.422   .     S
C1498  H1500   1.107   .     S
C1498  H1499   1.112   .     S
C1498  C1501   1.534   .     S
C1501  H1504   1.110   .     S
C1501  H1502   1.109   .     S
C1501  H1503   1.110   .     S
O1505  C1506   1.414   .     S
C1506  C1509   1.519   .     S
C1506  H1507   1.110   .     S
C1506  H1508   1.114   .     S
C1509  H1511   1.107   .     S
C1509  H1512   1.108   .     S
C1509  H1510   1.109   .     S
O1513  C1514   1.417   .     S
C1514  H1515   1.114   .     S
C1514  C1517   1.526   .     S
C1514  H1516   1.105   .     S
C1517  H1518   1.110   .     S
C1517  H1520   1.110   .     S
C1517  H1519   1.111   .     S
O1521  C1522   1.410   .     S
C1522  H1523   1.114   .     S
C1522  C1525   1.514   .     S
C1522  H1524   1.112   .     S
C1525  H1528   1.108   .     S
C1525  H1526   1.109   .     S
C1525  H1527   1.102   .     S
O1529  C1530   1.408   .     S
C1530  H1532   1.113   .     S
C1530  C1533   1.525   .     S
C1530  H1843   1.109   1_545 S
H1531  C1842   1.109   .     S
C1533  H1223   1.108   1_545 S
C1533  H1848   1.108   1_545 S
H1534  C285    1.108   1_556 S
H1535  C597    1.108   1_556 S
H1536  C1845   1.108   .     S
O1537  C1538   1.413   .     S
C1538  C1541   1.521   .     S
C1538  H1540   1.113   .     S
C1538  H1851   1.111   .     S
H1539  C1850   1.111   1_545 S
C1541  H1542   1.110   .     S
C1541  H1855   1.111   .     S
C1541  H1856   1.111   .     S
H1543  C1853   1.111   1_545 S
H1544  C1853   1.111   1_545 S
O1545  C1546   1.407   .     S
C1546  H1548   1.113   .     S
C1546  H1859   1.109   1_545 S
C1546  C1861   1.525   1_545 S
H1547  C1858   1.109   .     S
C1549  H1552   1.109   .     S
C1549  C1858   1.525   .     S
C1549  H614    1.110   1_556 S
C1549  H303    1.107   1_556 S
H1550  C1237   1.110   1_545 S
O1553  C1554   1.412   .     S
C1554  C1557   1.521   .     S
C1554  H1556   1.110   .     S
C1554  H1867   1.108   .     S
H1555  C1866   1.108   1_545 S
C1557  H1560   1.110   .     S
C1557  H1870   1.111   .     S
C1557  H1871   1.111   .     S
H1558  C1869   1.111   1_545 S
H1559  C1869   1.111   1_545 S
C1561  O1591   1.300   .     A
C1561  C1585   1.450   .     S
C1561  O1594   1.300   .     A
C1562  O1592   1.300   .     A
C1562  C1586   1.460   .     S
C1562  O1593   1.306   .     A
C1563  C1567   1.427   .     A
C1563  N1589   1.396   .     A
C1563  S1601   1.808   .     S
C1564  C1568   1.419   .     A
C1564  S1606   1.789   .     S
C1564  N1590   1.384   .     A
C1565  N1589   1.395   .     A
C1565  C1569   1.427   .     A
C1565  S1611   1.807   .     S
C1566  N1590   1.378   .     A
C1566  S1616   1.782   .     S
C1566  C1570   1.415   .     A
C1567  O1685   1.382   .     S
C1567  C1573   1.408   .     A
C1568  C1574   1.419   .     A
C1568  O1693   1.384   .     S
C1569  C1573   1.410   .     A
C1569  O1701   1.382   .     S
C1570  O1709   1.382   .     S
C1570  C1574   1.421   .     A
C1571  C1575   1.372   .     S
C1571  O1598   1.288   .     A
C1571  O1595   1.287   .     A
C1572  O1597   1.288   .     A
C1572  C1576   1.372   .     S
C1572  O1596   1.287   .     A
C1574  C1261   1.537   1_565 S
C1576  C327    1.169   1_556 S
C1577  O1621   1.385   .     S
C1577  C1587   1.402   .     A
C1577  C1581   1.386   .     A
C1578  O1629   1.386   .     S
C1578  C1588   1.405   .     A
C1578  C1582   1.393   .     A
C1579  C1583   1.389   .     A
C1579  O1637   1.385   .     S
C1579  C1588   1.403   .     A
C1580  C1584   1.403   .     A
C1580  O1645   1.384   .     S
C1580  C1587   1.400   .     A
C1581  C1585   1.401   .     A
C1581  O1653   1.383   .     S
C1582  O1661   1.385   .     S
C1582  C1586   1.420   .     A
C1583  C1586   1.407   .     A
C1583  O1669   1.384   .     S
C1584  O1677   1.381   .     S
C1584  C1585   1.410   .     A
C1587  C1744   1.447   1_455 S
C1588  C1743   1.447   .     S
N1589  Zn1600  2.033   .     S
N1590  Zn1599  2.033   .     S
O1591  Zn1599  2.003   .     S
O1592  Zn1600  2.003   .     S
O1593  Zn1599  1.996   .     S
O1594  Zn1600  1.996   .     S
O1595  Zn1599  1.955   .     S
O1596  Zn1600  1.955   .     S
O1597  Zn1599  1.958   .     S
O1598  Zn1600  1.958   .     S
S1601  O1602   1.501   .     D
S1601  O1603   1.504   .     D
S1601  O1604   1.671   .     S
O1604  H1605   0.991   .     S
S1606  O1609   1.674   .     S
S1606  O1608   1.503   .     D
S1606  O1607   1.503   .     D
O1609  H1610   0.991   .     S
S1611  O1612   1.500   .     D
S1611  O1613   1.503   .     D
S1611  O1614   1.671   .     S
O1614  H1615   0.991   .     S
S1616  O1617   1.502   .     D
S1616  O1619   1.674   .     S
S1616  O1618   1.503   .     D
O1619  H1620   0.991   .     S
O1621  C1622   1.414   .     S
C1622  H1624   1.111   .     S
C1622  H1623   1.115   .     S
C1622  C1781   1.522   1_455 S
C1625  H1627   1.110   .     S
C1625  H1628   1.110   .     S
C1625  H1626   1.111   .     S
C1625  C1778   1.522   .     S
O1629  C1630   1.415   .     S
C1630  C1633   1.521   .     S
C1630  H1632   1.114   .     S
C1630  H1787   1.110   .     S
H1631  C1786   1.110   1_455 S
C1633  H1634   1.111   .     S
C1633  H1791   1.110   .     S
C1633  H1792   1.111   .     S
H1635  C1789   1.110   1_455 S
H1636  C1789   1.111   1_455 S
O1637  C1638   1.410   .     S
C1638  H1640   1.115   .     S
C1638  H1639   1.110   .     S
C1638  C1641   1.520   .     S
C1641  H1642   1.111   .     S
C1641  H1643   1.111   .     S
C1641  H1800   1.110   .     S
H1644  C1797   1.110   1_455 S
O1645  C1646   1.413   .     S
C1646  H1647   1.109   .     S
C1646  H1648   1.114   .     S
C1646  C401    1.520   1_556 S
C1649  H1651   1.110   .     S
C1649  H1652   1.110   .     S
H1650  C401    1.111   1_556 S
O1653  C1654   1.422   .     S
C1654  H1656   1.107   .     S
C1654  H1655   1.112   .     S
C1654  C1657   1.534   .     S
C1657  H1660   1.110   .     S
C1657  H1658   1.109   .     S
C1657  H1659   1.110   .     S
O1661  C1662   1.414   .     S
C1662  C1665   1.519   .     S
C1662  H1663   1.110   .     S
C1662  H1664   1.114   .     S
C1665  H1667   1.107   .     S
C1665  H1668   1.108   .     S
C1665  H1666   1.109   .     S
O1669  C1670   1.417   .     S
C1670  H1671   1.114   .     S
C1670  C1673   1.526   .     S
C1670  H1672   1.105   .     S
C1673  H1674   1.110   .     S
C1673  H1676   1.110   .     S
C1673  H1675   1.111   .     S
O1677  C1678   1.410   .     S
C1678  H1679   1.114   .     S
C1678  C1681   1.514   .     S
C1678  H1680   1.112   .     S
C1681  H1684   1.108   .     S
C1681  H1682   1.109   .     S
C1681  H1683   1.102   .     S
O1685  C1686   1.408   .     S
C1686  H1688   1.113   .     S
C1686  C1689   1.525   .     S
H1687  C1374   1.109   1_565 S
H1690  C441    1.108   1_556 S
H1691  C129    1.108   1_566 S
H1692  C1377   1.108   1_565 S
O1693  C1694   1.413   .     S
C1694  C1697   1.521   .     S
C1694  H1696   1.113   .     S
C1694  H1383   1.111   1_565 S
C1697  H1698   1.110   .     S
C1697  H1387   1.111   1_565 S
C1697  H1388   1.111   1_565 S
O1701  C1702   1.407   .     S
C1702  H1704   1.113   .     S
H1703  C1390   1.109   1_565 S
C1705  H1708   1.109   .     S
C1705  C1390   1.525   1_565 S
C1705  H146    1.110   1_566 S
C1705  H459    1.107   1_556 S
O1709  C1710   1.412   .     S
C1710  C1713   1.521   .     S
C1710  H1712   1.110   .     S
C1710  H1399   1.108   1_565 S
C1713  H1716   1.110   .     S
C1713  H1402   1.111   1_565 S
C1713  H1403   1.111   1_565 S
C1717  O1747   1.300   .     A
C1717  C1741   1.450   .     S
C1717  O1750   1.300   .     A
C1718  O1748   1.300   .     A
C1718  C1742   1.460   .     S
C1718  O1749   1.306   .     A
C1719  C1723   1.427   .     A
C1719  N1745   1.396   .     A
C1719  S1757   1.808   .     S
C1720  C1724   1.419   .     A
C1720  S1762   1.789   .     S
C1720  N1746   1.384   .     A
C1721  N1745   1.395   .     A
C1721  C1725   1.427   .     A
C1721  S1767   1.807   .     S
C1722  N1746   1.378   .     A
C1722  S1772   1.782   .     S
C1722  C1726   1.415   .     A
C1723  O1841   1.382   .     S
C1723  C1729   1.408   .     A
C1724  C1730   1.419   .     A
C1724  O1849   1.384   .     S
C1725  C1729   1.410   .     A
C1725  O1857   1.382   .     S
C1726  O1865   1.382   .     S
C1726  C1730   1.421   .     A
C1727  C1731   1.372   .     S
C1727  O1754   1.288   .     A
C1727  O1751   1.287   .     A
C1728  O1753   1.288   .     A
C1728  C1732   1.372   .     S
C1728  O1752   1.287   .     A
C1730  C1417   1.537   1_565 S
C1732  C483    1.169   1_556 S
C1733  O1777   1.385   .     S
C1733  C1743   1.402   .     A
C1733  C1737   1.386   .     A
C1734  O1785   1.386   .     S
C1734  C1744   1.405   .     A
C1734  C1738   1.393   .     A
C1735  C1739   1.389   .     A
C1735  O1793   1.385   .     S
C1735  C1744   1.403   .     A
C1736  C1740   1.403   .     A
C1736  O1801   1.384   .     S
C1736  C1743   1.400   .     A
C1737  C1741   1.401   .     A
C1737  O1809   1.383   .     S
C1738  O1817   1.385   .     S
C1738  C1742   1.420   .     A
C1739  C1742   1.407   .     A
C1739  O1825   1.384   .     S
C1740  O1833   1.381   .     S
C1740  C1741   1.410   .     A
C1744  C1587   1.447   1_655 S
N1745  Zn1756  2.033   .     S
N1746  Zn1755  2.033   .     S
O1747  Zn1755  2.003   .     S
O1748  Zn1756  2.003   .     S
O1749  Zn1755  1.996   .     S
O1750  Zn1756  1.996   .     S
O1751  Zn1755  1.955   .     S
O1752  Zn1756  1.955   .     S
O1753  Zn1755  1.958   .     S
O1754  Zn1756  1.958   .     S
S1757  O1758   1.501   .     D
S1757  O1759   1.504   .     D
S1757  O1760   1.671   .     S
O1760  H1761   0.991   .     S
S1762  O1765   1.674   .     S
S1762  O1764   1.503   .     D
S1762  O1763   1.503   .     D
O1765  H1766   0.991   .     S
S1767  O1768   1.500   .     D
S1767  O1769   1.503   .     D
S1767  O1770   1.671   .     S
O1770  H1771   0.991   .     S
S1772  O1773   1.502   .     D
S1772  O1775   1.674   .     S
S1772  O1774   1.503   .     D
O1775  H1776   0.991   .     S
O1777  C1778   1.414   .     S
C1778  H1780   1.111   .     S
C1778  H1779   1.115   .     S
C1781  H1783   1.110   .     S
C1781  H1784   1.110   .     S
C1781  H1782   1.111   .     S
C1781  C1622   1.522   1_655 S
O1785  C1786   1.415   .     S
C1786  C1789   1.521   .     S
C1786  H1788   1.114   .     S
C1786  H1631   1.110   1_655 S
C1789  H1790   1.111   .     S
C1789  H1635   1.110   1_655 S
C1789  H1636   1.111   1_655 S
O1793  C1794   1.410   .     S
C1794  H1796   1.115   .     S
C1794  H1795   1.110   .     S
C1794  C1797   1.520   .     S
C1797  H1798   1.111   .     S
C1797  H1799   1.111   .     S
C1797  H1644   1.110   1_655 S
O1801  C1802   1.413   .     S
C1802  H1803   1.109   .     S
C1802  H1804   1.114   .     S
C1802  C557    1.520   1_556 S
C1805  H1807   1.110   .     S
C1805  H1808   1.110   .     S
H1806  C557    1.111   1_556 S
O1809  C1810   1.422   .     S
C1810  H1812   1.107   .     S
C1810  H1811   1.112   .     S
C1810  C1813   1.534   .     S
C1813  H1816   1.110   .     S
C1813  H1814   1.109   .     S
C1813  H1815   1.110   .     S
O1817  C1818   1.414   .     S
C1818  C1821   1.519   .     S
C1818  H1819   1.110   .     S
C1818  H1820   1.114   .     S
C1821  H1823   1.107   .     S
C1821  H1824   1.108   .     S
C1821  H1822   1.109   .     S
O1825  C1826   1.417   .     S
C1826  H1827   1.114   .     S
C1826  C1829   1.526   .     S
C1826  H1828   1.105   .     S
C1829  H1830   1.110   .     S
C1829  H1832   1.110   .     S
C1829  H1831   1.111   .     S
O1833  C1834   1.410   .     S
C1834  H1835   1.114   .     S
C1834  C1837   1.514   .     S
C1834  H1836   1.112   .     S
C1837  H1840   1.108   .     S
C1837  H1838   1.109   .     S
C1837  H1839   1.102   .     S
O1841  C1842   1.408   .     S
C1842  H1844   1.113   .     S
C1842  C1845   1.525   .     S
H1843  C1530   1.109   1_565 S
H1846  C597    1.108   1_556 S
H1847  C285    1.108   1_566 S
H1848  C1533   1.108   1_565 S
O1849  C1850   1.413   .     S
C1850  C1853   1.521   .     S
C1850  H1852   1.113   .     S
C1850  H1539   1.111   1_565 S
C1853  H1854   1.110   .     S
C1853  H1543   1.111   1_565 S
C1853  H1544   1.111   1_565 S
O1857  C1858   1.407   .     S
C1858  H1860   1.113   .     S
H1859  C1546   1.109   1_565 S
C1861  H1864   1.109   .     S
C1861  C1546   1.525   1_565 S
C1861  H302    1.110   1_566 S
C1861  H615    1.107   1_556 S
O1865  C1866   1.412   .     S
C1866  C1869   1.521   .     S
C1866  H1868   1.110   .     S
C1866  H1555   1.108   1_565 S
C1869  H1872   1.110   .     S
C1869  H1558   1.111   1_565 S
C1869  H1559   1.111   1_565 S
