data_str_m3_o2_o5_pcu_sym.53
_audit_creation_date              2020-01-03
_audit_creation_method            'Materials Studio'
_symmetry_space_group_name_H-M    'P1'
_symmetry_Int_Tables_number       1
_symmetry_cell_setting            triclinic
loop_
_symmetry_equiv_pos_as_xyz
  x,y,z
_cell_length_a                    29.7214
_cell_length_b                    28.6622
_cell_length_c                    26.7320
_cell_angle_alpha                 89.8315
_cell_angle_beta                  92.0931
_cell_angle_gamma                 89.3278
loop_
_atom_site_label
_atom_site_type_symbol
_atom_site_fract_x
_atom_site_fract_y
_atom_site_fract_z
_atom_site_U_iso_or_equiv
_atom_site_adp_type
_atom_site_occupancy
C1     C     0.16410   0.25038   0.16620   0.00000  Uiso   1.00
C2     C     0.21089   0.44785   0.15074   0.00000  Uiso   1.00
C3     C     0.24981   0.25004   0.07296   0.00000  Uiso   1.00
C4     C     0.25007   0.24995   0.26037   0.00000  Uiso   1.00
C5     C     0.24972   0.02655   0.16557   0.00000  Uiso   1.00
C6     C     0.24990   0.47335   0.16517   0.00000  Uiso   1.00
C7     C     0.24985   0.25004   0.02181   0.00000  Uiso   1.00
C8     C     0.24994   0.24991   0.31152   0.00000  Uiso   1.00
C9     C     0.05150   0.25366   0.10164   0.00000  Uiso   1.00
C10    C     0.45708   0.21028   0.15490   0.00000  Uiso   1.00
C11    C     0.44915   0.29087   0.12441   0.00000  Uiso   1.00
C12    C     0.33627   0.24974   0.16399   0.00000  Uiso   1.00
C13    C     0.04313   0.26293   0.19282   0.00000  Uiso   1.00
C14    C     0.09826   0.25151   0.10974   0.00000  Uiso   1.00
C15    C     0.41114   0.20960   0.16465   0.00000  Uiso   1.00
C16    C     0.40231   0.28814   0.12859   0.00000  Uiso   1.00
C17    C     0.08977   0.25858   0.20033   0.00000  Uiso   1.00
C18    C     0.11625   0.25203   0.15889   0.00000  Uiso   1.00
C19    C     0.38420   0.24941   0.15336   0.00000  Uiso   1.00
C20    C     0.02415   0.25827   0.14362   0.00000  Uiso   1.00
C21    C     0.47588   0.25213   0.13796   0.00000  Uiso   1.00
C22    C     0.20778   0.12697   0.08512   0.00000  Uiso   1.00
C23    C     0.23282   0.10235   0.12581   0.00000  Uiso   1.00
C24    C     0.32458   0.37397   0.21187   0.00000  Uiso   1.00
C25    C     0.28648   0.12428   0.25177   0.00000  Uiso   1.00
C26    C     0.17494   0.37453   0.12304   0.00000  Uiso   1.00
C27    C     0.28672   0.39807   0.18511   0.00000  Uiso   1.00
C28    C     0.26603   0.10093   0.20763   0.00000  Uiso   1.00
C29    C     0.21323   0.39854   0.14763   0.00000  Uiso   1.00
C30    C     0.23637   0.05310   0.12256   0.00000  Uiso   1.00
C31    C     0.28897   0.44725   0.18028   0.00000  Uiso   1.00
C32    C     0.26261   0.05160   0.20937   0.00000  Uiso   1.00
H33    H     0.15090   0.16079   0.06256   0.00000  Uiso   1.00
H34    H     0.41442   0.14576   0.19178   0.00000  Uiso   1.00
H35    H     0.38829   0.33721   0.07976   0.00000  Uiso   1.00
H36    H     0.08822   0.26546   0.27323   0.00000  Uiso   1.00
H37    H     0.23914   0.00112   0.07585   0.00000  Uiso   1.00
H38    H     0.33038   0.49919   0.17575   0.00000  Uiso   1.00
H39    H     0.25807   0.49882   0.25502   0.00000  Uiso   1.00
H40    H     0.16926   0.00075   0.15380   0.00000  Uiso   1.00
H41    H     0.39170   0.36290   0.21868   0.00000  Uiso   1.00
H42    H     0.33500   0.16625   0.27987   0.00000  Uiso   1.00
H43    H     0.10837   0.36148   0.12179   0.00000  Uiso   1.00
H44    H     0.00104   0.25332   0.05187   0.00000  Uiso   1.00
H45    H     0.01214   0.17298   0.14854   0.00000  Uiso   1.00
H46    H     0.45040   0.35838   0.11690   0.00000  Uiso   1.00
H47    H     0.48704   0.28225   0.22351   0.00000  Uiso   1.00
H48    H     0.11073   0.25069   0.03818   0.00000  Uiso   1.00
N49    N     0.25000   0.12624   0.16667   0.00000  Uiso   1.00
N50    N     0.25000   0.37377   0.16667   0.00000  Uiso   1.00
O51    O     0.18453   0.28974   0.16667   0.00000  Uiso   1.00
O52    O     0.16597   0.14728   0.09408   0.00000  Uiso   1.00
O53    O     0.31757   0.34952   0.24818   0.00000  Uiso   1.00
O54    O     0.36868   0.38105   0.19725   0.00000  Uiso   1.00
O55    O     0.27170   0.11734   0.29312   0.00000  Uiso   1.00
O56    O     0.32384   0.15260   0.24680   0.00000  Uiso   1.00
O57    O     0.18058   0.35174   0.08520   0.00000  Uiso   1.00
O58    O     0.13192   0.37938   0.14202   0.00000  Uiso   1.00
O59    O     0.03413   0.24950   0.05306   0.00000  Uiso   1.00
O60    O     0.48312   0.17084   0.16539   0.00000  Uiso   1.00
O61    O     0.47001   0.33125   0.10961   0.00000  Uiso   1.00
O62    O     0.31547   0.21026   0.16666   0.00000  Uiso   1.00
O63    O     0.01712   0.26994   0.23415   0.00000  Uiso   1.00
O64    O     0.12761   0.24885   0.07073   0.00000  Uiso   1.00
O65    O     0.39169   0.17073   0.18522   0.00000  Uiso   1.00
O66    O     0.37364   0.32205   0.10816   0.00000  Uiso   1.00
O67    O     0.11082   0.26094   0.24734   0.00000  Uiso   1.00
O68    O     0.22479   0.03238   0.07729   0.00000  Uiso   1.00
O69    O     0.32932   0.46858   0.19285   0.00000  Uiso   1.00
O70    O     0.27353   0.02919   0.25418   0.00000  Uiso   1.00
O71    O     0.17034   0.46968   0.13784   0.00000  Uiso   1.00
O72    O     0.31547   0.28974   0.16666   0.00000  Uiso   1.00
O73    O     0.18453   0.21026   0.16667   0.00000  Uiso   1.00
O74    O     0.25000   0.28973   0.09511   0.00000  Uiso   1.00
O75    O     0.25000   0.21027   0.23822   0.00000  Uiso   1.00
O76    O     0.25000   0.28973   0.23822   0.00000  Uiso   1.00
O77    O     0.25000   0.21027   0.09511   0.00000  Uiso   1.00
O78    O     0.22229   0.12714   0.04299   0.00000  Uiso   1.00
Zn79   Zn    0.25000   0.30307   0.16667   0.00000  Uiso   1.00
Zn80   Zn    0.25000   0.19693   0.16667   0.00000  Uiso   1.00
C81    C     0.66410   0.25038   0.16620   0.00000  Uiso   1.00
C82    C     0.71089   0.44785   0.15074   0.00000  Uiso   1.00
C83    C     0.74981   0.25004   0.07296   0.00000  Uiso   1.00
C84    C     0.75007   0.24995   0.26037   0.00000  Uiso   1.00
C85    C     0.74972   0.02655   0.16557   0.00000  Uiso   1.00
C86    C     0.74990   0.47335   0.16517   0.00000  Uiso   1.00
C87    C     0.74985   0.25004   0.02181   0.00000  Uiso   1.00
C88    C     0.74994   0.24991   0.31152   0.00000  Uiso   1.00
C89    C     0.55150   0.25366   0.10164   0.00000  Uiso   1.00
C90    C     0.95708   0.21028   0.15490   0.00000  Uiso   1.00
C91    C     0.94915   0.29087   0.12441   0.00000  Uiso   1.00
C92    C     0.83627   0.24974   0.16399   0.00000  Uiso   1.00
C93    C     0.54313   0.26293   0.19282   0.00000  Uiso   1.00
C94    C     0.59826   0.25151   0.10974   0.00000  Uiso   1.00
C95    C     0.91114   0.20960   0.16465   0.00000  Uiso   1.00
C96    C     0.90231   0.28814   0.12859   0.00000  Uiso   1.00
C97    C     0.58977   0.25858   0.20033   0.00000  Uiso   1.00
C98    C     0.61625   0.25203   0.15889   0.00000  Uiso   1.00
C99    C     0.88420   0.24941   0.15336   0.00000  Uiso   1.00
C100   C     0.52415   0.25827   0.14362   0.00000  Uiso   1.00
C101   C     0.97588   0.25213   0.13796   0.00000  Uiso   1.00
C102   C     0.70778   0.12697   0.08512   0.00000  Uiso   1.00
C103   C     0.73282   0.10235   0.12581   0.00000  Uiso   1.00
C104   C     0.82458   0.37397   0.21187   0.00000  Uiso   1.00
C105   C     0.78648   0.12428   0.25177   0.00000  Uiso   1.00
C106   C     0.67494   0.37453   0.12304   0.00000  Uiso   1.00
C107   C     0.78672   0.39807   0.18511   0.00000  Uiso   1.00
C108   C     0.76603   0.10093   0.20763   0.00000  Uiso   1.00
C109   C     0.71323   0.39854   0.14763   0.00000  Uiso   1.00
C110   C     0.73637   0.05310   0.12256   0.00000  Uiso   1.00
C111   C     0.78897   0.44725   0.18028   0.00000  Uiso   1.00
C112   C     0.76261   0.05160   0.20937   0.00000  Uiso   1.00
H113   H     0.65090   0.16079   0.06256   0.00000  Uiso   1.00
H114   H     0.91442   0.14576   0.19178   0.00000  Uiso   1.00
H115   H     0.88829   0.33721   0.07976   0.00000  Uiso   1.00
H116   H     0.58822   0.26546   0.27323   0.00000  Uiso   1.00
H117   H     0.73914   0.00112   0.07585   0.00000  Uiso   1.00
H118   H     0.83038   0.49919   0.17575   0.00000  Uiso   1.00
H119   H     0.75807   0.49882   0.25502   0.00000  Uiso   1.00
H120   H     0.66926   0.00075   0.15380   0.00000  Uiso   1.00
H121   H     0.89170   0.36290   0.21868   0.00000  Uiso   1.00
H122   H     0.83500   0.16625   0.27987   0.00000  Uiso   1.00
H123   H     0.60837   0.36148   0.12179   0.00000  Uiso   1.00
H124   H     0.50104   0.25332   0.05187   0.00000  Uiso   1.00
H125   H     0.51214   0.17298   0.14854   0.00000  Uiso   1.00
H126   H     0.95040   0.35838   0.11690   0.00000  Uiso   1.00
H127   H     0.98704   0.28225   0.22351   0.00000  Uiso   1.00
H128   H     0.61073   0.25069   0.03818   0.00000  Uiso   1.00
N129   N     0.75000   0.12624   0.16667   0.00000  Uiso   1.00
N130   N     0.75000   0.37377   0.16667   0.00000  Uiso   1.00
O131   O     0.68453   0.28974   0.16667   0.00000  Uiso   1.00
O132   O     0.66597   0.14728   0.09408   0.00000  Uiso   1.00
O133   O     0.81757   0.34952   0.24818   0.00000  Uiso   1.00
O134   O     0.86868   0.38105   0.19725   0.00000  Uiso   1.00
O135   O     0.77170   0.11734   0.29312   0.00000  Uiso   1.00
O136   O     0.82384   0.15260   0.24680   0.00000  Uiso   1.00
O137   O     0.68058   0.35174   0.08520   0.00000  Uiso   1.00
O138   O     0.63192   0.37938   0.14202   0.00000  Uiso   1.00
O139   O     0.53413   0.24950   0.05306   0.00000  Uiso   1.00
O140   O     0.98312   0.17084   0.16539   0.00000  Uiso   1.00
O141   O     0.97001   0.33125   0.10961   0.00000  Uiso   1.00
O142   O     0.81547   0.21026   0.16666   0.00000  Uiso   1.00
O143   O     0.51712   0.26994   0.23415   0.00000  Uiso   1.00
O144   O     0.62761   0.24885   0.07073   0.00000  Uiso   1.00
O145   O     0.89169   0.17073   0.18522   0.00000  Uiso   1.00
O146   O     0.87364   0.32205   0.10816   0.00000  Uiso   1.00
O147   O     0.61082   0.26094   0.24734   0.00000  Uiso   1.00
O148   O     0.72479   0.03238   0.07729   0.00000  Uiso   1.00
O149   O     0.82932   0.46858   0.19285   0.00000  Uiso   1.00
O150   O     0.77353   0.02919   0.25418   0.00000  Uiso   1.00
O151   O     0.67034   0.46968   0.13784   0.00000  Uiso   1.00
O152   O     0.81547   0.28974   0.16666   0.00000  Uiso   1.00
O153   O     0.68453   0.21026   0.16667   0.00000  Uiso   1.00
O154   O     0.75000   0.28973   0.09511   0.00000  Uiso   1.00
O155   O     0.75000   0.21027   0.23822   0.00000  Uiso   1.00
O156   O     0.75000   0.28973   0.23822   0.00000  Uiso   1.00
O157   O     0.75000   0.21027   0.09511   0.00000  Uiso   1.00
O158   O     0.72229   0.12714   0.04299   0.00000  Uiso   1.00
Zn159  Zn    0.75000   0.30307   0.16667   0.00000  Uiso   1.00
Zn160  Zn    0.75000   0.19693   0.16667   0.00000  Uiso   1.00
C161   C     0.16410   0.75038   0.16620   0.00000  Uiso   1.00
C162   C     0.21089   0.94785   0.15074   0.00000  Uiso   1.00
C163   C     0.24981   0.75004   0.07296   0.00000  Uiso   1.00
C164   C     0.25007   0.74995   0.26037   0.00000  Uiso   1.00
C165   C     0.24972   0.52655   0.16557   0.00000  Uiso   1.00
C166   C     0.24990   0.97335   0.16517   0.00000  Uiso   1.00
C167   C     0.24985   0.75004   0.02181   0.00000  Uiso   1.00
C168   C     0.24994   0.74991   0.31152   0.00000  Uiso   1.00
C169   C     0.05150   0.75366   0.10164   0.00000  Uiso   1.00
C170   C     0.45708   0.71028   0.15490   0.00000  Uiso   1.00
C171   C     0.44915   0.79087   0.12441   0.00000  Uiso   1.00
C172   C     0.33627   0.74974   0.16399   0.00000  Uiso   1.00
C173   C     0.04313   0.76293   0.19282   0.00000  Uiso   1.00
C174   C     0.09826   0.75151   0.10974   0.00000  Uiso   1.00
C175   C     0.41114   0.70960   0.16465   0.00000  Uiso   1.00
C176   C     0.40231   0.78814   0.12859   0.00000  Uiso   1.00
C177   C     0.08977   0.75858   0.20033   0.00000  Uiso   1.00
C178   C     0.11625   0.75203   0.15889   0.00000  Uiso   1.00
C179   C     0.38420   0.74941   0.15336   0.00000  Uiso   1.00
C180   C     0.02415   0.75827   0.14362   0.00000  Uiso   1.00
C181   C     0.47588   0.75213   0.13796   0.00000  Uiso   1.00
C182   C     0.20778   0.62697   0.08512   0.00000  Uiso   1.00
C183   C     0.23282   0.60235   0.12581   0.00000  Uiso   1.00
C184   C     0.32458   0.87397   0.21187   0.00000  Uiso   1.00
C185   C     0.28648   0.62428   0.25177   0.00000  Uiso   1.00
C186   C     0.17494   0.87453   0.12304   0.00000  Uiso   1.00
C187   C     0.28672   0.89807   0.18511   0.00000  Uiso   1.00
C188   C     0.26603   0.60093   0.20763   0.00000  Uiso   1.00
C189   C     0.21323   0.89854   0.14763   0.00000  Uiso   1.00
C190   C     0.23637   0.55310   0.12256   0.00000  Uiso   1.00
C191   C     0.28897   0.94725   0.18028   0.00000  Uiso   1.00
C192   C     0.26261   0.55160   0.20937   0.00000  Uiso   1.00
H193   H     0.15090   0.66079   0.06256   0.00000  Uiso   1.00
H194   H     0.41442   0.64576   0.19178   0.00000  Uiso   1.00
H195   H     0.38829   0.83721   0.07976   0.00000  Uiso   1.00
H196   H     0.08822   0.76546   0.27323   0.00000  Uiso   1.00
H197   H     0.23914   0.50112   0.07585   0.00000  Uiso   1.00
H198   H     0.33038   0.99919   0.17575   0.00000  Uiso   1.00
H199   H     0.25807   0.99882   0.25502   0.00000  Uiso   1.00
H200   H     0.16926   0.50075   0.15380   0.00000  Uiso   1.00
H201   H     0.39170   0.86290   0.21868   0.00000  Uiso   1.00
H202   H     0.33500   0.66625   0.27987   0.00000  Uiso   1.00
H203   H     0.10837   0.86148   0.12179   0.00000  Uiso   1.00
H204   H     0.00104   0.75332   0.05187   0.00000  Uiso   1.00
H205   H     0.01214   0.67298   0.14854   0.00000  Uiso   1.00
H206   H     0.45040   0.85838   0.11690   0.00000  Uiso   1.00
H207   H     0.48704   0.78225   0.22351   0.00000  Uiso   1.00
H208   H     0.11073   0.75069   0.03818   0.00000  Uiso   1.00
N209   N     0.25000   0.62624   0.16667   0.00000  Uiso   1.00
N210   N     0.25000   0.87377   0.16667   0.00000  Uiso   1.00
O211   O     0.18453   0.78974   0.16667   0.00000  Uiso   1.00
O212   O     0.16597   0.64728   0.09408   0.00000  Uiso   1.00
O213   O     0.31757   0.84952   0.24818   0.00000  Uiso   1.00
O214   O     0.36868   0.88105   0.19725   0.00000  Uiso   1.00
O215   O     0.27170   0.61734   0.29312   0.00000  Uiso   1.00
O216   O     0.32384   0.65260   0.24680   0.00000  Uiso   1.00
O217   O     0.18058   0.85174   0.08520   0.00000  Uiso   1.00
O218   O     0.13192   0.87938   0.14202   0.00000  Uiso   1.00
O219   O     0.03413   0.74950   0.05306   0.00000  Uiso   1.00
O220   O     0.48312   0.67084   0.16539   0.00000  Uiso   1.00
O221   O     0.47001   0.83125   0.10961   0.00000  Uiso   1.00
O222   O     0.31547   0.71026   0.16666   0.00000  Uiso   1.00
O223   O     0.01712   0.76994   0.23415   0.00000  Uiso   1.00
O224   O     0.12761   0.74885   0.07073   0.00000  Uiso   1.00
O225   O     0.39169   0.67073   0.18522   0.00000  Uiso   1.00
O226   O     0.37364   0.82205   0.10816   0.00000  Uiso   1.00
O227   O     0.11082   0.76094   0.24734   0.00000  Uiso   1.00
O228   O     0.22479   0.53238   0.07729   0.00000  Uiso   1.00
O229   O     0.32932   0.96858   0.19285   0.00000  Uiso   1.00
O230   O     0.27353   0.52919   0.25418   0.00000  Uiso   1.00
O231   O     0.17034   0.96968   0.13784   0.00000  Uiso   1.00
O232   O     0.31547   0.78974   0.16666   0.00000  Uiso   1.00
O233   O     0.18453   0.71026   0.16667   0.00000  Uiso   1.00
O234   O     0.25000   0.78973   0.09511   0.00000  Uiso   1.00
O235   O     0.25000   0.71027   0.23822   0.00000  Uiso   1.00
O236   O     0.25000   0.78973   0.23822   0.00000  Uiso   1.00
O237   O     0.25000   0.71027   0.09511   0.00000  Uiso   1.00
O238   O     0.22229   0.62714   0.04299   0.00000  Uiso   1.00
Zn239  Zn    0.25000   0.80307   0.16667   0.00000  Uiso   1.00
Zn240  Zn    0.25000   0.69693   0.16667   0.00000  Uiso   1.00
C241   C     0.66410   0.75038   0.16620   0.00000  Uiso   1.00
C242   C     0.71089   0.94785   0.15074   0.00000  Uiso   1.00
C243   C     0.74981   0.75004   0.07296   0.00000  Uiso   1.00
C244   C     0.75007   0.74995   0.26037   0.00000  Uiso   1.00
C245   C     0.74972   0.52655   0.16557   0.00000  Uiso   1.00
C246   C     0.74990   0.97335   0.16517   0.00000  Uiso   1.00
C247   C     0.74985   0.75004   0.02181   0.00000  Uiso   1.00
C248   C     0.74994   0.74991   0.31152   0.00000  Uiso   1.00
C249   C     0.55150   0.75366   0.10164   0.00000  Uiso   1.00
C250   C     0.95708   0.71028   0.15490   0.00000  Uiso   1.00
C251   C     0.94915   0.79087   0.12441   0.00000  Uiso   1.00
C252   C     0.83627   0.74974   0.16399   0.00000  Uiso   1.00
C253   C     0.54313   0.76293   0.19282   0.00000  Uiso   1.00
C254   C     0.59826   0.75151   0.10974   0.00000  Uiso   1.00
C255   C     0.91114   0.70960   0.16465   0.00000  Uiso   1.00
C256   C     0.90231   0.78814   0.12859   0.00000  Uiso   1.00
C257   C     0.58977   0.75858   0.20033   0.00000  Uiso   1.00
C258   C     0.61625   0.75203   0.15889   0.00000  Uiso   1.00
C259   C     0.88420   0.74941   0.15336   0.00000  Uiso   1.00
C260   C     0.52415   0.75827   0.14362   0.00000  Uiso   1.00
C261   C     0.97588   0.75213   0.13796   0.00000  Uiso   1.00
C262   C     0.70778   0.62697   0.08512   0.00000  Uiso   1.00
C263   C     0.73282   0.60235   0.12581   0.00000  Uiso   1.00
C264   C     0.82458   0.87397   0.21187   0.00000  Uiso   1.00
C265   C     0.78648   0.62428   0.25177   0.00000  Uiso   1.00
C266   C     0.67494   0.87453   0.12304   0.00000  Uiso   1.00
C267   C     0.78672   0.89807   0.18511   0.00000  Uiso   1.00
C268   C     0.76603   0.60093   0.20763   0.00000  Uiso   1.00
C269   C     0.71323   0.89854   0.14763   0.00000  Uiso   1.00
C270   C     0.73637   0.55310   0.12256   0.00000  Uiso   1.00
C271   C     0.78897   0.94725   0.18028   0.00000  Uiso   1.00
C272   C     0.76261   0.55160   0.20937   0.00000  Uiso   1.00
H273   H     0.65090   0.66079   0.06256   0.00000  Uiso   1.00
H274   H     0.91442   0.64576   0.19178   0.00000  Uiso   1.00
H275   H     0.88829   0.83721   0.07976   0.00000  Uiso   1.00
H276   H     0.58822   0.76546   0.27323   0.00000  Uiso   1.00
H277   H     0.73914   0.50112   0.07585   0.00000  Uiso   1.00
H278   H     0.83038   0.99919   0.17575   0.00000  Uiso   1.00
H279   H     0.75807   0.99882   0.25502   0.00000  Uiso   1.00
H280   H     0.66926   0.50075   0.15380   0.00000  Uiso   1.00
H281   H     0.89170   0.86290   0.21868   0.00000  Uiso   1.00
H282   H     0.83500   0.66625   0.27987   0.00000  Uiso   1.00
H283   H     0.60837   0.86148   0.12179   0.00000  Uiso   1.00
H284   H     0.50104   0.75332   0.05187   0.00000  Uiso   1.00
H285   H     0.51214   0.67298   0.14854   0.00000  Uiso   1.00
H286   H     0.95040   0.85838   0.11690   0.00000  Uiso   1.00
H287   H     0.98704   0.78225   0.22351   0.00000  Uiso   1.00
H288   H     0.61073   0.75069   0.03818   0.00000  Uiso   1.00
N289   N     0.75000   0.62624   0.16667   0.00000  Uiso   1.00
N290   N     0.75000   0.87377   0.16667   0.00000  Uiso   1.00
O291   O     0.68453   0.78974   0.16667   0.00000  Uiso   1.00
O292   O     0.66597   0.64728   0.09408   0.00000  Uiso   1.00
O293   O     0.81757   0.84952   0.24818   0.00000  Uiso   1.00
O294   O     0.86868   0.88105   0.19725   0.00000  Uiso   1.00
O295   O     0.77170   0.61734   0.29312   0.00000  Uiso   1.00
O296   O     0.82384   0.65260   0.24680   0.00000  Uiso   1.00
O297   O     0.68058   0.85174   0.08520   0.00000  Uiso   1.00
O298   O     0.63192   0.87938   0.14202   0.00000  Uiso   1.00
O299   O     0.53413   0.74950   0.05306   0.00000  Uiso   1.00
O300   O     0.98312   0.67084   0.16539   0.00000  Uiso   1.00
O301   O     0.97001   0.83125   0.10961   0.00000  Uiso   1.00
O302   O     0.81547   0.71026   0.16666   0.00000  Uiso   1.00
O303   O     0.51712   0.76994   0.23415   0.00000  Uiso   1.00
O304   O     0.62761   0.74885   0.07073   0.00000  Uiso   1.00
O305   O     0.89169   0.67073   0.18522   0.00000  Uiso   1.00
O306   O     0.87364   0.82205   0.10816   0.00000  Uiso   1.00
O307   O     0.61082   0.76094   0.24734   0.00000  Uiso   1.00
O308   O     0.72479   0.53238   0.07729   0.00000  Uiso   1.00
O309   O     0.82932   0.96858   0.19285   0.00000  Uiso   1.00
O310   O     0.77353   0.52919   0.25418   0.00000  Uiso   1.00
O311   O     0.67034   0.96968   0.13784   0.00000  Uiso   1.00
O312   O     0.81547   0.78974   0.16666   0.00000  Uiso   1.00
O313   O     0.68453   0.71026   0.16667   0.00000  Uiso   1.00
O314   O     0.75000   0.78973   0.09511   0.00000  Uiso   1.00
O315   O     0.75000   0.71027   0.23822   0.00000  Uiso   1.00
O316   O     0.75000   0.78973   0.23822   0.00000  Uiso   1.00
O317   O     0.75000   0.71027   0.09511   0.00000  Uiso   1.00
O318   O     0.72229   0.62714   0.04299   0.00000  Uiso   1.00
Zn319  Zn    0.75000   0.80307   0.16667   0.00000  Uiso   1.00
Zn320  Zn    0.75000   0.69693   0.16667   0.00000  Uiso   1.00
C321   C     0.16410   0.25038   0.49954   0.00000  Uiso   1.00
C322   C     0.21089   0.44785   0.48407   0.00000  Uiso   1.00
C323   C     0.24981   0.25004   0.40629   0.00000  Uiso   1.00
C324   C     0.25007   0.24995   0.59370   0.00000  Uiso   1.00
C325   C     0.24972   0.02655   0.49891   0.00000  Uiso   1.00
C326   C     0.24990   0.47335   0.49850   0.00000  Uiso   1.00
C327   C     0.24985   0.25004   0.35514   0.00000  Uiso   1.00
C328   C     0.24994   0.24991   0.64485   0.00000  Uiso   1.00
C329   C     0.05150   0.25366   0.43497   0.00000  Uiso   1.00
C330   C     0.45708   0.21028   0.48823   0.00000  Uiso   1.00
C331   C     0.44915   0.29087   0.45775   0.00000  Uiso   1.00
C332   C     0.33627   0.24974   0.49732   0.00000  Uiso   1.00
C333   C     0.04313   0.26293   0.52616   0.00000  Uiso   1.00
C334   C     0.09826   0.25151   0.44307   0.00000  Uiso   1.00
C335   C     0.41114   0.20960   0.49798   0.00000  Uiso   1.00
C336   C     0.40231   0.28814   0.46192   0.00000  Uiso   1.00
C337   C     0.08977   0.25858   0.53366   0.00000  Uiso   1.00
C338   C     0.11625   0.25203   0.49222   0.00000  Uiso   1.00
C339   C     0.38420   0.24941   0.48669   0.00000  Uiso   1.00
C340   C     0.02415   0.25827   0.47696   0.00000  Uiso   1.00
C341   C     0.47588   0.25213   0.47129   0.00000  Uiso   1.00
C342   C     0.20778   0.12697   0.41846   0.00000  Uiso   1.00
C343   C     0.23282   0.10235   0.45914   0.00000  Uiso   1.00
C344   C     0.32458   0.37397   0.54521   0.00000  Uiso   1.00
C345   C     0.28648   0.12428   0.58510   0.00000  Uiso   1.00
C346   C     0.17494   0.37453   0.45637   0.00000  Uiso   1.00
C347   C     0.28672   0.39807   0.51844   0.00000  Uiso   1.00
C348   C     0.26603   0.10093   0.54096   0.00000  Uiso   1.00
C349   C     0.21323   0.39854   0.48096   0.00000  Uiso   1.00
C350   C     0.23637   0.05310   0.45589   0.00000  Uiso   1.00
C351   C     0.28897   0.44725   0.51361   0.00000  Uiso   1.00
C352   C     0.26261   0.05160   0.54271   0.00000  Uiso   1.00
H353   H     0.15090   0.16079   0.39590   0.00000  Uiso   1.00
H354   H     0.41442   0.14576   0.52511   0.00000  Uiso   1.00
H355   H     0.38829   0.33721   0.41309   0.00000  Uiso   1.00
H356   H     0.08822   0.26546   0.60656   0.00000  Uiso   1.00
H357   H     0.23914   0.00112   0.40919   0.00000  Uiso   1.00
H358   H     0.33038   0.49919   0.50909   0.00000  Uiso   1.00
H359   H     0.25807   0.49882   0.58835   0.00000  Uiso   1.00
H360   H     0.16926   0.00075   0.48713   0.00000  Uiso   1.00
H361   H     0.39170   0.36290   0.55202   0.00000  Uiso   1.00
H362   H     0.33500   0.16625   0.61320   0.00000  Uiso   1.00
H363   H     0.10837   0.36148   0.45512   0.00000  Uiso   1.00
H364   H     0.00104   0.25332   0.38521   0.00000  Uiso   1.00
H365   H     0.01214   0.17298   0.48188   0.00000  Uiso   1.00
H366   H     0.45040   0.35838   0.45023   0.00000  Uiso   1.00
H367   H     0.48704   0.28225   0.55684   0.00000  Uiso   1.00
H368   H     0.11073   0.25069   0.37151   0.00000  Uiso   1.00
N369   N     0.25000   0.12624   0.50000   0.00000  Uiso   1.00
N370   N     0.25000   0.37377   0.50000   0.00000  Uiso   1.00
O371   O     0.18453   0.28974   0.50000   0.00000  Uiso   1.00
O372   O     0.16597   0.14728   0.42741   0.00000  Uiso   1.00
O373   O     0.31757   0.34952   0.58152   0.00000  Uiso   1.00
O374   O     0.36868   0.38105   0.53058   0.00000  Uiso   1.00
O375   O     0.27170   0.11734   0.62646   0.00000  Uiso   1.00
O376   O     0.32384   0.15260   0.58013   0.00000  Uiso   1.00
O377   O     0.18058   0.35174   0.41853   0.00000  Uiso   1.00
O378   O     0.13192   0.37938   0.47536   0.00000  Uiso   1.00
O379   O     0.03413   0.24950   0.38639   0.00000  Uiso   1.00
O380   O     0.48312   0.17084   0.49872   0.00000  Uiso   1.00
O381   O     0.47001   0.33125   0.44295   0.00000  Uiso   1.00
O382   O     0.31547   0.21026   0.50000   0.00000  Uiso   1.00
O383   O     0.01712   0.26994   0.56749   0.00000  Uiso   1.00
O384   O     0.12761   0.24885   0.40406   0.00000  Uiso   1.00
O385   O     0.39169   0.17073   0.51856   0.00000  Uiso   1.00
O386   O     0.37364   0.32205   0.44149   0.00000  Uiso   1.00
O387   O     0.11082   0.26094   0.58068   0.00000  Uiso   1.00
O388   O     0.22479   0.03238   0.41062   0.00000  Uiso   1.00
O389   O     0.32932   0.46858   0.52619   0.00000  Uiso   1.00
O390   O     0.27353   0.02919   0.58752   0.00000  Uiso   1.00
O391   O     0.17034   0.46968   0.47117   0.00000  Uiso   1.00
O392   O     0.31547   0.28974   0.50000   0.00000  Uiso   1.00
O393   O     0.18453   0.21026   0.50000   0.00000  Uiso   1.00
O394   O     0.25000   0.28973   0.42845   0.00000  Uiso   1.00
O395   O     0.25000   0.21027   0.57155   0.00000  Uiso   1.00
O396   O     0.25000   0.28973   0.57155   0.00000  Uiso   1.00
O397   O     0.25000   0.21027   0.42845   0.00000  Uiso   1.00
O398   O     0.22229   0.12714   0.37632   0.00000  Uiso   1.00
Zn399  Zn    0.25000   0.30307   0.50000   0.00000  Uiso   1.00
Zn400  Zn    0.25000   0.19693   0.50000   0.00000  Uiso   1.00
C401   C     0.66410   0.25038   0.49954   0.00000  Uiso   1.00
C402   C     0.71089   0.44785   0.48407   0.00000  Uiso   1.00
C403   C     0.74981   0.25004   0.40629   0.00000  Uiso   1.00
C404   C     0.75007   0.24995   0.59370   0.00000  Uiso   1.00
C405   C     0.74972   0.02655   0.49891   0.00000  Uiso   1.00
C406   C     0.74990   0.47335   0.49850   0.00000  Uiso   1.00
C407   C     0.74985   0.25004   0.35514   0.00000  Uiso   1.00
C408   C     0.74994   0.24991   0.64485   0.00000  Uiso   1.00
C409   C     0.55150   0.25366   0.43497   0.00000  Uiso   1.00
C410   C     0.95708   0.21028   0.48823   0.00000  Uiso   1.00
C411   C     0.94915   0.29087   0.45775   0.00000  Uiso   1.00
C412   C     0.83627   0.24974   0.49732   0.00000  Uiso   1.00
C413   C     0.54313   0.26293   0.52616   0.00000  Uiso   1.00
C414   C     0.59826   0.25151   0.44307   0.00000  Uiso   1.00
C415   C     0.91114   0.20960   0.49798   0.00000  Uiso   1.00
C416   C     0.90231   0.28814   0.46192   0.00000  Uiso   1.00
C417   C     0.58977   0.25858   0.53366   0.00000  Uiso   1.00
C418   C     0.61625   0.25203   0.49222   0.00000  Uiso   1.00
C419   C     0.88420   0.24941   0.48669   0.00000  Uiso   1.00
C420   C     0.52415   0.25827   0.47696   0.00000  Uiso   1.00
C421   C     0.97588   0.25213   0.47129   0.00000  Uiso   1.00
C422   C     0.70778   0.12697   0.41846   0.00000  Uiso   1.00
C423   C     0.73282   0.10235   0.45914   0.00000  Uiso   1.00
C424   C     0.82458   0.37397   0.54521   0.00000  Uiso   1.00
C425   C     0.78648   0.12428   0.58510   0.00000  Uiso   1.00
C426   C     0.67494   0.37453   0.45637   0.00000  Uiso   1.00
C427   C     0.78672   0.39807   0.51844   0.00000  Uiso   1.00
C428   C     0.76603   0.10093   0.54096   0.00000  Uiso   1.00
C429   C     0.71323   0.39854   0.48096   0.00000  Uiso   1.00
C430   C     0.73637   0.05310   0.45589   0.00000  Uiso   1.00
C431   C     0.78897   0.44725   0.51361   0.00000  Uiso   1.00
C432   C     0.76261   0.05160   0.54271   0.00000  Uiso   1.00
H433   H     0.65090   0.16079   0.39590   0.00000  Uiso   1.00
H434   H     0.91442   0.14576   0.52511   0.00000  Uiso   1.00
H435   H     0.88829   0.33721   0.41309   0.00000  Uiso   1.00
H436   H     0.58822   0.26546   0.60656   0.00000  Uiso   1.00
H437   H     0.73914   0.00112   0.40919   0.00000  Uiso   1.00
H438   H     0.83038   0.49919   0.50909   0.00000  Uiso   1.00
H439   H     0.75807   0.49882   0.58835   0.00000  Uiso   1.00
H440   H     0.66926   0.00075   0.48713   0.00000  Uiso   1.00
H441   H     0.89170   0.36290   0.55202   0.00000  Uiso   1.00
H442   H     0.83500   0.16625   0.61320   0.00000  Uiso   1.00
H443   H     0.60837   0.36148   0.45512   0.00000  Uiso   1.00
H444   H     0.50104   0.25332   0.38521   0.00000  Uiso   1.00
H445   H     0.51214   0.17298   0.48188   0.00000  Uiso   1.00
H446   H     0.95040   0.35838   0.45023   0.00000  Uiso   1.00
H447   H     0.98704   0.28225   0.55684   0.00000  Uiso   1.00
H448   H     0.61073   0.25069   0.37151   0.00000  Uiso   1.00
N449   N     0.75000   0.12624   0.50000   0.00000  Uiso   1.00
N450   N     0.75000   0.37377   0.50000   0.00000  Uiso   1.00
O451   O     0.68453   0.28974   0.50000   0.00000  Uiso   1.00
O452   O     0.66597   0.14728   0.42741   0.00000  Uiso   1.00
O453   O     0.81757   0.34952   0.58152   0.00000  Uiso   1.00
O454   O     0.86868   0.38105   0.53058   0.00000  Uiso   1.00
O455   O     0.77170   0.11734   0.62646   0.00000  Uiso   1.00
O456   O     0.82384   0.15260   0.58013   0.00000  Uiso   1.00
O457   O     0.68058   0.35174   0.41853   0.00000  Uiso   1.00
O458   O     0.63192   0.37938   0.47536   0.00000  Uiso   1.00
O459   O     0.53413   0.24950   0.38639   0.00000  Uiso   1.00
O460   O     0.98312   0.17084   0.49872   0.00000  Uiso   1.00
O461   O     0.97001   0.33125   0.44295   0.00000  Uiso   1.00
O462   O     0.81547   0.21026   0.50000   0.00000  Uiso   1.00
O463   O     0.51712   0.26994   0.56749   0.00000  Uiso   1.00
O464   O     0.62761   0.24885   0.40406   0.00000  Uiso   1.00
O465   O     0.89169   0.17073   0.51856   0.00000  Uiso   1.00
O466   O     0.87364   0.32205   0.44149   0.00000  Uiso   1.00
O467   O     0.61082   0.26094   0.58068   0.00000  Uiso   1.00
O468   O     0.72479   0.03238   0.41062   0.00000  Uiso   1.00
O469   O     0.82932   0.46858   0.52619   0.00000  Uiso   1.00
O470   O     0.77353   0.02919   0.58752   0.00000  Uiso   1.00
O471   O     0.67034   0.46968   0.47117   0.00000  Uiso   1.00
O472   O     0.81547   0.28974   0.50000   0.00000  Uiso   1.00
O473   O     0.68453   0.21026   0.50000   0.00000  Uiso   1.00
O474   O     0.75000   0.28973   0.42845   0.00000  Uiso   1.00
O475   O     0.75000   0.21027   0.57155   0.00000  Uiso   1.00
O476   O     0.75000   0.28973   0.57155   0.00000  Uiso   1.00
O477   O     0.75000   0.21027   0.42845   0.00000  Uiso   1.00
O478   O     0.72229   0.12714   0.37632   0.00000  Uiso   1.00
Zn479  Zn    0.75000   0.30307   0.50000   0.00000  Uiso   1.00
Zn480  Zn    0.75000   0.19693   0.50000   0.00000  Uiso   1.00
C481   C     0.16410   0.75038   0.49954   0.00000  Uiso   1.00
C482   C     0.21089   0.94785   0.48407   0.00000  Uiso   1.00
C483   C     0.24981   0.75004   0.40629   0.00000  Uiso   1.00
C484   C     0.25007   0.74995   0.59370   0.00000  Uiso   1.00
C485   C     0.24972   0.52655   0.49891   0.00000  Uiso   1.00
C486   C     0.24990   0.97335   0.49850   0.00000  Uiso   1.00
C487   C     0.24985   0.75004   0.35514   0.00000  Uiso   1.00
C488   C     0.24994   0.74991   0.64485   0.00000  Uiso   1.00
C489   C     0.05150   0.75366   0.43497   0.00000  Uiso   1.00
C490   C     0.45708   0.71028   0.48823   0.00000  Uiso   1.00
C491   C     0.44915   0.79087   0.45775   0.00000  Uiso   1.00
C492   C     0.33627   0.74974   0.49732   0.00000  Uiso   1.00
C493   C     0.04313   0.76293   0.52616   0.00000  Uiso   1.00
C494   C     0.09826   0.75151   0.44307   0.00000  Uiso   1.00
C495   C     0.41114   0.70960   0.49798   0.00000  Uiso   1.00
C496   C     0.40231   0.78814   0.46192   0.00000  Uiso   1.00
C497   C     0.08977   0.75858   0.53366   0.00000  Uiso   1.00
C498   C     0.11625   0.75203   0.49222   0.00000  Uiso   1.00
C499   C     0.38420   0.74941   0.48669   0.00000  Uiso   1.00
C500   C     0.02415   0.75827   0.47696   0.00000  Uiso   1.00
C501   C     0.47588   0.75213   0.47129   0.00000  Uiso   1.00
C502   C     0.20778   0.62697   0.41846   0.00000  Uiso   1.00
C503   C     0.23282   0.60235   0.45914   0.00000  Uiso   1.00
C504   C     0.32458   0.87397   0.54521   0.00000  Uiso   1.00
C505   C     0.28648   0.62428   0.58510   0.00000  Uiso   1.00
C506   C     0.17494   0.87453   0.45637   0.00000  Uiso   1.00
C507   C     0.28672   0.89807   0.51844   0.00000  Uiso   1.00
C508   C     0.26603   0.60093   0.54096   0.00000  Uiso   1.00
C509   C     0.21323   0.89854   0.48096   0.00000  Uiso   1.00
C510   C     0.23637   0.55310   0.45589   0.00000  Uiso   1.00
C511   C     0.28897   0.94725   0.51361   0.00000  Uiso   1.00
C512   C     0.26261   0.55160   0.54271   0.00000  Uiso   1.00
H513   H     0.15090   0.66079   0.39590   0.00000  Uiso   1.00
H514   H     0.41442   0.64576   0.52511   0.00000  Uiso   1.00
H515   H     0.38829   0.83721   0.41309   0.00000  Uiso   1.00
H516   H     0.08822   0.76546   0.60656   0.00000  Uiso   1.00
H517   H     0.23914   0.50112   0.40919   0.00000  Uiso   1.00
H518   H     0.33038   0.99919   0.50909   0.00000  Uiso   1.00
H519   H     0.25807   0.99882   0.58835   0.00000  Uiso   1.00
H520   H     0.16926   0.50075   0.48713   0.00000  Uiso   1.00
H521   H     0.39170   0.86290   0.55202   0.00000  Uiso   1.00
H522   H     0.33500   0.66625   0.61320   0.00000  Uiso   1.00
H523   H     0.10837   0.86148   0.45512   0.00000  Uiso   1.00
H524   H     0.00104   0.75332   0.38521   0.00000  Uiso   1.00
H525   H     0.01214   0.67298   0.48188   0.00000  Uiso   1.00
H526   H     0.45040   0.85838   0.45023   0.00000  Uiso   1.00
H527   H     0.48704   0.78225   0.55684   0.00000  Uiso   1.00
H528   H     0.11073   0.75069   0.37151   0.00000  Uiso   1.00
N529   N     0.25000   0.62624   0.50000   0.00000  Uiso   1.00
N530   N     0.25000   0.87377   0.50000   0.00000  Uiso   1.00
O531   O     0.18453   0.78974   0.50000   0.00000  Uiso   1.00
O532   O     0.16597   0.64728   0.42741   0.00000  Uiso   1.00
O533   O     0.31757   0.84952   0.58152   0.00000  Uiso   1.00
O534   O     0.36868   0.88105   0.53058   0.00000  Uiso   1.00
O535   O     0.27170   0.61734   0.62646   0.00000  Uiso   1.00
O536   O     0.32384   0.65260   0.58013   0.00000  Uiso   1.00
O537   O     0.18058   0.85174   0.41853   0.00000  Uiso   1.00
O538   O     0.13192   0.87938   0.47536   0.00000  Uiso   1.00
O539   O     0.03413   0.74950   0.38639   0.00000  Uiso   1.00
O540   O     0.48312   0.67084   0.49872   0.00000  Uiso   1.00
O541   O     0.47001   0.83125   0.44295   0.00000  Uiso   1.00
O542   O     0.31547   0.71026   0.50000   0.00000  Uiso   1.00
O543   O     0.01712   0.76994   0.56749   0.00000  Uiso   1.00
O544   O     0.12761   0.74885   0.40406   0.00000  Uiso   1.00
O545   O     0.39169   0.67073   0.51856   0.00000  Uiso   1.00
O546   O     0.37364   0.82205   0.44149   0.00000  Uiso   1.00
O547   O     0.11082   0.76094   0.58068   0.00000  Uiso   1.00
O548   O     0.22479   0.53238   0.41062   0.00000  Uiso   1.00
O549   O     0.32932   0.96858   0.52619   0.00000  Uiso   1.00
O550   O     0.27353   0.52919   0.58752   0.00000  Uiso   1.00
O551   O     0.17034   0.96968   0.47117   0.00000  Uiso   1.00
O552   O     0.31547   0.78974   0.50000   0.00000  Uiso   1.00
O553   O     0.18453   0.71026   0.50000   0.00000  Uiso   1.00
O554   O     0.25000   0.78973   0.42845   0.00000  Uiso   1.00
O555   O     0.25000   0.71027   0.57155   0.00000  Uiso   1.00
O556   O     0.25000   0.78973   0.57155   0.00000  Uiso   1.00
O557   O     0.25000   0.71027   0.42845   0.00000  Uiso   1.00
O558   O     0.22229   0.62714   0.37632   0.00000  Uiso   1.00
Zn559  Zn    0.25000   0.80307   0.50000   0.00000  Uiso   1.00
Zn560  Zn    0.25000   0.69693   0.50000   0.00000  Uiso   1.00
C561   C     0.66410   0.75038   0.49954   0.00000  Uiso   1.00
C562   C     0.71089   0.94785   0.48407   0.00000  Uiso   1.00
C563   C     0.74981   0.75004   0.40629   0.00000  Uiso   1.00
C564   C     0.75007   0.74995   0.59370   0.00000  Uiso   1.00
C565   C     0.74972   0.52655   0.49891   0.00000  Uiso   1.00
C566   C     0.74990   0.97335   0.49850   0.00000  Uiso   1.00
C567   C     0.74985   0.75004   0.35514   0.00000  Uiso   1.00
C568   C     0.74994   0.74991   0.64485   0.00000  Uiso   1.00
C569   C     0.55150   0.75366   0.43497   0.00000  Uiso   1.00
C570   C     0.95708   0.71028   0.48823   0.00000  Uiso   1.00
C571   C     0.94915   0.79087   0.45775   0.00000  Uiso   1.00
C572   C     0.83627   0.74974   0.49732   0.00000  Uiso   1.00
C573   C     0.54313   0.76293   0.52616   0.00000  Uiso   1.00
C574   C     0.59826   0.75151   0.44307   0.00000  Uiso   1.00
C575   C     0.91114   0.70960   0.49798   0.00000  Uiso   1.00
C576   C     0.90231   0.78814   0.46192   0.00000  Uiso   1.00
C577   C     0.58977   0.75858   0.53366   0.00000  Uiso   1.00
C578   C     0.61625   0.75203   0.49222   0.00000  Uiso   1.00
C579   C     0.88420   0.74941   0.48669   0.00000  Uiso   1.00
C580   C     0.52415   0.75827   0.47696   0.00000  Uiso   1.00
C581   C     0.97588   0.75213   0.47129   0.00000  Uiso   1.00
C582   C     0.70778   0.62697   0.41846   0.00000  Uiso   1.00
C583   C     0.73282   0.60235   0.45914   0.00000  Uiso   1.00
C584   C     0.82458   0.87397   0.54521   0.00000  Uiso   1.00
C585   C     0.78648   0.62428   0.58510   0.00000  Uiso   1.00
C586   C     0.67494   0.87453   0.45637   0.00000  Uiso   1.00
C587   C     0.78672   0.89807   0.51844   0.00000  Uiso   1.00
C588   C     0.76603   0.60093   0.54096   0.00000  Uiso   1.00
C589   C     0.71323   0.89854   0.48096   0.00000  Uiso   1.00
C590   C     0.73637   0.55310   0.45589   0.00000  Uiso   1.00
C591   C     0.78897   0.94725   0.51361   0.00000  Uiso   1.00
C592   C     0.76261   0.55160   0.54271   0.00000  Uiso   1.00
H593   H     0.65090   0.66079   0.39590   0.00000  Uiso   1.00
H594   H     0.91442   0.64576   0.52511   0.00000  Uiso   1.00
H595   H     0.88829   0.83721   0.41309   0.00000  Uiso   1.00
H596   H     0.58822   0.76546   0.60656   0.00000  Uiso   1.00
H597   H     0.73914   0.50112   0.40919   0.00000  Uiso   1.00
H598   H     0.83038   0.99919   0.50909   0.00000  Uiso   1.00
H599   H     0.75807   0.99882   0.58835   0.00000  Uiso   1.00
H600   H     0.66926   0.50075   0.48713   0.00000  Uiso   1.00
H601   H     0.89170   0.86290   0.55202   0.00000  Uiso   1.00
H602   H     0.83500   0.66625   0.61320   0.00000  Uiso   1.00
H603   H     0.60837   0.86148   0.45512   0.00000  Uiso   1.00
H604   H     0.50104   0.75332   0.38521   0.00000  Uiso   1.00
H605   H     0.51214   0.67298   0.48188   0.00000  Uiso   1.00
H606   H     0.95040   0.85838   0.45023   0.00000  Uiso   1.00
H607   H     0.98704   0.78225   0.55684   0.00000  Uiso   1.00
H608   H     0.61073   0.75069   0.37151   0.00000  Uiso   1.00
N609   N     0.75000   0.62624   0.50000   0.00000  Uiso   1.00
N610   N     0.75000   0.87377   0.50000   0.00000  Uiso   1.00
O611   O     0.68453   0.78974   0.50000   0.00000  Uiso   1.00
O612   O     0.66597   0.64728   0.42741   0.00000  Uiso   1.00
O613   O     0.81757   0.84952   0.58152   0.00000  Uiso   1.00
O614   O     0.86868   0.88105   0.53058   0.00000  Uiso   1.00
O615   O     0.77170   0.61734   0.62646   0.00000  Uiso   1.00
O616   O     0.82384   0.65260   0.58013   0.00000  Uiso   1.00
O617   O     0.68058   0.85174   0.41853   0.00000  Uiso   1.00
O618   O     0.63192   0.87938   0.47536   0.00000  Uiso   1.00
O619   O     0.53413   0.74950   0.38639   0.00000  Uiso   1.00
O620   O     0.98312   0.67084   0.49872   0.00000  Uiso   1.00
O621   O     0.97001   0.83125   0.44295   0.00000  Uiso   1.00
O622   O     0.81547   0.71026   0.50000   0.00000  Uiso   1.00
O623   O     0.51712   0.76994   0.56749   0.00000  Uiso   1.00
O624   O     0.62761   0.74885   0.40406   0.00000  Uiso   1.00
O625   O     0.89169   0.67073   0.51856   0.00000  Uiso   1.00
O626   O     0.87364   0.82205   0.44149   0.00000  Uiso   1.00
O627   O     0.61082   0.76094   0.58068   0.00000  Uiso   1.00
O628   O     0.72479   0.53238   0.41062   0.00000  Uiso   1.00
O629   O     0.82932   0.96858   0.52619   0.00000  Uiso   1.00
O630   O     0.77353   0.52919   0.58752   0.00000  Uiso   1.00
O631   O     0.67034   0.96968   0.47117   0.00000  Uiso   1.00
O632   O     0.81547   0.78974   0.50000   0.00000  Uiso   1.00
O633   O     0.68453   0.71026   0.50000   0.00000  Uiso   1.00
O634   O     0.75000   0.78973   0.42845   0.00000  Uiso   1.00
O635   O     0.75000   0.71027   0.57155   0.00000  Uiso   1.00
O636   O     0.75000   0.78973   0.57155   0.00000  Uiso   1.00
O637   O     0.75000   0.71027   0.42845   0.00000  Uiso   1.00
O638   O     0.72229   0.62714   0.37632   0.00000  Uiso   1.00
Zn639  Zn    0.75000   0.80307   0.50000   0.00000  Uiso   1.00
Zn640  Zn    0.75000   0.69693   0.50000   0.00000  Uiso   1.00
C641   C     0.16410   0.25038   0.83287   0.00000  Uiso   1.00
C642   C     0.21089   0.44785   0.81741   0.00000  Uiso   1.00
C643   C     0.24981   0.25004   0.73963   0.00000  Uiso   1.00
C644   C     0.25007   0.24995   0.92704   0.00000  Uiso   1.00
C645   C     0.24972   0.02655   0.83224   0.00000  Uiso   1.00
C646   C     0.24990   0.47335   0.83183   0.00000  Uiso   1.00
C647   C     0.24985   0.25004   0.68847   0.00000  Uiso   1.00
C648   C     0.24994   0.24991   0.97819   0.00000  Uiso   1.00
C649   C     0.05150   0.25366   0.76830   0.00000  Uiso   1.00
C650   C     0.45708   0.21028   0.82157   0.00000  Uiso   1.00
C651   C     0.44915   0.29087   0.79108   0.00000  Uiso   1.00
C652   C     0.33627   0.24974   0.83066   0.00000  Uiso   1.00
C653   C     0.04313   0.26293   0.85949   0.00000  Uiso   1.00
C654   C     0.09826   0.25151   0.77641   0.00000  Uiso   1.00
C655   C     0.41114   0.20960   0.83131   0.00000  Uiso   1.00
C656   C     0.40231   0.28814   0.79526   0.00000  Uiso   1.00
C657   C     0.08977   0.25858   0.86699   0.00000  Uiso   1.00
C658   C     0.11625   0.25203   0.82555   0.00000  Uiso   1.00
C659   C     0.38420   0.24941   0.82002   0.00000  Uiso   1.00
C660   C     0.02415   0.25827   0.81029   0.00000  Uiso   1.00
C661   C     0.47588   0.25213   0.80463   0.00000  Uiso   1.00
C662   C     0.20778   0.12697   0.75179   0.00000  Uiso   1.00
C663   C     0.23282   0.10235   0.79247   0.00000  Uiso   1.00
C664   C     0.32458   0.37397   0.87854   0.00000  Uiso   1.00
C665   C     0.28648   0.12428   0.91843   0.00000  Uiso   1.00
C666   C     0.17494   0.37453   0.78971   0.00000  Uiso   1.00
C667   C     0.28672   0.39807   0.85178   0.00000  Uiso   1.00
C668   C     0.26603   0.10093   0.87430   0.00000  Uiso   1.00
C669   C     0.21323   0.39854   0.81429   0.00000  Uiso   1.00
C670   C     0.23637   0.05310   0.78922   0.00000  Uiso   1.00
C671   C     0.28897   0.44725   0.84695   0.00000  Uiso   1.00
C672   C     0.26261   0.05160   0.87604   0.00000  Uiso   1.00
H673   H     0.15090   0.16079   0.72923   0.00000  Uiso   1.00
H674   H     0.41442   0.14576   0.85845   0.00000  Uiso   1.00
H675   H     0.38829   0.33721   0.74643   0.00000  Uiso   1.00
H676   H     0.08822   0.26546   0.93989   0.00000  Uiso   1.00
H677   H     0.23914   0.00112   0.74252   0.00000  Uiso   1.00
H678   H     0.33038   0.49919   0.84242   0.00000  Uiso   1.00
H679   H     0.25807   0.49882   0.92169   0.00000  Uiso   1.00
H680   H     0.16926   0.00075   0.82046   0.00000  Uiso   1.00
H681   H     0.39170   0.36290   0.88535   0.00000  Uiso   1.00
H682   H     0.33500   0.16625   0.94653   0.00000  Uiso   1.00
H683   H     0.10837   0.36148   0.78845   0.00000  Uiso   1.00
H684   H     0.00104   0.25332   0.71854   0.00000  Uiso   1.00
H685   H     0.01214   0.17298   0.81521   0.00000  Uiso   1.00
H686   H     0.45040   0.35838   0.78357   0.00000  Uiso   1.00
H687   H     0.48704   0.28225   0.89017   0.00000  Uiso   1.00
H688   H     0.11073   0.25069   0.70485   0.00000  Uiso   1.00
N689   N     0.25000   0.12624   0.83333   0.00000  Uiso   1.00
N690   N     0.25000   0.37377   0.83333   0.00000  Uiso   1.00
O691   O     0.18453   0.28974   0.83334   0.00000  Uiso   1.00
O692   O     0.16597   0.14728   0.76075   0.00000  Uiso   1.00
O693   O     0.31757   0.34952   0.91485   0.00000  Uiso   1.00
O694   O     0.36868   0.38105   0.86391   0.00000  Uiso   1.00
O695   O     0.27170   0.11734   0.95979   0.00000  Uiso   1.00
O696   O     0.32384   0.15260   0.91346   0.00000  Uiso   1.00
O697   O     0.18058   0.35174   0.75186   0.00000  Uiso   1.00
O698   O     0.13192   0.37938   0.80869   0.00000  Uiso   1.00
O699   O     0.03413   0.24950   0.71973   0.00000  Uiso   1.00
O700   O     0.48312   0.17084   0.83205   0.00000  Uiso   1.00
O701   O     0.47001   0.33125   0.77628   0.00000  Uiso   1.00
O702   O     0.31547   0.21026   0.83333   0.00000  Uiso   1.00
O703   O     0.01712   0.26994   0.90082   0.00000  Uiso   1.00
O704   O     0.12761   0.24885   0.73740   0.00000  Uiso   1.00
O705   O     0.39169   0.17073   0.85189   0.00000  Uiso   1.00
O706   O     0.37364   0.32205   0.77483   0.00000  Uiso   1.00
O707   O     0.11082   0.26094   0.91401   0.00000  Uiso   1.00
O708   O     0.22479   0.03238   0.74395   0.00000  Uiso   1.00
O709   O     0.32932   0.46858   0.85952   0.00000  Uiso   1.00
O710   O     0.27353   0.02919   0.92085   0.00000  Uiso   1.00
O711   O     0.17034   0.46968   0.80451   0.00000  Uiso   1.00
O712   O     0.31547   0.28974   0.83333   0.00000  Uiso   1.00
O713   O     0.18453   0.21026   0.83334   0.00000  Uiso   1.00
O714   O     0.25000   0.28973   0.76178   0.00000  Uiso   1.00
O715   O     0.25000   0.21027   0.90489   0.00000  Uiso   1.00
O716   O     0.25000   0.28973   0.90489   0.00000  Uiso   1.00
O717   O     0.25000   0.21027   0.76178   0.00000  Uiso   1.00
O718   O     0.22229   0.12714   0.70966   0.00000  Uiso   1.00
Zn719  Zn    0.25000   0.30307   0.83333   0.00000  Uiso   1.00
Zn720  Zn    0.25000   0.19693   0.83333   0.00000  Uiso   1.00
C721   C     0.66410   0.25038   0.83287   0.00000  Uiso   1.00
C722   C     0.71089   0.44785   0.81741   0.00000  Uiso   1.00
C723   C     0.74981   0.25004   0.73963   0.00000  Uiso   1.00
C724   C     0.75007   0.24995   0.92704   0.00000  Uiso   1.00
C725   C     0.74972   0.02655   0.83224   0.00000  Uiso   1.00
C726   C     0.74990   0.47335   0.83183   0.00000  Uiso   1.00
C727   C     0.74985   0.25004   0.68847   0.00000  Uiso   1.00
C728   C     0.74994   0.24991   0.97819   0.00000  Uiso   1.00
C729   C     0.55150   0.25366   0.76830   0.00000  Uiso   1.00
C730   C     0.95708   0.21028   0.82157   0.00000  Uiso   1.00
C731   C     0.94915   0.29087   0.79108   0.00000  Uiso   1.00
C732   C     0.83627   0.24974   0.83066   0.00000  Uiso   1.00
C733   C     0.54313   0.26293   0.85949   0.00000  Uiso   1.00
C734   C     0.59826   0.25151   0.77641   0.00000  Uiso   1.00
C735   C     0.91114   0.20960   0.83131   0.00000  Uiso   1.00
C736   C     0.90231   0.28814   0.79526   0.00000  Uiso   1.00
C737   C     0.58977   0.25858   0.86699   0.00000  Uiso   1.00
C738   C     0.61625   0.25203   0.82555   0.00000  Uiso   1.00
C739   C     0.88420   0.24941   0.82002   0.00000  Uiso   1.00
C740   C     0.52415   0.25827   0.81029   0.00000  Uiso   1.00
C741   C     0.97588   0.25213   0.80463   0.00000  Uiso   1.00
C742   C     0.70778   0.12697   0.75179   0.00000  Uiso   1.00
C743   C     0.73282   0.10235   0.79247   0.00000  Uiso   1.00
C744   C     0.82458   0.37397   0.87854   0.00000  Uiso   1.00
C745   C     0.78648   0.12428   0.91843   0.00000  Uiso   1.00
C746   C     0.67494   0.37453   0.78971   0.00000  Uiso   1.00
C747   C     0.78672   0.39807   0.85178   0.00000  Uiso   1.00
C748   C     0.76603   0.10093   0.87430   0.00000  Uiso   1.00
C749   C     0.71323   0.39854   0.81429   0.00000  Uiso   1.00
C750   C     0.73637   0.05310   0.78922   0.00000  Uiso   1.00
C751   C     0.78897   0.44725   0.84695   0.00000  Uiso   1.00
C752   C     0.76261   0.05160   0.87604   0.00000  Uiso   1.00
H753   H     0.65090   0.16079   0.72923   0.00000  Uiso   1.00
H754   H     0.91442   0.14576   0.85845   0.00000  Uiso   1.00
H755   H     0.88829   0.33721   0.74643   0.00000  Uiso   1.00
H756   H     0.58822   0.26546   0.93989   0.00000  Uiso   1.00
H757   H     0.73914   0.00112   0.74252   0.00000  Uiso   1.00
H758   H     0.83038   0.49919   0.84242   0.00000  Uiso   1.00
H759   H     0.75807   0.49882   0.92169   0.00000  Uiso   1.00
H760   H     0.66926   0.00075   0.82046   0.00000  Uiso   1.00
H761   H     0.89170   0.36290   0.88535   0.00000  Uiso   1.00
H762   H     0.83500   0.16625   0.94653   0.00000  Uiso   1.00
H763   H     0.60837   0.36148   0.78845   0.00000  Uiso   1.00
H764   H     0.50104   0.25332   0.71854   0.00000  Uiso   1.00
H765   H     0.51214   0.17298   0.81521   0.00000  Uiso   1.00
H766   H     0.95040   0.35838   0.78357   0.00000  Uiso   1.00
H767   H     0.98704   0.28225   0.89017   0.00000  Uiso   1.00
H768   H     0.61073   0.25069   0.70485   0.00000  Uiso   1.00
N769   N     0.75000   0.12624   0.83333   0.00000  Uiso   1.00
N770   N     0.75000   0.37377   0.83333   0.00000  Uiso   1.00
O771   O     0.68453   0.28974   0.83334   0.00000  Uiso   1.00
O772   O     0.66597   0.14728   0.76075   0.00000  Uiso   1.00
O773   O     0.81757   0.34952   0.91485   0.00000  Uiso   1.00
O774   O     0.86868   0.38105   0.86391   0.00000  Uiso   1.00
O775   O     0.77170   0.11734   0.95979   0.00000  Uiso   1.00
O776   O     0.82384   0.15260   0.91346   0.00000  Uiso   1.00
O777   O     0.68058   0.35174   0.75186   0.00000  Uiso   1.00
O778   O     0.63192   0.37938   0.80869   0.00000  Uiso   1.00
O779   O     0.53413   0.24950   0.71973   0.00000  Uiso   1.00
O780   O     0.98312   0.17084   0.83205   0.00000  Uiso   1.00
O781   O     0.97001   0.33125   0.77628   0.00000  Uiso   1.00
O782   O     0.81547   0.21026   0.83333   0.00000  Uiso   1.00
O783   O     0.51712   0.26994   0.90082   0.00000  Uiso   1.00
O784   O     0.62761   0.24885   0.73740   0.00000  Uiso   1.00
O785   O     0.89169   0.17073   0.85189   0.00000  Uiso   1.00
O786   O     0.87364   0.32205   0.77483   0.00000  Uiso   1.00
O787   O     0.61082   0.26094   0.91401   0.00000  Uiso   1.00
O788   O     0.72479   0.03238   0.74395   0.00000  Uiso   1.00
O789   O     0.82932   0.46858   0.85952   0.00000  Uiso   1.00
O790   O     0.77353   0.02919   0.92085   0.00000  Uiso   1.00
O791   O     0.67034   0.46968   0.80451   0.00000  Uiso   1.00
O792   O     0.81547   0.28974   0.83333   0.00000  Uiso   1.00
O793   O     0.68453   0.21026   0.83334   0.00000  Uiso   1.00
O794   O     0.75000   0.28973   0.76178   0.00000  Uiso   1.00
O795   O     0.75000   0.21027   0.90489   0.00000  Uiso   1.00
O796   O     0.75000   0.28973   0.90489   0.00000  Uiso   1.00
O797   O     0.75000   0.21027   0.76178   0.00000  Uiso   1.00
O798   O     0.72229   0.12714   0.70966   0.00000  Uiso   1.00
Zn799  Zn    0.75000   0.30307   0.83333   0.00000  Uiso   1.00
Zn800  Zn    0.75000   0.19693   0.83333   0.00000  Uiso   1.00
C801   C     0.16410   0.75038   0.83287   0.00000  Uiso   1.00
C802   C     0.21089   0.94785   0.81741   0.00000  Uiso   1.00
C803   C     0.24981   0.75004   0.73963   0.00000  Uiso   1.00
C804   C     0.25007   0.74995   0.92704   0.00000  Uiso   1.00
C805   C     0.24972   0.52655   0.83224   0.00000  Uiso   1.00
C806   C     0.24990   0.97335   0.83183   0.00000  Uiso   1.00
C807   C     0.24985   0.75004   0.68847   0.00000  Uiso   1.00
C808   C     0.24994   0.74991   0.97819   0.00000  Uiso   1.00
C809   C     0.05150   0.75366   0.76830   0.00000  Uiso   1.00
C810   C     0.45708   0.71028   0.82157   0.00000  Uiso   1.00
C811   C     0.44915   0.79087   0.79108   0.00000  Uiso   1.00
C812   C     0.33627   0.74974   0.83066   0.00000  Uiso   1.00
C813   C     0.04313   0.76293   0.85949   0.00000  Uiso   1.00
C814   C     0.09826   0.75151   0.77641   0.00000  Uiso   1.00
C815   C     0.41114   0.70960   0.83131   0.00000  Uiso   1.00
C816   C     0.40231   0.78814   0.79526   0.00000  Uiso   1.00
C817   C     0.08977   0.75858   0.86699   0.00000  Uiso   1.00
C818   C     0.11625   0.75203   0.82555   0.00000  Uiso   1.00
C819   C     0.38420   0.74941   0.82002   0.00000  Uiso   1.00
C820   C     0.02415   0.75827   0.81029   0.00000  Uiso   1.00
C821   C     0.47588   0.75213   0.80463   0.00000  Uiso   1.00
C822   C     0.20778   0.62697   0.75179   0.00000  Uiso   1.00
C823   C     0.23282   0.60235   0.79247   0.00000  Uiso   1.00
C824   C     0.32458   0.87397   0.87854   0.00000  Uiso   1.00
C825   C     0.28648   0.62428   0.91843   0.00000  Uiso   1.00
C826   C     0.17494   0.87453   0.78971   0.00000  Uiso   1.00
C827   C     0.28672   0.89807   0.85178   0.00000  Uiso   1.00
C828   C     0.26603   0.60093   0.87430   0.00000  Uiso   1.00
C829   C     0.21323   0.89854   0.81429   0.00000  Uiso   1.00
C830   C     0.23637   0.55310   0.78922   0.00000  Uiso   1.00
C831   C     0.28897   0.94725   0.84695   0.00000  Uiso   1.00
C832   C     0.26261   0.55160   0.87604   0.00000  Uiso   1.00
H833   H     0.15090   0.66079   0.72923   0.00000  Uiso   1.00
H834   H     0.41442   0.64576   0.85845   0.00000  Uiso   1.00
H835   H     0.38829   0.83721   0.74643   0.00000  Uiso   1.00
H836   H     0.08822   0.76546   0.93989   0.00000  Uiso   1.00
H837   H     0.23914   0.50112   0.74252   0.00000  Uiso   1.00
H838   H     0.33038   0.99919   0.84242   0.00000  Uiso   1.00
H839   H     0.25807   0.99882   0.92169   0.00000  Uiso   1.00
H840   H     0.16926   0.50075   0.82046   0.00000  Uiso   1.00
H841   H     0.39170   0.86290   0.88535   0.00000  Uiso   1.00
H842   H     0.33500   0.66625   0.94653   0.00000  Uiso   1.00
H843   H     0.10837   0.86148   0.78845   0.00000  Uiso   1.00
H844   H     0.00104   0.75332   0.71854   0.00000  Uiso   1.00
H845   H     0.01214   0.67298   0.81521   0.00000  Uiso   1.00
H846   H     0.45040   0.85838   0.78357   0.00000  Uiso   1.00
H847   H     0.48704   0.78225   0.89017   0.00000  Uiso   1.00
H848   H     0.11073   0.75069   0.70485   0.00000  Uiso   1.00
N849   N     0.25000   0.62624   0.83333   0.00000  Uiso   1.00
N850   N     0.25000   0.87377   0.83333   0.00000  Uiso   1.00
O851   O     0.18453   0.78974   0.83334   0.00000  Uiso   1.00
O852   O     0.16597   0.64728   0.76075   0.00000  Uiso   1.00
O853   O     0.31757   0.84952   0.91485   0.00000  Uiso   1.00
O854   O     0.36868   0.88105   0.86391   0.00000  Uiso   1.00
O855   O     0.27170   0.61734   0.95979   0.00000  Uiso   1.00
O856   O     0.32384   0.65260   0.91346   0.00000  Uiso   1.00
O857   O     0.18058   0.85174   0.75186   0.00000  Uiso   1.00
O858   O     0.13192   0.87938   0.80869   0.00000  Uiso   1.00
O859   O     0.03413   0.74950   0.71973   0.00000  Uiso   1.00
O860   O     0.48312   0.67084   0.83205   0.00000  Uiso   1.00
O861   O     0.47001   0.83125   0.77628   0.00000  Uiso   1.00
O862   O     0.31547   0.71026   0.83333   0.00000  Uiso   1.00
O863   O     0.01712   0.76994   0.90082   0.00000  Uiso   1.00
O864   O     0.12761   0.74885   0.73740   0.00000  Uiso   1.00
O865   O     0.39169   0.67073   0.85189   0.00000  Uiso   1.00
O866   O     0.37364   0.82205   0.77483   0.00000  Uiso   1.00
O867   O     0.11082   0.76094   0.91401   0.00000  Uiso   1.00
O868   O     0.22479   0.53238   0.74395   0.00000  Uiso   1.00
O869   O     0.32932   0.96858   0.85952   0.00000  Uiso   1.00
O870   O     0.27353   0.52919   0.92085   0.00000  Uiso   1.00
O871   O     0.17034   0.96968   0.80451   0.00000  Uiso   1.00
O872   O     0.31547   0.78974   0.83333   0.00000  Uiso   1.00
O873   O     0.18453   0.71026   0.83334   0.00000  Uiso   1.00
O874   O     0.25000   0.78973   0.76178   0.00000  Uiso   1.00
O875   O     0.25000   0.71027   0.90489   0.00000  Uiso   1.00
O876   O     0.25000   0.78973   0.90489   0.00000  Uiso   1.00
O877   O     0.25000   0.71027   0.76178   0.00000  Uiso   1.00
O878   O     0.22229   0.62714   0.70966   0.00000  Uiso   1.00
Zn879  Zn    0.25000   0.80307   0.83333   0.00000  Uiso   1.00
Zn880  Zn    0.25000   0.69693   0.83333   0.00000  Uiso   1.00
C881   C     0.66410   0.75038   0.83287   0.00000  Uiso   1.00
C882   C     0.71089   0.94785   0.81741   0.00000  Uiso   1.00
C883   C     0.74981   0.75004   0.73963   0.00000  Uiso   1.00
C884   C     0.75007   0.74995   0.92704   0.00000  Uiso   1.00
C885   C     0.74972   0.52655   0.83224   0.00000  Uiso   1.00
C886   C     0.74990   0.97335   0.83183   0.00000  Uiso   1.00
C887   C     0.74985   0.75004   0.68847   0.00000  Uiso   1.00
C888   C     0.74994   0.74991   0.97819   0.00000  Uiso   1.00
C889   C     0.55150   0.75366   0.76830   0.00000  Uiso   1.00
C890   C     0.95708   0.71028   0.82157   0.00000  Uiso   1.00
C891   C     0.94915   0.79087   0.79108   0.00000  Uiso   1.00
C892   C     0.83627   0.74974   0.83066   0.00000  Uiso   1.00
C893   C     0.54313   0.76293   0.85949   0.00000  Uiso   1.00
C894   C     0.59826   0.75151   0.77641   0.00000  Uiso   1.00
C895   C     0.91114   0.70960   0.83131   0.00000  Uiso   1.00
C896   C     0.90231   0.78814   0.79526   0.00000  Uiso   1.00
C897   C     0.58977   0.75858   0.86699   0.00000  Uiso   1.00
C898   C     0.61625   0.75203   0.82555   0.00000  Uiso   1.00
C899   C     0.88420   0.74941   0.82002   0.00000  Uiso   1.00
C900   C     0.52415   0.75827   0.81029   0.00000  Uiso   1.00
C901   C     0.97588   0.75213   0.80463   0.00000  Uiso   1.00
C902   C     0.70778   0.62697   0.75179   0.00000  Uiso   1.00
C903   C     0.73282   0.60235   0.79247   0.00000  Uiso   1.00
C904   C     0.82458   0.87397   0.87854   0.00000  Uiso   1.00
C905   C     0.78648   0.62428   0.91843   0.00000  Uiso   1.00
C906   C     0.67494   0.87453   0.78971   0.00000  Uiso   1.00
C907   C     0.78672   0.89807   0.85178   0.00000  Uiso   1.00
C908   C     0.76603   0.60093   0.87430   0.00000  Uiso   1.00
C909   C     0.71323   0.89854   0.81429   0.00000  Uiso   1.00
C910   C     0.73637   0.55310   0.78922   0.00000  Uiso   1.00
C911   C     0.78897   0.94725   0.84695   0.00000  Uiso   1.00
C912   C     0.76261   0.55160   0.87604   0.00000  Uiso   1.00
H913   H     0.65090   0.66079   0.72923   0.00000  Uiso   1.00
H914   H     0.91442   0.64576   0.85845   0.00000  Uiso   1.00
H915   H     0.88829   0.83721   0.74643   0.00000  Uiso   1.00
H916   H     0.58822   0.76546   0.93989   0.00000  Uiso   1.00
H917   H     0.73914   0.50112   0.74252   0.00000  Uiso   1.00
H918   H     0.83038   0.99919   0.84242   0.00000  Uiso   1.00
H919   H     0.75807   0.99882   0.92169   0.00000  Uiso   1.00
H920   H     0.66926   0.50075   0.82046   0.00000  Uiso   1.00
H921   H     0.89170   0.86290   0.88535   0.00000  Uiso   1.00
H922   H     0.83500   0.66625   0.94653   0.00000  Uiso   1.00
H923   H     0.60837   0.86148   0.78845   0.00000  Uiso   1.00
H924   H     0.50104   0.75332   0.71854   0.00000  Uiso   1.00
H925   H     0.51214   0.67298   0.81521   0.00000  Uiso   1.00
H926   H     0.95040   0.85838   0.78357   0.00000  Uiso   1.00
H927   H     0.98704   0.78225   0.89017   0.00000  Uiso   1.00
H928   H     0.61073   0.75069   0.70485   0.00000  Uiso   1.00
N929   N     0.75000   0.62624   0.83333   0.00000  Uiso   1.00
N930   N     0.75000   0.87377   0.83333   0.00000  Uiso   1.00
O931   O     0.68453   0.78974   0.83334   0.00000  Uiso   1.00
O932   O     0.66597   0.64728   0.76075   0.00000  Uiso   1.00
O933   O     0.81757   0.84952   0.91485   0.00000  Uiso   1.00
O934   O     0.86868   0.88105   0.86391   0.00000  Uiso   1.00
O935   O     0.77170   0.61734   0.95979   0.00000  Uiso   1.00
O936   O     0.82384   0.65260   0.91346   0.00000  Uiso   1.00
O937   O     0.68058   0.85174   0.75186   0.00000  Uiso   1.00
O938   O     0.63192   0.87938   0.80869   0.00000  Uiso   1.00
O939   O     0.53413   0.74950   0.71973   0.00000  Uiso   1.00
O940   O     0.98312   0.67084   0.83205   0.00000  Uiso   1.00
O941   O     0.97001   0.83125   0.77628   0.00000  Uiso   1.00
O942   O     0.81547   0.71026   0.83333   0.00000  Uiso   1.00
O943   O     0.51712   0.76994   0.90082   0.00000  Uiso   1.00
O944   O     0.62761   0.74885   0.73740   0.00000  Uiso   1.00
O945   O     0.89169   0.67073   0.85189   0.00000  Uiso   1.00
O946   O     0.87364   0.82205   0.77483   0.00000  Uiso   1.00
O947   O     0.61082   0.76094   0.91401   0.00000  Uiso   1.00
O948   O     0.72479   0.53238   0.74395   0.00000  Uiso   1.00
O949   O     0.82932   0.96858   0.85952   0.00000  Uiso   1.00
O950   O     0.77353   0.52919   0.92085   0.00000  Uiso   1.00
O951   O     0.67034   0.96968   0.80451   0.00000  Uiso   1.00
O952   O     0.81547   0.78974   0.83333   0.00000  Uiso   1.00
O953   O     0.68453   0.71026   0.83334   0.00000  Uiso   1.00
O954   O     0.75000   0.78973   0.76178   0.00000  Uiso   1.00
O955   O     0.75000   0.71027   0.90489   0.00000  Uiso   1.00
O956   O     0.75000   0.78973   0.90489   0.00000  Uiso   1.00
O957   O     0.75000   0.71027   0.76178   0.00000  Uiso   1.00
O958   O     0.72229   0.62714   0.70966   0.00000  Uiso   1.00
Zn959  Zn    0.75000   0.80307   0.83333   0.00000  Uiso   1.00
Zn960  Zn    0.75000   0.69693   0.83333   0.00000  Uiso   1.00
loop_
_geom_bond_atom_site_label_1
_geom_bond_atom_site_label_2
_geom_bond_distance
_geom_bond_site_symmetry_2
_ccdc_geom_bond_type
C1     C18     1.428   .     S
C1     O51     1.287   .     A
C1     O73     1.294   .     A
C2     C29     1.417   .     A
C2     C6      1.420   .     A
C2     O71     1.383   .     S
C3     C7      1.367   .     S
C3     O74     1.284   .     A
C3     O77     1.283   .     A
C4     C8      1.368   .     S
C4     O75     1.284   .     A
C4     O76     1.283   .     A
C5     C32     1.418   .     A
C5     C30     1.419   .     A
C5     C166    1.525   1_545 S
C6     C31     1.419   .     A
C6     C165    1.525   .     S
C7     C648    1.166   1_554 S
C8     C327    1.166   .     S
C9     C14     1.399   .     A
C9     C20     1.415   .     A
C9     O59     1.386   .     S
C10    C15     1.400   .     A
C10    C21     1.409   .     A
C10    O60     1.385   .     S
C11    C16     1.404   .     A
C11    C21     1.397   .     A
C11    O61     1.383   .     S
C12    O72     1.300   .     A
C12    O62     1.299   .     A
C12    C19     1.463   .     S
C13    O63     1.385   .     S
C13    C20     1.419   .     A
C13    C17     1.397   .     A
C14    C18     1.400   .     A
C14    O64     1.385   .     S
C15    C19     1.412   .     A
C15    O65     1.383   .     S
C16    O66     1.383   .     S
C16    C19     1.413   .     A
C17    O67     1.386   .     S
C17    C18     1.394   .     A
C20    C101    1.450   1_455 S
C21    C100    1.450   .     S
C22    O78     1.221   .     D
C22    O52     1.395   .     S
C22    C23     1.469   .     S
C23    N49     1.376   .     A
C23    C30     1.418   .     A
C24    C27     1.475   .     S
C24    O54     1.398   .     S
C24    O53     1.221   .     D
C25    O56     1.393   .     S
C25    C28     1.474   .     S
C25    O55     1.221   .     D
C26    O58     1.398   .     S
C26    O57     1.221   .     D
C26    C29     1.472   .     S
C27    N50     1.379   .     A
C27    C31     1.418   .     A
C28    C32     1.419   .     A
C28    N49     1.379   .     A
C29    N50     1.377   .     A
C30    O68     1.384   .     S
C31    O69     1.383   .     S
C32    O70     1.384   .     S
H33    O52     1.013   .     S
H34    O65     0.989   .     S
H35    O66     0.991   .     S
H36    O67     0.989   .     S
H37    O68     0.989   .     S
H38    O69     0.990   .     S
H39    O230    0.989   .     S
H40    O231    0.989   1_545 S
H41    O54     1.014   .     S
H42    O56     1.014   .     S
H43    O58     1.014   .     S
H44    O59     0.987   .     S
H45    O140    0.990   1_455 S
H46    O61     0.991   .     S
H47    O143    0.989   .     S
H48    O64     0.989   .     S
N49    Zn80    2.026   .     S
N50    Zn79    2.026   .     S
O51    Zn79    1.987   .     S
O60    H125    0.990   .     S
O62    Zn80    1.987   .     S
O63    H127    0.989   1_455 S
O70    H199    0.989   1_545 S
O71    H200    0.989   .     S
O72    Zn79    1.979   .     S
O73    Zn80    1.979   .     S
O74    Zn79    1.952   .     S
O75    Zn80    1.952   .     S
O76    Zn79    1.949   .     S
O77    Zn80    1.949   .     S
C81    C98     1.428   .     S
C81    O131    1.287   .     A
C81    O153    1.294   .     A
C82    C109    1.417   .     A
C82    C86     1.420   .     A
C82    O151    1.383   .     S
C83    C87     1.367   .     S
C83    O154    1.284   .     A
C83    O157    1.283   .     A
C84    C88     1.368   .     S
C84    O155    1.284   .     A
C84    O156    1.283   .     A
C85    C112    1.418   .     A
C85    C110    1.419   .     A
C85    C246    1.525   1_545 S
C86    C111    1.419   .     A
C86    C245    1.525   .     S
C87    C728    1.166   1_554 S
C88    C407    1.166   .     S
C89    C94     1.399   .     A
C89    C100    1.415   .     A
C89    O139    1.386   .     S
C90    C95     1.400   .     A
C90    C101    1.409   .     A
C90    O140    1.385   .     S
C91    C96     1.404   .     A
C91    C101    1.397   .     A
C91    O141    1.383   .     S
C92    O152    1.300   .     A
C92    O142    1.299   .     A
C92    C99     1.463   .     S
C93    O143    1.385   .     S
C93    C100    1.419   .     A
C93    C97     1.397   .     A
C94    C98     1.400   .     A
C94    O144    1.385   .     S
C95    C99     1.412   .     A
C95    O145    1.383   .     S
C96    O146    1.383   .     S
C96    C99     1.413   .     A
C97    O147    1.386   .     S
C97    C98     1.394   .     A
C101   C20     1.450   1_655 S
C102   O158    1.221   .     D
C102   O132    1.395   .     S
C102   C103    1.469   .     S
C103   N129    1.376   .     A
C103   C110    1.418   .     A
C104   C107    1.475   .     S
C104   O134    1.398   .     S
C104   O133    1.221   .     D
C105   O136    1.393   .     S
C105   C108    1.474   .     S
C105   O135    1.221   .     D
C106   O138    1.398   .     S
C106   O137    1.221   .     D
C106   C109    1.472   .     S
C107   N130    1.379   .     A
C107   C111    1.418   .     A
C108   C112    1.419   .     A
C108   N129    1.379   .     A
C109   N130    1.377   .     A
C110   O148    1.384   .     S
C111   O149    1.383   .     S
C112   O150    1.384   .     S
H113   O132    1.013   .     S
H114   O145    0.989   .     S
H115   O146    0.991   .     S
H116   O147    0.989   .     S
H117   O148    0.989   .     S
H118   O149    0.990   .     S
H119   O310    0.989   .     S
H120   O311    0.989   1_545 S
H121   O134    1.014   .     S
H122   O136    1.014   .     S
H123   O138    1.014   .     S
H124   O139    0.987   .     S
H126   O141    0.991   .     S
H127   O63     0.989   1_655 S
H128   O144    0.989   .     S
N129   Zn160   2.026   .     S
N130   Zn159   2.026   .     S
O131   Zn159   1.987   .     S
O140   H45     0.990   1_655 S
O142   Zn160   1.987   .     S
O150   H279    0.989   1_545 S
O151   H280    0.989   .     S
O152   Zn159   1.979   .     S
O153   Zn160   1.979   .     S
O154   Zn159   1.952   .     S
O155   Zn160   1.952   .     S
O156   Zn159   1.949   .     S
O157   Zn160   1.949   .     S
C161   C178    1.428   .     S
C161   O211    1.287   .     A
C161   O233    1.294   .     A
C162   C189    1.417   .     A
C162   C166    1.420   .     A
C162   O231    1.383   .     S
C163   C167    1.367   .     S
C163   O234    1.284   .     A
C163   O237    1.283   .     A
C164   C168    1.368   .     S
C164   O235    1.284   .     A
C164   O236    1.283   .     A
C165   C192    1.418   .     A
C165   C190    1.419   .     A
C166   C191    1.419   .     A
C166   C5      1.525   1_565 S
C167   C808    1.166   1_554 S
C168   C487    1.166   .     S
C169   C174    1.399   .     A
C169   C180    1.415   .     A
C169   O219    1.386   .     S
C170   C175    1.400   .     A
C170   C181    1.409   .     A
C170   O220    1.385   .     S
C171   C176    1.404   .     A
C171   C181    1.397   .     A
C171   O221    1.383   .     S
C172   O232    1.300   .     A
C172   O222    1.299   .     A
C172   C179    1.463   .     S
C173   O223    1.385   .     S
C173   C180    1.419   .     A
C173   C177    1.397   .     A
C174   C178    1.400   .     A
C174   O224    1.385   .     S
C175   C179    1.412   .     A
C175   O225    1.383   .     S
C176   O226    1.383   .     S
C176   C179    1.413   .     A
C177   O227    1.386   .     S
C177   C178    1.394   .     A
C180   C261    1.450   1_455 S
C181   C260    1.450   .     S
C182   O238    1.221   .     D
C182   O212    1.395   .     S
C182   C183    1.469   .     S
C183   N209    1.376   .     A
C183   C190    1.418   .     A
C184   C187    1.475   .     S
C184   O214    1.398   .     S
C184   O213    1.221   .     D
C185   O216    1.393   .     S
C185   C188    1.474   .     S
C185   O215    1.221   .     D
C186   O218    1.398   .     S
C186   O217    1.221   .     D
C186   C189    1.472   .     S
C187   N210    1.379   .     A
C187   C191    1.418   .     A
C188   C192    1.419   .     A
C188   N209    1.379   .     A
C189   N210    1.377   .     A
C190   O228    1.384   .     S
C191   O229    1.383   .     S
C192   O230    1.384   .     S
H193   O212    1.013   .     S
H194   O225    0.989   .     S
H195   O226    0.991   .     S
H196   O227    0.989   .     S
H197   O228    0.989   .     S
H198   O229    0.990   .     S
H199   O70     0.989   1_565 S
H201   O214    1.014   .     S
H202   O216    1.014   .     S
H203   O218    1.014   .     S
H204   O219    0.987   .     S
H205   O300    0.990   1_455 S
H206   O221    0.991   .     S
H207   O303    0.989   .     S
H208   O224    0.989   .     S
N209   Zn240   2.026   .     S
N210   Zn239   2.026   .     S
O211   Zn239   1.987   .     S
O220   H285    0.990   .     S
O222   Zn240   1.987   .     S
O223   H287    0.989   1_455 S
O231   H40     0.989   1_565 S
O232   Zn239   1.979   .     S
O233   Zn240   1.979   .     S
O234   Zn239   1.952   .     S
O235   Zn240   1.952   .     S
O236   Zn239   1.949   .     S
O237   Zn240   1.949   .     S
C241   C258    1.428   .     S
C241   O291    1.287   .     A
C241   O313    1.294   .     A
C242   C269    1.417   .     A
C242   C246    1.420   .     A
C242   O311    1.383   .     S
C243   C247    1.367   .     S
C243   O314    1.284   .     A
C243   O317    1.283   .     A
C244   C248    1.368   .     S
C244   O315    1.284   .     A
C244   O316    1.283   .     A
C245   C272    1.418   .     A
C245   C270    1.419   .     A
C246   C271    1.419   .     A
C246   C85     1.525   1_565 S
C247   C888    1.166   1_554 S
C248   C567    1.166   .     S
C249   C254    1.399   .     A
C249   C260    1.415   .     A
C249   O299    1.386   .     S
C250   C255    1.400   .     A
C250   C261    1.409   .     A
C250   O300    1.385   .     S
C251   C256    1.404   .     A
C251   C261    1.397   .     A
C251   O301    1.383   .     S
C252   O312    1.300   .     A
C252   O302    1.299   .     A
C252   C259    1.463   .     S
C253   O303    1.385   .     S
C253   C260    1.419   .     A
C253   C257    1.397   .     A
C254   C258    1.400   .     A
C254   O304    1.385   .     S
C255   C259    1.412   .     A
C255   O305    1.383   .     S
C256   O306    1.383   .     S
C256   C259    1.413   .     A
C257   O307    1.386   .     S
C257   C258    1.394   .     A
C261   C180    1.450   1_655 S
C262   O318    1.221   .     D
C262   O292    1.395   .     S
C262   C263    1.469   .     S
C263   N289    1.376   .     A
C263   C270    1.418   .     A
C264   C267    1.475   .     S
C264   O294    1.398   .     S
C264   O293    1.221   .     D
C265   O296    1.393   .     S
C265   C268    1.474   .     S
C265   O295    1.221   .     D
C266   O298    1.398   .     S
C266   O297    1.221   .     D
C266   C269    1.472   .     S
C267   N290    1.379   .     A
C267   C271    1.418   .     A
C268   C272    1.419   .     A
C268   N289    1.379   .     A
C269   N290    1.377   .     A
C270   O308    1.384   .     S
C271   O309    1.383   .     S
C272   O310    1.384   .     S
H273   O292    1.013   .     S
H274   O305    0.989   .     S
H275   O306    0.991   .     S
H276   O307    0.989   .     S
H277   O308    0.989   .     S
H278   O309    0.990   .     S
H279   O150    0.989   1_565 S
H281   O294    1.014   .     S
H282   O296    1.014   .     S
H283   O298    1.014   .     S
H284   O299    0.987   .     S
H286   O301    0.991   .     S
H287   O223    0.989   1_655 S
H288   O304    0.989   .     S
N289   Zn320   2.026   .     S
N290   Zn319   2.026   .     S
O291   Zn319   1.987   .     S
O300   H205    0.990   1_655 S
O302   Zn320   1.987   .     S
O311   H120    0.989   1_565 S
O312   Zn319   1.979   .     S
O313   Zn320   1.979   .     S
O314   Zn319   1.952   .     S
O315   Zn320   1.952   .     S
O316   Zn319   1.949   .     S
O317   Zn320   1.949   .     S
C321   C338    1.428   .     S
C321   O371    1.287   .     A
C321   O393    1.294   .     A
C322   C349    1.417   .     A
C322   C326    1.420   .     A
C322   O391    1.383   .     S
C323   C327    1.367   .     S
C323   O394    1.284   .     A
C323   O397    1.283   .     A
C324   C328    1.368   .     S
C324   O395    1.284   .     A
C324   O396    1.283   .     A
C325   C352    1.418   .     A
C325   C350    1.419   .     A
C325   C486    1.525   1_545 S
C326   C351    1.419   .     A
C326   C485    1.525   .     S
C328   C647    1.166   .     S
C329   C334    1.399   .     A
C329   C340    1.415   .     A
C329   O379    1.386   .     S
C330   C335    1.400   .     A
C330   C341    1.409   .     A
C330   O380    1.385   .     S
C331   C336    1.404   .     A
C331   C341    1.397   .     A
C331   O381    1.383   .     S
C332   O392    1.300   .     A
C332   O382    1.299   .     A
C332   C339    1.463   .     S
C333   O383    1.385   .     S
C333   C340    1.419   .     A
C333   C337    1.397   .     A
C334   C338    1.400   .     A
C334   O384    1.385   .     S
C335   C339    1.412   .     A
C335   O385    1.383   .     S
C336   O386    1.383   .     S
C336   C339    1.413   .     A
C337   O387    1.386   .     S
C337   C338    1.394   .     A
C340   C421    1.450   1_455 S
C341   C420    1.450   .     S
C342   O398    1.221   .     D
C342   O372    1.395   .     S
C342   C343    1.469   .     S
C343   N369    1.376   .     A
C343   C350    1.418   .     A
C344   C347    1.475   .     S
C344   O374    1.398   .     S
C344   O373    1.221   .     D
C345   O376    1.393   .     S
C345   C348    1.474   .     S
C345   O375    1.221   .     D
C346   O378    1.398   .     S
C346   O377    1.221   .     D
C346   C349    1.472   .     S
C347   N370    1.379   .     A
C347   C351    1.418   .     A
C348   C352    1.419   .     A
C348   N369    1.379   .     A
C349   N370    1.377   .     A
C350   O388    1.384   .     S
C351   O389    1.383   .     S
C352   O390    1.384   .     S
H353   O372    1.013   .     S
H354   O385    0.989   .     S
H355   O386    0.991   .     S
H356   O387    0.989   .     S
H357   O388    0.989   .     S
H358   O389    0.990   .     S
H359   O550    0.989   .     S
H360   O551    0.989   1_545 S
H361   O374    1.014   .     S
H362   O376    1.014   .     S
H363   O378    1.014   .     S
H364   O379    0.987   .     S
H365   O460    0.990   1_455 S
H366   O381    0.991   .     S
H367   O463    0.989   .     S
H368   O384    0.989   .     S
N369   Zn400   2.026   .     S
N370   Zn399   2.026   .     S
O371   Zn399   1.987   .     S
O380   H445    0.990   .     S
O382   Zn400   1.987   .     S
O383   H447    0.989   1_455 S
O390   H519    0.989   1_545 S
O391   H520    0.989   .     S
O392   Zn399   1.979   .     S
O393   Zn400   1.979   .     S
O394   Zn399   1.952   .     S
O395   Zn400   1.952   .     S
O396   Zn399   1.949   .     S
O397   Zn400   1.949   .     S
C401   C418    1.428   .     S
C401   O451    1.287   .     A
C401   O473    1.294   .     A
C402   C429    1.417   .     A
C402   C406    1.420   .     A
C402   O471    1.383   .     S
C403   C407    1.367   .     S
C403   O474    1.284   .     A
C403   O477    1.283   .     A
C404   C408    1.368   .     S
C404   O475    1.284   .     A
C404   O476    1.283   .     A
C405   C432    1.418   .     A
C405   C430    1.419   .     A
C405   C566    1.525   1_545 S
C406   C431    1.419   .     A
C406   C565    1.525   .     S
C408   C727    1.166   .     S
C409   C414    1.399   .     A
C409   C420    1.415   .     A
C409   O459    1.386   .     S
C410   C415    1.400   .     A
C410   C421    1.409   .     A
C410   O460    1.385   .     S
C411   C416    1.404   .     A
C411   C421    1.397   .     A
C411   O461    1.383   .     S
C412   O472    1.300   .     A
C412   O462    1.299   .     A
C412   C419    1.463   .     S
C413   O463    1.385   .     S
C413   C420    1.419   .     A
C413   C417    1.397   .     A
C414   C418    1.400   .     A
C414   O464    1.385   .     S
C415   C419    1.412   .     A
C415   O465    1.383   .     S
C416   O466    1.383   .     S
C416   C419    1.413   .     A
C417   O467    1.386   .     S
C417   C418    1.394   .     A
C421   C340    1.450   1_655 S
C422   O478    1.221   .     D
C422   O452    1.395   .     S
C422   C423    1.469   .     S
C423   N449    1.376   .     A
C423   C430    1.418   .     A
C424   C427    1.475   .     S
C424   O454    1.398   .     S
C424   O453    1.221   .     D
C425   O456    1.393   .     S
C425   C428    1.474   .     S
C425   O455    1.221   .     D
C426   O458    1.398   .     S
C426   O457    1.221   .     D
C426   C429    1.472   .     S
C427   N450    1.379   .     A
C427   C431    1.418   .     A
C428   C432    1.419   .     A
C428   N449    1.379   .     A
C429   N450    1.377   .     A
C430   O468    1.384   .     S
C431   O469    1.383   .     S
C432   O470    1.384   .     S
H433   O452    1.013   .     S
H434   O465    0.989   .     S
H435   O466    0.991   .     S
H436   O467    0.989   .     S
H437   O468    0.989   .     S
H438   O469    0.990   .     S
H439   O630    0.989   .     S
H440   O631    0.989   1_545 S
H441   O454    1.014   .     S
H442   O456    1.014   .     S
H443   O458    1.014   .     S
H444   O459    0.987   .     S
H446   O461    0.991   .     S
H447   O383    0.989   1_655 S
H448   O464    0.989   .     S
N449   Zn480   2.026   .     S
N450   Zn479   2.026   .     S
O451   Zn479   1.987   .     S
O460   H365    0.990   1_655 S
O462   Zn480   1.987   .     S
O470   H599    0.989   1_545 S
O471   H600    0.989   .     S
O472   Zn479   1.979   .     S
O473   Zn480   1.979   .     S
O474   Zn479   1.952   .     S
O475   Zn480   1.952   .     S
O476   Zn479   1.949   .     S
O477   Zn480   1.949   .     S
C481   C498    1.428   .     S
C481   O531    1.287   .     A
C481   O553    1.294   .     A
C482   C509    1.417   .     A
C482   C486    1.420   .     A
C482   O551    1.383   .     S
C483   C487    1.367   .     S
C483   O554    1.284   .     A
C483   O557    1.283   .     A
C484   C488    1.368   .     S
C484   O555    1.284   .     A
C484   O556    1.283   .     A
C485   C512    1.418   .     A
C485   C510    1.419   .     A
C486   C511    1.419   .     A
C486   C325    1.525   1_565 S
C488   C807    1.166   .     S
C489   C494    1.399   .     A
C489   C500    1.415   .     A
C489   O539    1.386   .     S
C490   C495    1.400   .     A
C490   C501    1.409   .     A
C490   O540    1.385   .     S
C491   C496    1.404   .     A
C491   C501    1.397   .     A
C491   O541    1.383   .     S
C492   O552    1.300   .     A
C492   O542    1.299   .     A
C492   C499    1.463   .     S
C493   O543    1.385   .     S
C493   C500    1.419   .     A
C493   C497    1.397   .     A
C494   C498    1.400   .     A
C494   O544    1.385   .     S
C495   C499    1.412   .     A
C495   O545    1.383   .     S
C496   O546    1.383   .     S
C496   C499    1.413   .     A
C497   O547    1.386   .     S
C497   C498    1.394   .     A
C500   C581    1.450   1_455 S
C501   C580    1.450   .     S
C502   O558    1.221   .     D
C502   O532    1.395   .     S
C502   C503    1.469   .     S
C503   N529    1.376   .     A
C503   C510    1.418   .     A
C504   C507    1.475   .     S
C504   O534    1.398   .     S
C504   O533    1.221   .     D
C505   O536    1.393   .     S
C505   C508    1.474   .     S
C505   O535    1.221   .     D
C506   O538    1.398   .     S
C506   O537    1.221   .     D
C506   C509    1.472   .     S
C507   N530    1.379   .     A
C507   C511    1.418   .     A
C508   C512    1.419   .     A
C508   N529    1.379   .     A
C509   N530    1.377   .     A
C510   O548    1.384   .     S
C511   O549    1.383   .     S
C512   O550    1.384   .     S
H513   O532    1.013   .     S
H514   O545    0.989   .     S
H515   O546    0.991   .     S
H516   O547    0.989   .     S
H517   O548    0.989   .     S
H518   O549    0.990   .     S
H519   O390    0.989   1_565 S
H521   O534    1.014   .     S
H522   O536    1.014   .     S
H523   O538    1.014   .     S
H524   O539    0.987   .     S
H525   O620    0.990   1_455 S
H526   O541    0.991   .     S
H527   O623    0.989   .     S
H528   O544    0.989   .     S
N529   Zn560   2.026   .     S
N530   Zn559   2.026   .     S
O531   Zn559   1.987   .     S
O540   H605    0.990   .     S
O542   Zn560   1.987   .     S
O543   H607    0.989   1_455 S
O551   H360    0.989   1_565 S
O552   Zn559   1.979   .     S
O553   Zn560   1.979   .     S
O554   Zn559   1.952   .     S
O555   Zn560   1.952   .     S
O556   Zn559   1.949   .     S
O557   Zn560   1.949   .     S
C561   C578    1.428   .     S
C561   O611    1.287   .     A
C561   O633    1.294   .     A
C562   C589    1.417   .     A
C562   C566    1.420   .     A
C562   O631    1.383   .     S
C563   C567    1.367   .     S
C563   O634    1.284   .     A
C563   O637    1.283   .     A
C564   C568    1.368   .     S
C564   O635    1.284   .     A
C564   O636    1.283   .     A
C565   C592    1.418   .     A
C565   C590    1.419   .     A
C566   C591    1.419   .     A
C566   C405    1.525   1_565 S
C568   C887    1.166   .     S
C569   C574    1.399   .     A
C569   C580    1.415   .     A
C569   O619    1.386   .     S
C570   C575    1.400   .     A
C570   C581    1.409   .     A
C570   O620    1.385   .     S
C571   C576    1.404   .     A
C571   C581    1.397   .     A
C571   O621    1.383   .     S
C572   O632    1.300   .     A
C572   O622    1.299   .     A
C572   C579    1.463   .     S
C573   O623    1.385   .     S
C573   C580    1.419   .     A
C573   C577    1.397   .     A
C574   C578    1.400   .     A
C574   O624    1.385   .     S
C575   C579    1.412   .     A
C575   O625    1.383   .     S
C576   O626    1.383   .     S
C576   C579    1.413   .     A
C577   O627    1.386   .     S
C577   C578    1.394   .     A
C581   C500    1.450   1_655 S
C582   O638    1.221   .     D
C582   O612    1.395   .     S
C582   C583    1.469   .     S
C583   N609    1.376   .     A
C583   C590    1.418   .     A
C584   C587    1.475   .     S
C584   O614    1.398   .     S
C584   O613    1.221   .     D
C585   O616    1.393   .     S
C585   C588    1.474   .     S
C585   O615    1.221   .     D
C586   O618    1.398   .     S
C586   O617    1.221   .     D
C586   C589    1.472   .     S
C587   N610    1.379   .     A
C587   C591    1.418   .     A
C588   C592    1.419   .     A
C588   N609    1.379   .     A
C589   N610    1.377   .     A
C590   O628    1.384   .     S
C591   O629    1.383   .     S
C592   O630    1.384   .     S
H593   O612    1.013   .     S
H594   O625    0.989   .     S
H595   O626    0.991   .     S
H596   O627    0.989   .     S
H597   O628    0.989   .     S
H598   O629    0.990   .     S
H599   O470    0.989   1_565 S
H601   O614    1.014   .     S
H602   O616    1.014   .     S
H603   O618    1.014   .     S
H604   O619    0.987   .     S
H606   O621    0.991   .     S
H607   O543    0.989   1_655 S
H608   O624    0.989   .     S
N609   Zn640   2.026   .     S
N610   Zn639   2.026   .     S
O611   Zn639   1.987   .     S
O620   H525    0.990   1_655 S
O622   Zn640   1.987   .     S
O631   H440    0.989   1_565 S
O632   Zn639   1.979   .     S
O633   Zn640   1.979   .     S
O634   Zn639   1.952   .     S
O635   Zn640   1.952   .     S
O636   Zn639   1.949   .     S
O637   Zn640   1.949   .     S
C641   C658    1.428   .     S
C641   O691    1.287   .     A
C641   O713    1.294   .     A
C642   C669    1.417   .     A
C642   C646    1.420   .     A
C642   O711    1.383   .     S
C643   C647    1.367   .     S
C643   O714    1.284   .     A
C643   O717    1.283   .     A
C644   C648    1.368   .     S
C644   O715    1.284   .     A
C644   O716    1.283   .     A
C645   C672    1.418   .     A
C645   C670    1.419   .     A
C645   C806    1.525   1_545 S
C646   C671    1.419   .     A
C646   C805    1.525   .     S
C648   C7      1.166   1_556 S
C649   C654    1.399   .     A
C649   C660    1.415   .     A
C649   O699    1.386   .     S
C650   C655    1.400   .     A
C650   C661    1.409   .     A
C650   O700    1.385   .     S
C651   C656    1.404   .     A
C651   C661    1.397   .     A
C651   O701    1.383   .     S
C652   O712    1.300   .     A
C652   O702    1.299   .     A
C652   C659    1.463   .     S
C653   O703    1.385   .     S
C653   C660    1.419   .     A
C653   C657    1.397   .     A
C654   C658    1.400   .     A
C654   O704    1.385   .     S
C655   C659    1.412   .     A
C655   O705    1.383   .     S
C656   O706    1.383   .     S
C656   C659    1.413   .     A
C657   O707    1.386   .     S
C657   C658    1.394   .     A
C660   C741    1.450   1_455 S
C661   C740    1.450   .     S
C662   O718    1.221   .     D
C662   O692    1.395   .     S
C662   C663    1.469   .     S
C663   N689    1.376   .     A
C663   C670    1.418   .     A
C664   C667    1.475   .     S
C664   O694    1.398   .     S
C664   O693    1.221   .     D
C665   O696    1.393   .     S
C665   C668    1.474   .     S
C665   O695    1.221   .     D
C666   O698    1.398   .     S
C666   O697    1.221   .     D
C666   C669    1.472   .     S
C667   N690    1.379   .     A
C667   C671    1.418   .     A
C668   C672    1.419   .     A
C668   N689    1.379   .     A
C669   N690    1.377   .     A
C670   O708    1.384   .     S
C671   O709    1.383   .     S
C672   O710    1.384   .     S
H673   O692    1.013   .     S
H674   O705    0.989   .     S
H675   O706    0.991   .     S
H676   O707    0.989   .     S
H677   O708    0.989   .     S
H678   O709    0.990   .     S
H679   O870    0.989   .     S
H680   O871    0.989   1_545 S
H681   O694    1.014   .     S
H682   O696    1.014   .     S
H683   O698    1.014   .     S
H684   O699    0.987   .     S
H685   O780    0.990   1_455 S
H686   O701    0.991   .     S
H687   O783    0.989   .     S
H688   O704    0.989   .     S
N689   Zn720   2.026   .     S
N690   Zn719   2.026   .     S
O691   Zn719   1.987   .     S
O700   H765    0.990   .     S
O702   Zn720   1.987   .     S
O703   H767    0.989   1_455 S
O710   H839    0.989   1_545 S
O711   H840    0.989   .     S
O712   Zn719   1.979   .     S
O713   Zn720   1.979   .     S
O714   Zn719   1.952   .     S
O715   Zn720   1.952   .     S
O716   Zn719   1.949   .     S
O717   Zn720   1.949   .     S
C721   C738    1.428   .     S
C721   O771    1.287   .     A
C721   O793    1.294   .     A
C722   C749    1.417   .     A
C722   C726    1.420   .     A
C722   O791    1.383   .     S
C723   C727    1.367   .     S
C723   O794    1.284   .     A
C723   O797    1.283   .     A
C724   C728    1.368   .     S
C724   O795    1.284   .     A
C724   O796    1.283   .     A
C725   C752    1.418   .     A
C725   C750    1.419   .     A
C725   C886    1.525   1_545 S
C726   C751    1.419   .     A
C726   C885    1.525   .     S
C728   C87     1.166   1_556 S
C729   C734    1.399   .     A
C729   C740    1.415   .     A
C729   O779    1.386   .     S
C730   C735    1.400   .     A
C730   C741    1.409   .     A
C730   O780    1.385   .     S
C731   C736    1.404   .     A
C731   C741    1.397   .     A
C731   O781    1.383   .     S
C732   O792    1.300   .     A
C732   O782    1.299   .     A
C732   C739    1.463   .     S
C733   O783    1.385   .     S
C733   C740    1.419   .     A
C733   C737    1.397   .     A
C734   C738    1.400   .     A
C734   O784    1.385   .     S
C735   C739    1.412   .     A
C735   O785    1.383   .     S
C736   O786    1.383   .     S
C736   C739    1.413   .     A
C737   O787    1.386   .     S
C737   C738    1.394   .     A
C741   C660    1.450   1_655 S
C742   O798    1.221   .     D
C742   O772    1.395   .     S
C742   C743    1.469   .     S
C743   N769    1.376   .     A
C743   C750    1.418   .     A
C744   C747    1.475   .     S
C744   O774    1.398   .     S
C744   O773    1.221   .     D
C745   O776    1.393   .     S
C745   C748    1.474   .     S
C745   O775    1.221   .     D
C746   O778    1.398   .     S
C746   O777    1.221   .     D
C746   C749    1.472   .     S
C747   N770    1.379   .     A
C747   C751    1.418   .     A
C748   C752    1.419   .     A
C748   N769    1.379   .     A
C749   N770    1.377   .     A
C750   O788    1.384   .     S
C751   O789    1.383   .     S
C752   O790    1.384   .     S
H753   O772    1.013   .     S
H754   O785    0.989   .     S
H755   O786    0.991   .     S
H756   O787    0.989   .     S
H757   O788    0.989   .     S
H758   O789    0.990   .     S
H759   O950    0.989   .     S
H760   O951    0.989   1_545 S
H761   O774    1.014   .     S
H762   O776    1.014   .     S
H763   O778    1.014   .     S
H764   O779    0.987   .     S
H766   O781    0.991   .     S
H767   O703    0.989   1_655 S
H768   O784    0.989   .     S
N769   Zn800   2.026   .     S
N770   Zn799   2.026   .     S
O771   Zn799   1.987   .     S
O780   H685    0.990   1_655 S
O782   Zn800   1.987   .     S
O790   H919    0.989   1_545 S
O791   H920    0.989   .     S
O792   Zn799   1.979   .     S
O793   Zn800   1.979   .     S
O794   Zn799   1.952   .     S
O795   Zn800   1.952   .     S
O796   Zn799   1.949   .     S
O797   Zn800   1.949   .     S
C801   C818    1.428   .     S
C801   O851    1.287   .     A
C801   O873    1.294   .     A
C802   C829    1.417   .     A
C802   C806    1.420   .     A
C802   O871    1.383   .     S
C803   C807    1.367   .     S
C803   O874    1.284   .     A
C803   O877    1.283   .     A
C804   C808    1.368   .     S
C804   O875    1.284   .     A
C804   O876    1.283   .     A
C805   C832    1.418   .     A
C805   C830    1.419   .     A
C806   C831    1.419   .     A
C806   C645    1.525   1_565 S
C808   C167    1.166   1_556 S
C809   C814    1.399   .     A
C809   C820    1.415   .     A
C809   O859    1.386   .     S
C810   C815    1.400   .     A
C810   C821    1.409   .     A
C810   O860    1.385   .     S
C811   C816    1.404   .     A
C811   C821    1.397   .     A
C811   O861    1.383   .     S
C812   O872    1.300   .     A
C812   O862    1.299   .     A
C812   C819    1.463   .     S
C813   O863    1.385   .     S
C813   C820    1.419   .     A
C813   C817    1.397   .     A
C814   C818    1.400   .     A
C814   O864    1.385   .     S
C815   C819    1.412   .     A
C815   O865    1.383   .     S
C816   O866    1.383   .     S
C816   C819    1.413   .     A
C817   O867    1.386   .     S
C817   C818    1.394   .     A
C820   C901    1.450   1_455 S
C821   C900    1.450   .     S
C822   O878    1.221   .     D
C822   O852    1.395   .     S
C822   C823    1.469   .     S
C823   N849    1.376   .     A
C823   C830    1.418   .     A
C824   C827    1.475   .     S
C824   O854    1.398   .     S
C824   O853    1.221   .     D
C825   O856    1.393   .     S
C825   C828    1.474   .     S
C825   O855    1.221   .     D
C826   O858    1.398   .     S
C826   O857    1.221   .     D
C826   C829    1.472   .     S
C827   N850    1.379   .     A
C827   C831    1.418   .     A
C828   C832    1.419   .     A
C828   N849    1.379   .     A
C829   N850    1.377   .     A
C830   O868    1.384   .     S
C831   O869    1.383   .     S
C832   O870    1.384   .     S
H833   O852    1.013   .     S
H834   O865    0.989   .     S
H835   O866    0.991   .     S
H836   O867    0.989   .     S
H837   O868    0.989   .     S
H838   O869    0.990   .     S
H839   O710    0.989   1_565 S
H841   O854    1.014   .     S
H842   O856    1.014   .     S
H843   O858    1.014   .     S
H844   O859    0.987   .     S
H845   O940    0.990   1_455 S
H846   O861    0.991   .     S
H847   O943    0.989   .     S
H848   O864    0.989   .     S
N849   Zn880   2.026   .     S
N850   Zn879   2.026   .     S
O851   Zn879   1.987   .     S
O860   H925    0.990   .     S
O862   Zn880   1.987   .     S
O863   H927    0.989   1_455 S
O871   H680    0.989   1_565 S
O872   Zn879   1.979   .     S
O873   Zn880   1.979   .     S
O874   Zn879   1.952   .     S
O875   Zn880   1.952   .     S
O876   Zn879   1.949   .     S
O877   Zn880   1.949   .     S
C881   C898    1.428   .     S
C881   O931    1.287   .     A
C881   O953    1.294   .     A
C882   C909    1.417   .     A
C882   C886    1.420   .     A
C882   O951    1.383   .     S
C883   C887    1.367   .     S
C883   O954    1.284   .     A
C883   O957    1.283   .     A
C884   C888    1.368   .     S
C884   O955    1.284   .     A
C884   O956    1.283   .     A
C885   C912    1.418   .     A
C885   C910    1.419   .     A
C886   C911    1.419   .     A
C886   C725    1.525   1_565 S
C888   C247    1.166   1_556 S
C889   C894    1.399   .     A
C889   C900    1.415   .     A
C889   O939    1.386   .     S
C890   C895    1.400   .     A
C890   C901    1.409   .     A
C890   O940    1.385   .     S
C891   C896    1.404   .     A
C891   C901    1.397   .     A
C891   O941    1.383   .     S
C892   O952    1.300   .     A
C892   O942    1.299   .     A
C892   C899    1.463   .     S
C893   O943    1.385   .     S
C893   C900    1.419   .     A
C893   C897    1.397   .     A
C894   C898    1.400   .     A
C894   O944    1.385   .     S
C895   C899    1.412   .     A
C895   O945    1.383   .     S
C896   O946    1.383   .     S
C896   C899    1.413   .     A
C897   O947    1.386   .     S
C897   C898    1.394   .     A
C901   C820    1.450   1_655 S
C902   O958    1.221   .     D
C902   O932    1.395   .     S
C902   C903    1.469   .     S
C903   N929    1.376   .     A
C903   C910    1.418   .     A
C904   C907    1.475   .     S
C904   O934    1.398   .     S
C904   O933    1.221   .     D
C905   O936    1.393   .     S
C905   C908    1.474   .     S
C905   O935    1.221   .     D
C906   O938    1.398   .     S
C906   O937    1.221   .     D
C906   C909    1.472   .     S
C907   N930    1.379   .     A
C907   C911    1.418   .     A
C908   C912    1.419   .     A
C908   N929    1.379   .     A
C909   N930    1.377   .     A
C910   O948    1.384   .     S
C911   O949    1.383   .     S
C912   O950    1.384   .     S
H913   O932    1.013   .     S
H914   O945    0.989   .     S
H915   O946    0.991   .     S
H916   O947    0.989   .     S
H917   O948    0.989   .     S
H918   O949    0.990   .     S
H919   O790    0.989   1_565 S
H921   O934    1.014   .     S
H922   O936    1.014   .     S
H923   O938    1.014   .     S
H924   O939    0.987   .     S
H926   O941    0.991   .     S
H927   O863    0.989   1_655 S
H928   O944    0.989   .     S
N929   Zn960   2.026   .     S
N930   Zn959   2.026   .     S
O931   Zn959   1.987   .     S
O940   H845    0.990   1_655 S
O942   Zn960   1.987   .     S
O951   H760    0.989   1_565 S
O952   Zn959   1.979   .     S
O953   Zn960   1.979   .     S
O954   Zn959   1.952   .     S
O955   Zn960   1.952   .     S
O956   Zn959   1.949   .     S
O957   Zn960   1.949   .     S
