data_str_m3_o10_o17_pcu_sym.53
_audit_creation_date              2020-01-03
_audit_creation_method            'Materials Studio'
_symmetry_space_group_name_H-M    'P1'
_symmetry_Int_Tables_number       1
_symmetry_cell_setting            triclinic
loop_
_symmetry_equiv_pos_as_xyz
  x,y,z
_cell_length_a                    23.3362
_cell_length_b                    25.9905
_cell_length_c                    29.8306
_cell_angle_alpha                 91.1532
_cell_angle_beta                  85.2434
_cell_angle_gamma                 93.5659
loop_
_atom_site_label
_atom_site_type_symbol
_atom_site_fract_x
_atom_site_fract_y
_atom_site_fract_z
_atom_site_U_iso_or_equiv
_atom_site_adp_type
_atom_site_occupancy
C1     C     0.18184   0.26475   0.24863   0.00000  Uiso   1.00
C2     C     0.18715   0.20894   0.40538   0.00000  Uiso   1.00
C3     C     0.16560   0.16901   0.11618   0.00000  Uiso   1.00
C4     C     0.16773   0.16432   0.38382   0.00000  Uiso   1.00
C5     C     0.18505   0.21368   0.09278   0.00000  Uiso   1.00
C6     C     0.14829   0.11965   0.40722   0.00000  Uiso   1.00
C7     C     0.18549   0.21303   0.04585   0.00000  Uiso   1.00
C8     C     0.14785   0.12030   0.45415   0.00000  Uiso   1.00
C9     C     0.16631   0.16723   0.02348   0.00000  Uiso   1.00
C10    C     0.16702   0.16610   0.47652   0.00000  Uiso   1.00
C11    C     0.14646   0.12256   0.04809   0.00000  Uiso   1.00
C12    C     0.15149   0.06859   0.25137   0.00000  Uiso   1.00
C13    C     0.18687   0.21077   0.45191   0.00000  Uiso   1.00
C14    C     0.20481   0.25694   0.02088   0.00000  Uiso   1.00
C15    C     0.12853   0.07639   0.47912   0.00000  Uiso   1.00
C16    C     0.20372   0.25984   0.11710   0.00000  Uiso   1.00
C17    C     0.12961   0.07349   0.38290   0.00000  Uiso   1.00
C18    C     0.22594   0.30275   0.45069   0.00000  Uiso   1.00
C19    C     0.10739   0.03058   0.04931   0.00000  Uiso   1.00
C20    C     0.20560   0.25618   0.47435   0.00000  Uiso   1.00
C21    C     0.12773   0.07715   0.02565   0.00000  Uiso   1.00
C22    C     0.18966   0.31897   0.24435   0.00000  Uiso   1.00
C23    C     0.14368   0.01437   0.25565   0.00000  Uiso   1.00
C24    C     0.16699   0.16591   0.33629   0.00000  Uiso   1.00
C25    C     0.16634   0.16742   0.16371   0.00000  Uiso   1.00
C26    C     0.14618   0.12440   0.09462   0.00000  Uiso   1.00
H27    H     0.13165   0.09098   0.11465   0.00000  Uiso   1.00
H28    H     0.20169   0.24235   0.38535   0.00000  Uiso   1.00
H29    H     0.21952   0.29229   0.03738   0.00000  Uiso   1.00
H30    H     0.11382   0.04104   0.46262   0.00000  Uiso   1.00
H31    H     0.27013   0.31379   0.21867   0.00000  Uiso   1.00
H32    H     0.06321   0.01955   0.28133   0.00000  Uiso   1.00
H33    H     0.31256   0.10119   0.19405   0.00000  Uiso   1.00
H34    H     0.02078   0.23214   0.30595   0.00000  Uiso   1.00
N35    N     0.31678   0.15265   0.23783   0.00000  Uiso   1.00
N36    N     0.01656   0.18068   0.26217   0.00000  Uiso   1.00
N37    N     0.21862   0.29687   0.13609   0.00000  Uiso   1.00
N38    N     0.11472   0.03646   0.36391   0.00000  Uiso   1.00
N39    N     0.24224   0.00666   0.43180   0.00000  Uiso   1.00
N40    N     0.09109   0.32667   0.06820   0.00000  Uiso   1.00
O41    O     0.12975   0.24619   0.25299   0.00000  Uiso   1.00
O42    O     0.09080   0.32604   0.27354   0.00000  Uiso   1.00
O43    O     0.01039   0.11941   0.20984   0.00000  Uiso   1.00
O44    O     0.32294   0.21392   0.29016   0.00000  Uiso   1.00
O45    O     0.20358   0.08714   0.24702   0.00000  Uiso   1.00
O46    O     0.22613   0.23721   0.24519   0.00000  Uiso   1.00
O47    O     0.10720   0.09613   0.25482   0.00000  Uiso   1.00
O48    O     0.11847   0.17117   0.31998   0.00000  Uiso   1.00
O49    O     0.21486   0.16216   0.18003   0.00000  Uiso   1.00
O50    O     0.21485   0.16219   0.31218   0.00000  Uiso   1.00
O51    O     0.11848   0.17115   0.18783   0.00000  Uiso   1.00
O52    O     0.24254   0.00729   0.22647   0.00000  Uiso   1.00
Zn53   Zn    0.10231   0.17266   0.25521   0.00000  Uiso   1.00
Zn54   Zn    0.23102   0.16067   0.24479   0.00000  Uiso   1.00
C55    C     0.51518   0.26475   0.24863   0.00000  Uiso   1.00
C56    C     0.52048   0.20894   0.40538   0.00000  Uiso   1.00
C57    C     0.49893   0.16901   0.11618   0.00000  Uiso   1.00
C58    C     0.50107   0.16432   0.38382   0.00000  Uiso   1.00
C59    C     0.51838   0.21368   0.09278   0.00000  Uiso   1.00
C60    C     0.48162   0.11965   0.40722   0.00000  Uiso   1.00
C61    C     0.51882   0.21303   0.04585   0.00000  Uiso   1.00
C62    C     0.48118   0.12030   0.45415   0.00000  Uiso   1.00
C63    C     0.49964   0.16723   0.02348   0.00000  Uiso   1.00
C64    C     0.50036   0.16610   0.47652   0.00000  Uiso   1.00
C65    C     0.47980   0.12256   0.04809   0.00000  Uiso   1.00
C66    C     0.48483   0.06859   0.25137   0.00000  Uiso   1.00
C67    C     0.52020   0.21077   0.45191   0.00000  Uiso   1.00
C68    C     0.53814   0.25694   0.02088   0.00000  Uiso   1.00
C69    C     0.46186   0.07639   0.47912   0.00000  Uiso   1.00
C70    C     0.53705   0.25984   0.11710   0.00000  Uiso   1.00
C71    C     0.46295   0.07349   0.38290   0.00000  Uiso   1.00
C72    C     0.55928   0.30275   0.45069   0.00000  Uiso   1.00
C73    C     0.44072   0.03058   0.04931   0.00000  Uiso   1.00
C74    C     0.53893   0.25618   0.47435   0.00000  Uiso   1.00
C75    C     0.46107   0.07715   0.02565   0.00000  Uiso   1.00
C76    C     0.52299   0.31897   0.24435   0.00000  Uiso   1.00
C77    C     0.47701   0.01437   0.25565   0.00000  Uiso   1.00
C78    C     0.50033   0.16591   0.33629   0.00000  Uiso   1.00
C79    C     0.49967   0.16742   0.16371   0.00000  Uiso   1.00
C80    C     0.47952   0.12440   0.09462   0.00000  Uiso   1.00
H81    H     0.46498   0.09098   0.11465   0.00000  Uiso   1.00
H82    H     0.53502   0.24235   0.38535   0.00000  Uiso   1.00
H83    H     0.55285   0.29229   0.03738   0.00000  Uiso   1.00
H84    H     0.44715   0.04104   0.46262   0.00000  Uiso   1.00
H85    H     0.60346   0.31379   0.21867   0.00000  Uiso   1.00
H86    H     0.39654   0.01955   0.28133   0.00000  Uiso   1.00
H87    H     0.64589   0.10119   0.19405   0.00000  Uiso   1.00
H88    H     0.35411   0.23214   0.30595   0.00000  Uiso   1.00
N89    N     0.65011   0.15265   0.23783   0.00000  Uiso   1.00
N90    N     0.34989   0.18068   0.26217   0.00000  Uiso   1.00
N91    N     0.55195   0.29687   0.13609   0.00000  Uiso   1.00
N92    N     0.44805   0.03646   0.36391   0.00000  Uiso   1.00
N93    N     0.57557   0.00666   0.43180   0.00000  Uiso   1.00
N94    N     0.42443   0.32667   0.06820   0.00000  Uiso   1.00
O95    O     0.46308   0.24619   0.25299   0.00000  Uiso   1.00
O96    O     0.42413   0.32604   0.27354   0.00000  Uiso   1.00
O97    O     0.34372   0.11941   0.20984   0.00000  Uiso   1.00
O98    O     0.65628   0.21392   0.29016   0.00000  Uiso   1.00
O99    O     0.53692   0.08714   0.24702   0.00000  Uiso   1.00
O100   O     0.55946   0.23721   0.24519   0.00000  Uiso   1.00
O101   O     0.44054   0.09613   0.25482   0.00000  Uiso   1.00
O102   O     0.45181   0.17117   0.31998   0.00000  Uiso   1.00
O103   O     0.54819   0.16216   0.18003   0.00000  Uiso   1.00
O104   O     0.54819   0.16219   0.31218   0.00000  Uiso   1.00
O105   O     0.45181   0.17115   0.18783   0.00000  Uiso   1.00
O106   O     0.57587   0.00729   0.22647   0.00000  Uiso   1.00
Zn107  Zn    0.43565   0.17266   0.25521   0.00000  Uiso   1.00
Zn108  Zn    0.56435   0.16067   0.24479   0.00000  Uiso   1.00
C109   C     0.84851   0.26475   0.24863   0.00000  Uiso   1.00
C110   C     0.85382   0.20894   0.40538   0.00000  Uiso   1.00
C111   C     0.83227   0.16901   0.11618   0.00000  Uiso   1.00
C112   C     0.83440   0.16432   0.38382   0.00000  Uiso   1.00
C113   C     0.85171   0.21368   0.09278   0.00000  Uiso   1.00
C114   C     0.81495   0.11965   0.40722   0.00000  Uiso   1.00
C115   C     0.85215   0.21303   0.04585   0.00000  Uiso   1.00
C116   C     0.81451   0.12030   0.45415   0.00000  Uiso   1.00
C117   C     0.83298   0.16723   0.02348   0.00000  Uiso   1.00
C118   C     0.83369   0.16610   0.47652   0.00000  Uiso   1.00
C119   C     0.81313   0.12256   0.04809   0.00000  Uiso   1.00
C120   C     0.81816   0.06859   0.25137   0.00000  Uiso   1.00
C121   C     0.85354   0.21077   0.45191   0.00000  Uiso   1.00
C122   C     0.87147   0.25694   0.02088   0.00000  Uiso   1.00
C123   C     0.79519   0.07639   0.47912   0.00000  Uiso   1.00
C124   C     0.87039   0.25984   0.11710   0.00000  Uiso   1.00
C125   C     0.79628   0.07349   0.38290   0.00000  Uiso   1.00
C126   C     0.89261   0.30275   0.45069   0.00000  Uiso   1.00
C127   C     0.77406   0.03058   0.04931   0.00000  Uiso   1.00
C128   C     0.87227   0.25618   0.47435   0.00000  Uiso   1.00
C129   C     0.79440   0.07715   0.02565   0.00000  Uiso   1.00
C130   C     0.85632   0.31897   0.24435   0.00000  Uiso   1.00
C131   C     0.81035   0.01437   0.25565   0.00000  Uiso   1.00
C132   C     0.83366   0.16591   0.33629   0.00000  Uiso   1.00
C133   C     0.83301   0.16742   0.16371   0.00000  Uiso   1.00
C134   C     0.81285   0.12440   0.09462   0.00000  Uiso   1.00
H135   H     0.79831   0.09098   0.11465   0.00000  Uiso   1.00
H136   H     0.86835   0.24235   0.38535   0.00000  Uiso   1.00
H137   H     0.88618   0.29229   0.03738   0.00000  Uiso   1.00
H138   H     0.78048   0.04104   0.46262   0.00000  Uiso   1.00
H139   H     0.93679   0.31379   0.21867   0.00000  Uiso   1.00
H140   H     0.72987   0.01955   0.28133   0.00000  Uiso   1.00
H141   H     0.97922   0.10119   0.19405   0.00000  Uiso   1.00
H142   H     0.68744   0.23214   0.30595   0.00000  Uiso   1.00
N143   N     0.98344   0.15265   0.23783   0.00000  Uiso   1.00
N144   N     0.68322   0.18068   0.26217   0.00000  Uiso   1.00
N145   N     0.88528   0.29687   0.13609   0.00000  Uiso   1.00
N146   N     0.78138   0.03646   0.36391   0.00000  Uiso   1.00
N147   N     0.90891   0.00666   0.43180   0.00000  Uiso   1.00
N148   N     0.75776   0.32667   0.06820   0.00000  Uiso   1.00
O149   O     0.79642   0.24619   0.25299   0.00000  Uiso   1.00
O150   O     0.75746   0.32604   0.27354   0.00000  Uiso   1.00
O151   O     0.67706   0.11941   0.20984   0.00000  Uiso   1.00
O152   O     0.98961   0.21392   0.29016   0.00000  Uiso   1.00
O153   O     0.87025   0.08714   0.24702   0.00000  Uiso   1.00
O154   O     0.89280   0.23721   0.24519   0.00000  Uiso   1.00
O155   O     0.77387   0.09613   0.25482   0.00000  Uiso   1.00
O156   O     0.78514   0.17117   0.31998   0.00000  Uiso   1.00
O157   O     0.88153   0.16216   0.18003   0.00000  Uiso   1.00
O158   O     0.88152   0.16219   0.31218   0.00000  Uiso   1.00
O159   O     0.78515   0.17115   0.18783   0.00000  Uiso   1.00
O160   O     0.90920   0.00729   0.22647   0.00000  Uiso   1.00
Zn161  Zn    0.76898   0.17266   0.25521   0.00000  Uiso   1.00
Zn162  Zn    0.89769   0.16067   0.24479   0.00000  Uiso   1.00
C163   C     0.18184   0.59808   0.24863   0.00000  Uiso   1.00
C164   C     0.18715   0.54227   0.40538   0.00000  Uiso   1.00
C165   C     0.16560   0.50235   0.11618   0.00000  Uiso   1.00
C166   C     0.16773   0.49765   0.38382   0.00000  Uiso   1.00
C167   C     0.18505   0.54702   0.09278   0.00000  Uiso   1.00
C168   C     0.14829   0.45298   0.40722   0.00000  Uiso   1.00
C169   C     0.18549   0.54637   0.04585   0.00000  Uiso   1.00
C170   C     0.14785   0.45363   0.45415   0.00000  Uiso   1.00
C171   C     0.16631   0.50056   0.02348   0.00000  Uiso   1.00
C172   C     0.16702   0.49944   0.47652   0.00000  Uiso   1.00
C173   C     0.14646   0.45589   0.04809   0.00000  Uiso   1.00
C174   C     0.15149   0.40192   0.25137   0.00000  Uiso   1.00
C175   C     0.18687   0.54411   0.45191   0.00000  Uiso   1.00
C176   C     0.20481   0.59027   0.02088   0.00000  Uiso   1.00
C177   C     0.12853   0.40973   0.47912   0.00000  Uiso   1.00
C178   C     0.20372   0.59317   0.11710   0.00000  Uiso   1.00
C179   C     0.12961   0.40683   0.38290   0.00000  Uiso   1.00
C180   C     0.22594   0.63608   0.45069   0.00000  Uiso   1.00
C181   C     0.10739   0.36392   0.04931   0.00000  Uiso   1.00
C182   C     0.20560   0.58951   0.47435   0.00000  Uiso   1.00
C183   C     0.12773   0.41049   0.02565   0.00000  Uiso   1.00
C184   C     0.18966   0.65230   0.24435   0.00000  Uiso   1.00
C185   C     0.14368   0.34770   0.25565   0.00000  Uiso   1.00
C186   C     0.16699   0.49924   0.33629   0.00000  Uiso   1.00
C187   C     0.16634   0.50076   0.16371   0.00000  Uiso   1.00
C188   C     0.14618   0.45773   0.09462   0.00000  Uiso   1.00
H189   H     0.13165   0.42432   0.11465   0.00000  Uiso   1.00
H190   H     0.20169   0.57568   0.38535   0.00000  Uiso   1.00
H191   H     0.21952   0.62562   0.03738   0.00000  Uiso   1.00
H192   H     0.11382   0.37438   0.46262   0.00000  Uiso   1.00
H193   H     0.27013   0.64712   0.21867   0.00000  Uiso   1.00
H194   H     0.06321   0.35288   0.28133   0.00000  Uiso   1.00
H195   H     0.31256   0.43452   0.19405   0.00000  Uiso   1.00
H196   H     0.02078   0.56548   0.30595   0.00000  Uiso   1.00
N197   N     0.31678   0.48598   0.23783   0.00000  Uiso   1.00
N198   N     0.01656   0.51402   0.26217   0.00000  Uiso   1.00
N199   N     0.21862   0.63021   0.13609   0.00000  Uiso   1.00
N200   N     0.11472   0.36979   0.36391   0.00000  Uiso   1.00
N201   N     0.24224   0.33999   0.43180   0.00000  Uiso   1.00
N202   N     0.09109   0.66001   0.06820   0.00000  Uiso   1.00
O203   O     0.12975   0.57952   0.25299   0.00000  Uiso   1.00
O204   O     0.09080   0.65937   0.27354   0.00000  Uiso   1.00
O205   O     0.01039   0.45275   0.20984   0.00000  Uiso   1.00
O206   O     0.32294   0.54725   0.29016   0.00000  Uiso   1.00
O207   O     0.20358   0.42048   0.24702   0.00000  Uiso   1.00
O208   O     0.22613   0.57054   0.24519   0.00000  Uiso   1.00
O209   O     0.10720   0.42946   0.25482   0.00000  Uiso   1.00
O210   O     0.11847   0.50450   0.31998   0.00000  Uiso   1.00
O211   O     0.21486   0.49550   0.18003   0.00000  Uiso   1.00
O212   O     0.21485   0.49552   0.31218   0.00000  Uiso   1.00
O213   O     0.11848   0.50448   0.18783   0.00000  Uiso   1.00
O214   O     0.24254   0.34063   0.22647   0.00000  Uiso   1.00
Zn215  Zn    0.10231   0.50600   0.25521   0.00000  Uiso   1.00
Zn216  Zn    0.23102   0.49400   0.24479   0.00000  Uiso   1.00
C217   C     0.51518   0.59808   0.24863   0.00000  Uiso   1.00
C218   C     0.52048   0.54227   0.40538   0.00000  Uiso   1.00
C219   C     0.49893   0.50235   0.11618   0.00000  Uiso   1.00
C220   C     0.50107   0.49765   0.38382   0.00000  Uiso   1.00
C221   C     0.51838   0.54702   0.09278   0.00000  Uiso   1.00
C222   C     0.48162   0.45298   0.40722   0.00000  Uiso   1.00
C223   C     0.51882   0.54637   0.04585   0.00000  Uiso   1.00
C224   C     0.48118   0.45363   0.45415   0.00000  Uiso   1.00
C225   C     0.49964   0.50056   0.02348   0.00000  Uiso   1.00
C226   C     0.50036   0.49944   0.47652   0.00000  Uiso   1.00
C227   C     0.47980   0.45589   0.04809   0.00000  Uiso   1.00
C228   C     0.48483   0.40192   0.25137   0.00000  Uiso   1.00
C229   C     0.52020   0.54411   0.45191   0.00000  Uiso   1.00
C230   C     0.53814   0.59027   0.02088   0.00000  Uiso   1.00
C231   C     0.46186   0.40973   0.47912   0.00000  Uiso   1.00
C232   C     0.53705   0.59317   0.11710   0.00000  Uiso   1.00
C233   C     0.46295   0.40683   0.38290   0.00000  Uiso   1.00
C234   C     0.55928   0.63608   0.45069   0.00000  Uiso   1.00
C235   C     0.44072   0.36392   0.04931   0.00000  Uiso   1.00
C236   C     0.53893   0.58951   0.47435   0.00000  Uiso   1.00
C237   C     0.46107   0.41049   0.02565   0.00000  Uiso   1.00
C238   C     0.52299   0.65230   0.24435   0.00000  Uiso   1.00
C239   C     0.47701   0.34770   0.25565   0.00000  Uiso   1.00
C240   C     0.50033   0.49924   0.33629   0.00000  Uiso   1.00
C241   C     0.49967   0.50076   0.16371   0.00000  Uiso   1.00
C242   C     0.47952   0.45773   0.09462   0.00000  Uiso   1.00
H243   H     0.46498   0.42432   0.11465   0.00000  Uiso   1.00
H244   H     0.53502   0.57568   0.38535   0.00000  Uiso   1.00
H245   H     0.55285   0.62562   0.03738   0.00000  Uiso   1.00
H246   H     0.44715   0.37438   0.46262   0.00000  Uiso   1.00
H247   H     0.60346   0.64712   0.21867   0.00000  Uiso   1.00
H248   H     0.39654   0.35288   0.28133   0.00000  Uiso   1.00
H249   H     0.64589   0.43452   0.19405   0.00000  Uiso   1.00
H250   H     0.35411   0.56548   0.30595   0.00000  Uiso   1.00
N251   N     0.65011   0.48598   0.23783   0.00000  Uiso   1.00
N252   N     0.34989   0.51402   0.26217   0.00000  Uiso   1.00
N253   N     0.55195   0.63021   0.13609   0.00000  Uiso   1.00
N254   N     0.44805   0.36979   0.36391   0.00000  Uiso   1.00
N255   N     0.57557   0.33999   0.43180   0.00000  Uiso   1.00
N256   N     0.42443   0.66001   0.06820   0.00000  Uiso   1.00
O257   O     0.46308   0.57952   0.25299   0.00000  Uiso   1.00
O258   O     0.42413   0.65937   0.27354   0.00000  Uiso   1.00
O259   O     0.34372   0.45275   0.20984   0.00000  Uiso   1.00
O260   O     0.65628   0.54725   0.29016   0.00000  Uiso   1.00
O261   O     0.53692   0.42048   0.24702   0.00000  Uiso   1.00
O262   O     0.55946   0.57054   0.24519   0.00000  Uiso   1.00
O263   O     0.44054   0.42946   0.25482   0.00000  Uiso   1.00
O264   O     0.45181   0.50450   0.31998   0.00000  Uiso   1.00
O265   O     0.54819   0.49550   0.18003   0.00000  Uiso   1.00
O266   O     0.54819   0.49552   0.31218   0.00000  Uiso   1.00
O267   O     0.45181   0.50448   0.18783   0.00000  Uiso   1.00
O268   O     0.57587   0.34063   0.22647   0.00000  Uiso   1.00
Zn269  Zn    0.43565   0.50600   0.25521   0.00000  Uiso   1.00
Zn270  Zn    0.56435   0.49400   0.24479   0.00000  Uiso   1.00
C271   C     0.84851   0.59808   0.24863   0.00000  Uiso   1.00
C272   C     0.85382   0.54227   0.40538   0.00000  Uiso   1.00
C273   C     0.83227   0.50235   0.11618   0.00000  Uiso   1.00
C274   C     0.83440   0.49765   0.38382   0.00000  Uiso   1.00
C275   C     0.85171   0.54702   0.09278   0.00000  Uiso   1.00
C276   C     0.81495   0.45298   0.40722   0.00000  Uiso   1.00
C277   C     0.85215   0.54637   0.04585   0.00000  Uiso   1.00
C278   C     0.81451   0.45363   0.45415   0.00000  Uiso   1.00
C279   C     0.83298   0.50056   0.02348   0.00000  Uiso   1.00
C280   C     0.83369   0.49944   0.47652   0.00000  Uiso   1.00
C281   C     0.81313   0.45589   0.04809   0.00000  Uiso   1.00
C282   C     0.81816   0.40192   0.25137   0.00000  Uiso   1.00
C283   C     0.85354   0.54411   0.45191   0.00000  Uiso   1.00
C284   C     0.87147   0.59027   0.02088   0.00000  Uiso   1.00
C285   C     0.79519   0.40973   0.47912   0.00000  Uiso   1.00
C286   C     0.87039   0.59317   0.11710   0.00000  Uiso   1.00
C287   C     0.79628   0.40683   0.38290   0.00000  Uiso   1.00
C288   C     0.89261   0.63608   0.45069   0.00000  Uiso   1.00
C289   C     0.77406   0.36392   0.04931   0.00000  Uiso   1.00
C290   C     0.87227   0.58951   0.47435   0.00000  Uiso   1.00
C291   C     0.79440   0.41049   0.02565   0.00000  Uiso   1.00
C292   C     0.85632   0.65230   0.24435   0.00000  Uiso   1.00
C293   C     0.81035   0.34770   0.25565   0.00000  Uiso   1.00
C294   C     0.83366   0.49924   0.33629   0.00000  Uiso   1.00
C295   C     0.83301   0.50076   0.16371   0.00000  Uiso   1.00
C296   C     0.81285   0.45773   0.09462   0.00000  Uiso   1.00
H297   H     0.79831   0.42432   0.11465   0.00000  Uiso   1.00
H298   H     0.86835   0.57568   0.38535   0.00000  Uiso   1.00
H299   H     0.88618   0.62562   0.03738   0.00000  Uiso   1.00
H300   H     0.78048   0.37438   0.46262   0.00000  Uiso   1.00
H301   H     0.93679   0.64712   0.21867   0.00000  Uiso   1.00
H302   H     0.72987   0.35288   0.28133   0.00000  Uiso   1.00
H303   H     0.97922   0.43452   0.19405   0.00000  Uiso   1.00
H304   H     0.68744   0.56548   0.30595   0.00000  Uiso   1.00
N305   N     0.98344   0.48598   0.23783   0.00000  Uiso   1.00
N306   N     0.68322   0.51402   0.26217   0.00000  Uiso   1.00
N307   N     0.88528   0.63021   0.13609   0.00000  Uiso   1.00
N308   N     0.78138   0.36979   0.36391   0.00000  Uiso   1.00
N309   N     0.90891   0.33999   0.43180   0.00000  Uiso   1.00
N310   N     0.75776   0.66001   0.06820   0.00000  Uiso   1.00
O311   O     0.79642   0.57952   0.25299   0.00000  Uiso   1.00
O312   O     0.75746   0.65937   0.27354   0.00000  Uiso   1.00
O313   O     0.67706   0.45275   0.20984   0.00000  Uiso   1.00
O314   O     0.98961   0.54725   0.29016   0.00000  Uiso   1.00
O315   O     0.87025   0.42048   0.24702   0.00000  Uiso   1.00
O316   O     0.89280   0.57054   0.24519   0.00000  Uiso   1.00
O317   O     0.77387   0.42946   0.25482   0.00000  Uiso   1.00
O318   O     0.78514   0.50450   0.31998   0.00000  Uiso   1.00
O319   O     0.88153   0.49550   0.18003   0.00000  Uiso   1.00
O320   O     0.88152   0.49552   0.31218   0.00000  Uiso   1.00
O321   O     0.78515   0.50448   0.18783   0.00000  Uiso   1.00
O322   O     0.90920   0.34063   0.22647   0.00000  Uiso   1.00
Zn323  Zn    0.76898   0.50600   0.25521   0.00000  Uiso   1.00
Zn324  Zn    0.89769   0.49400   0.24479   0.00000  Uiso   1.00
C325   C     0.18184   0.93141   0.24863   0.00000  Uiso   1.00
C326   C     0.18715   0.87560   0.40538   0.00000  Uiso   1.00
C327   C     0.16560   0.83568   0.11618   0.00000  Uiso   1.00
C328   C     0.16773   0.83099   0.38382   0.00000  Uiso   1.00
C329   C     0.18505   0.88035   0.09278   0.00000  Uiso   1.00
C330   C     0.14829   0.78632   0.40722   0.00000  Uiso   1.00
C331   C     0.18549   0.87970   0.04585   0.00000  Uiso   1.00
C332   C     0.14785   0.78697   0.45415   0.00000  Uiso   1.00
C333   C     0.16631   0.83390   0.02348   0.00000  Uiso   1.00
C334   C     0.16702   0.83277   0.47652   0.00000  Uiso   1.00
C335   C     0.14646   0.78923   0.04809   0.00000  Uiso   1.00
C336   C     0.15149   0.73525   0.25137   0.00000  Uiso   1.00
C337   C     0.18687   0.87744   0.45191   0.00000  Uiso   1.00
C338   C     0.20481   0.92361   0.02088   0.00000  Uiso   1.00
C339   C     0.12853   0.74306   0.47912   0.00000  Uiso   1.00
C340   C     0.20372   0.92651   0.11710   0.00000  Uiso   1.00
C341   C     0.12961   0.74016   0.38290   0.00000  Uiso   1.00
C342   C     0.22594   0.96942   0.45069   0.00000  Uiso   1.00
C343   C     0.10739   0.69725   0.04931   0.00000  Uiso   1.00
C344   C     0.20560   0.92285   0.47435   0.00000  Uiso   1.00
C345   C     0.12773   0.74382   0.02565   0.00000  Uiso   1.00
C346   C     0.18966   0.98563   0.24435   0.00000  Uiso   1.00
C347   C     0.14368   0.68103   0.25565   0.00000  Uiso   1.00
C348   C     0.16699   0.83258   0.33629   0.00000  Uiso   1.00
C349   C     0.16634   0.83409   0.16371   0.00000  Uiso   1.00
C350   C     0.14618   0.79106   0.09462   0.00000  Uiso   1.00
H351   H     0.13165   0.75765   0.11465   0.00000  Uiso   1.00
H352   H     0.20169   0.90902   0.38535   0.00000  Uiso   1.00
H353   H     0.21952   0.95896   0.03738   0.00000  Uiso   1.00
H354   H     0.11382   0.70771   0.46262   0.00000  Uiso   1.00
H355   H     0.27013   0.98045   0.21867   0.00000  Uiso   1.00
H356   H     0.06321   0.68621   0.28133   0.00000  Uiso   1.00
H357   H     0.31256   0.76786   0.19405   0.00000  Uiso   1.00
H358   H     0.02078   0.89881   0.30595   0.00000  Uiso   1.00
N359   N     0.31678   0.81932   0.23783   0.00000  Uiso   1.00
N360   N     0.01656   0.84735   0.26217   0.00000  Uiso   1.00
N361   N     0.21862   0.96354   0.13609   0.00000  Uiso   1.00
N362   N     0.11472   0.70313   0.36391   0.00000  Uiso   1.00
N363   N     0.24224   0.67333   0.43180   0.00000  Uiso   1.00
N364   N     0.09109   0.99334   0.06820   0.00000  Uiso   1.00
O365   O     0.12975   0.91286   0.25299   0.00000  Uiso   1.00
O366   O     0.09080   0.99271   0.27354   0.00000  Uiso   1.00
O367   O     0.01039   0.78608   0.20984   0.00000  Uiso   1.00
O368   O     0.32294   0.88059   0.29016   0.00000  Uiso   1.00
O369   O     0.20358   0.75381   0.24702   0.00000  Uiso   1.00
O370   O     0.22613   0.90387   0.24519   0.00000  Uiso   1.00
O371   O     0.10720   0.76279   0.25482   0.00000  Uiso   1.00
O372   O     0.11847   0.83784   0.31998   0.00000  Uiso   1.00
O373   O     0.21486   0.82883   0.18003   0.00000  Uiso   1.00
O374   O     0.21485   0.82885   0.31218   0.00000  Uiso   1.00
O375   O     0.11848   0.83781   0.18783   0.00000  Uiso   1.00
O376   O     0.24254   0.67396   0.22647   0.00000  Uiso   1.00
Zn377  Zn    0.10231   0.83933   0.25521   0.00000  Uiso   1.00
Zn378  Zn    0.23102   0.82734   0.24479   0.00000  Uiso   1.00
C379   C     0.51518   0.93141   0.24863   0.00000  Uiso   1.00
C380   C     0.52048   0.87560   0.40538   0.00000  Uiso   1.00
C381   C     0.49893   0.83568   0.11618   0.00000  Uiso   1.00
C382   C     0.50107   0.83099   0.38382   0.00000  Uiso   1.00
C383   C     0.51838   0.88035   0.09278   0.00000  Uiso   1.00
C384   C     0.48162   0.78632   0.40722   0.00000  Uiso   1.00
C385   C     0.51882   0.87970   0.04585   0.00000  Uiso   1.00
C386   C     0.48118   0.78697   0.45415   0.00000  Uiso   1.00
C387   C     0.49964   0.83390   0.02348   0.00000  Uiso   1.00
C388   C     0.50036   0.83277   0.47652   0.00000  Uiso   1.00
C389   C     0.47980   0.78923   0.04809   0.00000  Uiso   1.00
C390   C     0.48483   0.73525   0.25137   0.00000  Uiso   1.00
C391   C     0.52020   0.87744   0.45191   0.00000  Uiso   1.00
C392   C     0.53814   0.92361   0.02088   0.00000  Uiso   1.00
C393   C     0.46186   0.74306   0.47912   0.00000  Uiso   1.00
C394   C     0.53705   0.92651   0.11710   0.00000  Uiso   1.00
C395   C     0.46295   0.74016   0.38290   0.00000  Uiso   1.00
C396   C     0.55928   0.96942   0.45069   0.00000  Uiso   1.00
C397   C     0.44072   0.69725   0.04931   0.00000  Uiso   1.00
C398   C     0.53893   0.92285   0.47435   0.00000  Uiso   1.00
C399   C     0.46107   0.74382   0.02565   0.00000  Uiso   1.00
C400   C     0.52299   0.98563   0.24435   0.00000  Uiso   1.00
C401   C     0.47701   0.68103   0.25565   0.00000  Uiso   1.00
C402   C     0.50033   0.83258   0.33629   0.00000  Uiso   1.00
C403   C     0.49967   0.83409   0.16371   0.00000  Uiso   1.00
C404   C     0.47952   0.79106   0.09462   0.00000  Uiso   1.00
H405   H     0.46498   0.75765   0.11465   0.00000  Uiso   1.00
H406   H     0.53502   0.90902   0.38535   0.00000  Uiso   1.00
H407   H     0.55285   0.95896   0.03738   0.00000  Uiso   1.00
H408   H     0.44715   0.70771   0.46262   0.00000  Uiso   1.00
H409   H     0.60346   0.98045   0.21867   0.00000  Uiso   1.00
H410   H     0.39654   0.68621   0.28133   0.00000  Uiso   1.00
H411   H     0.64589   0.76786   0.19405   0.00000  Uiso   1.00
H412   H     0.35411   0.89881   0.30595   0.00000  Uiso   1.00
N413   N     0.65011   0.81932   0.23783   0.00000  Uiso   1.00
N414   N     0.34989   0.84735   0.26217   0.00000  Uiso   1.00
N415   N     0.55195   0.96354   0.13609   0.00000  Uiso   1.00
N416   N     0.44805   0.70313   0.36391   0.00000  Uiso   1.00
N417   N     0.57557   0.67333   0.43180   0.00000  Uiso   1.00
N418   N     0.42443   0.99334   0.06820   0.00000  Uiso   1.00
O419   O     0.46308   0.91286   0.25299   0.00000  Uiso   1.00
O420   O     0.42413   0.99271   0.27354   0.00000  Uiso   1.00
O421   O     0.34372   0.78608   0.20984   0.00000  Uiso   1.00
O422   O     0.65628   0.88059   0.29016   0.00000  Uiso   1.00
O423   O     0.53692   0.75381   0.24702   0.00000  Uiso   1.00
O424   O     0.55946   0.90387   0.24519   0.00000  Uiso   1.00
O425   O     0.44054   0.76279   0.25482   0.00000  Uiso   1.00
O426   O     0.45181   0.83784   0.31998   0.00000  Uiso   1.00
O427   O     0.54819   0.82883   0.18003   0.00000  Uiso   1.00
O428   O     0.54819   0.82885   0.31218   0.00000  Uiso   1.00
O429   O     0.45181   0.83781   0.18783   0.00000  Uiso   1.00
O430   O     0.57587   0.67396   0.22647   0.00000  Uiso   1.00
Zn431  Zn    0.43565   0.83933   0.25521   0.00000  Uiso   1.00
Zn432  Zn    0.56435   0.82734   0.24479   0.00000  Uiso   1.00
C433   C     0.84851   0.93141   0.24863   0.00000  Uiso   1.00
C434   C     0.85382   0.87560   0.40538   0.00000  Uiso   1.00
C435   C     0.83227   0.83568   0.11618   0.00000  Uiso   1.00
C436   C     0.83440   0.83099   0.38382   0.00000  Uiso   1.00
C437   C     0.85171   0.88035   0.09278   0.00000  Uiso   1.00
C438   C     0.81495   0.78632   0.40722   0.00000  Uiso   1.00
C439   C     0.85215   0.87970   0.04585   0.00000  Uiso   1.00
C440   C     0.81451   0.78697   0.45415   0.00000  Uiso   1.00
C441   C     0.83298   0.83390   0.02348   0.00000  Uiso   1.00
C442   C     0.83369   0.83277   0.47652   0.00000  Uiso   1.00
C443   C     0.81313   0.78923   0.04809   0.00000  Uiso   1.00
C444   C     0.81816   0.73525   0.25137   0.00000  Uiso   1.00
C445   C     0.85354   0.87744   0.45191   0.00000  Uiso   1.00
C446   C     0.87147   0.92361   0.02088   0.00000  Uiso   1.00
C447   C     0.79519   0.74306   0.47912   0.00000  Uiso   1.00
C448   C     0.87039   0.92651   0.11710   0.00000  Uiso   1.00
C449   C     0.79628   0.74016   0.38290   0.00000  Uiso   1.00
C450   C     0.89261   0.96942   0.45069   0.00000  Uiso   1.00
C451   C     0.77406   0.69725   0.04931   0.00000  Uiso   1.00
C452   C     0.87227   0.92285   0.47435   0.00000  Uiso   1.00
C453   C     0.79440   0.74382   0.02565   0.00000  Uiso   1.00
C454   C     0.85632   0.98563   0.24435   0.00000  Uiso   1.00
C455   C     0.81035   0.68103   0.25565   0.00000  Uiso   1.00
C456   C     0.83366   0.83258   0.33629   0.00000  Uiso   1.00
C457   C     0.83301   0.83409   0.16371   0.00000  Uiso   1.00
C458   C     0.81285   0.79106   0.09462   0.00000  Uiso   1.00
H459   H     0.79831   0.75765   0.11465   0.00000  Uiso   1.00
H460   H     0.86835   0.90902   0.38535   0.00000  Uiso   1.00
H461   H     0.88618   0.95896   0.03738   0.00000  Uiso   1.00
H462   H     0.78048   0.70771   0.46262   0.00000  Uiso   1.00
H463   H     0.93679   0.98045   0.21867   0.00000  Uiso   1.00
H464   H     0.72987   0.68621   0.28133   0.00000  Uiso   1.00
H465   H     0.97922   0.76786   0.19405   0.00000  Uiso   1.00
H466   H     0.68744   0.89881   0.30595   0.00000  Uiso   1.00
N467   N     0.98344   0.81932   0.23783   0.00000  Uiso   1.00
N468   N     0.68322   0.84735   0.26217   0.00000  Uiso   1.00
N469   N     0.88528   0.96354   0.13609   0.00000  Uiso   1.00
N470   N     0.78138   0.70313   0.36391   0.00000  Uiso   1.00
N471   N     0.90891   0.67333   0.43180   0.00000  Uiso   1.00
N472   N     0.75776   0.99334   0.06820   0.00000  Uiso   1.00
O473   O     0.79642   0.91286   0.25299   0.00000  Uiso   1.00
O474   O     0.75746   0.99271   0.27354   0.00000  Uiso   1.00
O475   O     0.67706   0.78608   0.20984   0.00000  Uiso   1.00
O476   O     0.98961   0.88059   0.29016   0.00000  Uiso   1.00
O477   O     0.87025   0.75381   0.24702   0.00000  Uiso   1.00
O478   O     0.89280   0.90387   0.24519   0.00000  Uiso   1.00
O479   O     0.77387   0.76279   0.25482   0.00000  Uiso   1.00
O480   O     0.78514   0.83784   0.31998   0.00000  Uiso   1.00
O481   O     0.88153   0.82883   0.18003   0.00000  Uiso   1.00
O482   O     0.88152   0.82885   0.31218   0.00000  Uiso   1.00
O483   O     0.78515   0.83781   0.18783   0.00000  Uiso   1.00
O484   O     0.90920   0.67396   0.22647   0.00000  Uiso   1.00
Zn485  Zn    0.76898   0.83933   0.25521   0.00000  Uiso   1.00
Zn486  Zn    0.89769   0.82734   0.24479   0.00000  Uiso   1.00
C487   C     0.18184   0.26475   0.74863   0.00000  Uiso   1.00
C488   C     0.18715   0.20894   0.90538   0.00000  Uiso   1.00
C489   C     0.16560   0.16901   0.61618   0.00000  Uiso   1.00
C490   C     0.16773   0.16432   0.88382   0.00000  Uiso   1.00
C491   C     0.18505   0.21368   0.59278   0.00000  Uiso   1.00
C492   C     0.14829   0.11965   0.90722   0.00000  Uiso   1.00
C493   C     0.18549   0.21303   0.54585   0.00000  Uiso   1.00
C494   C     0.14785   0.12030   0.95415   0.00000  Uiso   1.00
C495   C     0.16631   0.16723   0.52348   0.00000  Uiso   1.00
C496   C     0.16702   0.16610   0.97652   0.00000  Uiso   1.00
C497   C     0.14646   0.12256   0.54809   0.00000  Uiso   1.00
C498   C     0.15149   0.06859   0.75137   0.00000  Uiso   1.00
C499   C     0.18687   0.21077   0.95191   0.00000  Uiso   1.00
C500   C     0.20481   0.25694   0.52088   0.00000  Uiso   1.00
C501   C     0.12853   0.07639   0.97912   0.00000  Uiso   1.00
C502   C     0.20372   0.25984   0.61710   0.00000  Uiso   1.00
C503   C     0.12961   0.07349   0.88290   0.00000  Uiso   1.00
C504   C     0.22594   0.30275   0.95069   0.00000  Uiso   1.00
C505   C     0.10739   0.03058   0.54931   0.00000  Uiso   1.00
C506   C     0.20560   0.25618   0.97435   0.00000  Uiso   1.00
C507   C     0.12773   0.07715   0.52565   0.00000  Uiso   1.00
C508   C     0.18966   0.31897   0.74435   0.00000  Uiso   1.00
C509   C     0.14368   0.01437   0.75565   0.00000  Uiso   1.00
C510   C     0.16699   0.16591   0.83629   0.00000  Uiso   1.00
C511   C     0.16634   0.16742   0.66371   0.00000  Uiso   1.00
C512   C     0.14618   0.12440   0.59462   0.00000  Uiso   1.00
H513   H     0.13165   0.09098   0.61465   0.00000  Uiso   1.00
H514   H     0.20169   0.24235   0.88535   0.00000  Uiso   1.00
H515   H     0.21952   0.29229   0.53738   0.00000  Uiso   1.00
H516   H     0.11382   0.04104   0.96262   0.00000  Uiso   1.00
H517   H     0.27013   0.31379   0.71867   0.00000  Uiso   1.00
H518   H     0.06321   0.01955   0.78133   0.00000  Uiso   1.00
H519   H     0.31256   0.10119   0.69405   0.00000  Uiso   1.00
H520   H     0.02078   0.23214   0.80595   0.00000  Uiso   1.00
N521   N     0.31678   0.15265   0.73783   0.00000  Uiso   1.00
N522   N     0.01656   0.18068   0.76217   0.00000  Uiso   1.00
N523   N     0.21862   0.29687   0.63609   0.00000  Uiso   1.00
N524   N     0.11472   0.03646   0.86391   0.00000  Uiso   1.00
N525   N     0.24224   0.00666   0.93180   0.00000  Uiso   1.00
N526   N     0.09109   0.32667   0.56820   0.00000  Uiso   1.00
O527   O     0.12975   0.24619   0.75299   0.00000  Uiso   1.00
O528   O     0.09080   0.32604   0.77354   0.00000  Uiso   1.00
O529   O     0.01039   0.11941   0.70984   0.00000  Uiso   1.00
O530   O     0.32294   0.21392   0.79016   0.00000  Uiso   1.00
O531   O     0.20358   0.08714   0.74702   0.00000  Uiso   1.00
O532   O     0.22613   0.23721   0.74519   0.00000  Uiso   1.00
O533   O     0.10720   0.09613   0.75482   0.00000  Uiso   1.00
O534   O     0.11847   0.17117   0.81998   0.00000  Uiso   1.00
O535   O     0.21486   0.16216   0.68003   0.00000  Uiso   1.00
O536   O     0.21485   0.16219   0.81218   0.00000  Uiso   1.00
O537   O     0.11848   0.17115   0.68783   0.00000  Uiso   1.00
O538   O     0.24254   0.00729   0.72647   0.00000  Uiso   1.00
Zn539  Zn    0.10231   0.17266   0.75521   0.00000  Uiso   1.00
Zn540  Zn    0.23102   0.16067   0.74479   0.00000  Uiso   1.00
C541   C     0.51518   0.26475   0.74863   0.00000  Uiso   1.00
C542   C     0.52048   0.20894   0.90538   0.00000  Uiso   1.00
C543   C     0.49893   0.16901   0.61618   0.00000  Uiso   1.00
C544   C     0.50107   0.16432   0.88382   0.00000  Uiso   1.00
C545   C     0.51838   0.21368   0.59278   0.00000  Uiso   1.00
C546   C     0.48162   0.11965   0.90722   0.00000  Uiso   1.00
C547   C     0.51882   0.21303   0.54585   0.00000  Uiso   1.00
C548   C     0.48118   0.12030   0.95415   0.00000  Uiso   1.00
C549   C     0.49964   0.16723   0.52348   0.00000  Uiso   1.00
C550   C     0.50036   0.16610   0.97652   0.00000  Uiso   1.00
C551   C     0.47980   0.12256   0.54809   0.00000  Uiso   1.00
C552   C     0.48483   0.06859   0.75137   0.00000  Uiso   1.00
C553   C     0.52020   0.21077   0.95191   0.00000  Uiso   1.00
C554   C     0.53814   0.25694   0.52088   0.00000  Uiso   1.00
C555   C     0.46186   0.07639   0.97912   0.00000  Uiso   1.00
C556   C     0.53705   0.25984   0.61710   0.00000  Uiso   1.00
C557   C     0.46295   0.07349   0.88290   0.00000  Uiso   1.00
C558   C     0.55928   0.30275   0.95069   0.00000  Uiso   1.00
C559   C     0.44072   0.03058   0.54931   0.00000  Uiso   1.00
C560   C     0.53893   0.25618   0.97435   0.00000  Uiso   1.00
C561   C     0.46107   0.07715   0.52565   0.00000  Uiso   1.00
C562   C     0.52299   0.31897   0.74435   0.00000  Uiso   1.00
C563   C     0.47701   0.01437   0.75565   0.00000  Uiso   1.00
C564   C     0.50033   0.16591   0.83629   0.00000  Uiso   1.00
C565   C     0.49967   0.16742   0.66371   0.00000  Uiso   1.00
C566   C     0.47952   0.12440   0.59462   0.00000  Uiso   1.00
H567   H     0.46498   0.09098   0.61465   0.00000  Uiso   1.00
H568   H     0.53502   0.24235   0.88535   0.00000  Uiso   1.00
H569   H     0.55285   0.29229   0.53738   0.00000  Uiso   1.00
H570   H     0.44715   0.04104   0.96262   0.00000  Uiso   1.00
H571   H     0.60346   0.31379   0.71867   0.00000  Uiso   1.00
H572   H     0.39654   0.01955   0.78133   0.00000  Uiso   1.00
H573   H     0.64589   0.10119   0.69405   0.00000  Uiso   1.00
H574   H     0.35411   0.23214   0.80595   0.00000  Uiso   1.00
N575   N     0.65011   0.15265   0.73783   0.00000  Uiso   1.00
N576   N     0.34989   0.18068   0.76217   0.00000  Uiso   1.00
N577   N     0.55195   0.29687   0.63609   0.00000  Uiso   1.00
N578   N     0.44805   0.03646   0.86391   0.00000  Uiso   1.00
N579   N     0.57557   0.00666   0.93180   0.00000  Uiso   1.00
N580   N     0.42443   0.32667   0.56820   0.00000  Uiso   1.00
O581   O     0.46308   0.24619   0.75299   0.00000  Uiso   1.00
O582   O     0.42413   0.32604   0.77354   0.00000  Uiso   1.00
O583   O     0.34372   0.11941   0.70984   0.00000  Uiso   1.00
O584   O     0.65628   0.21392   0.79016   0.00000  Uiso   1.00
O585   O     0.53692   0.08714   0.74702   0.00000  Uiso   1.00
O586   O     0.55946   0.23721   0.74519   0.00000  Uiso   1.00
O587   O     0.44054   0.09613   0.75482   0.00000  Uiso   1.00
O588   O     0.45181   0.17117   0.81998   0.00000  Uiso   1.00
O589   O     0.54819   0.16216   0.68003   0.00000  Uiso   1.00
O590   O     0.54819   0.16219   0.81218   0.00000  Uiso   1.00
O591   O     0.45181   0.17115   0.68783   0.00000  Uiso   1.00
O592   O     0.57587   0.00729   0.72647   0.00000  Uiso   1.00
Zn593  Zn    0.43565   0.17266   0.75521   0.00000  Uiso   1.00
Zn594  Zn    0.56435   0.16067   0.74479   0.00000  Uiso   1.00
C595   C     0.84851   0.26475   0.74863   0.00000  Uiso   1.00
C596   C     0.85382   0.20894   0.90538   0.00000  Uiso   1.00
C597   C     0.83227   0.16901   0.61618   0.00000  Uiso   1.00
C598   C     0.83440   0.16432   0.88382   0.00000  Uiso   1.00
C599   C     0.85171   0.21368   0.59278   0.00000  Uiso   1.00
C600   C     0.81495   0.11965   0.90722   0.00000  Uiso   1.00
C601   C     0.85215   0.21303   0.54585   0.00000  Uiso   1.00
C602   C     0.81451   0.12030   0.95415   0.00000  Uiso   1.00
C603   C     0.83298   0.16723   0.52348   0.00000  Uiso   1.00
C604   C     0.83369   0.16610   0.97652   0.00000  Uiso   1.00
C605   C     0.81313   0.12256   0.54809   0.00000  Uiso   1.00
C606   C     0.81816   0.06859   0.75137   0.00000  Uiso   1.00
C607   C     0.85354   0.21077   0.95191   0.00000  Uiso   1.00
C608   C     0.87147   0.25694   0.52088   0.00000  Uiso   1.00
C609   C     0.79519   0.07639   0.97912   0.00000  Uiso   1.00
C610   C     0.87039   0.25984   0.61710   0.00000  Uiso   1.00
C611   C     0.79628   0.07349   0.88290   0.00000  Uiso   1.00
C612   C     0.89261   0.30275   0.95069   0.00000  Uiso   1.00
C613   C     0.77406   0.03058   0.54931   0.00000  Uiso   1.00
C614   C     0.87227   0.25618   0.97435   0.00000  Uiso   1.00
C615   C     0.79440   0.07715   0.52565   0.00000  Uiso   1.00
C616   C     0.85632   0.31897   0.74435   0.00000  Uiso   1.00
C617   C     0.81035   0.01437   0.75565   0.00000  Uiso   1.00
C618   C     0.83366   0.16591   0.83629   0.00000  Uiso   1.00
C619   C     0.83301   0.16742   0.66371   0.00000  Uiso   1.00
C620   C     0.81285   0.12440   0.59462   0.00000  Uiso   1.00
H621   H     0.79831   0.09098   0.61465   0.00000  Uiso   1.00
H622   H     0.86835   0.24235   0.88535   0.00000  Uiso   1.00
H623   H     0.88618   0.29229   0.53738   0.00000  Uiso   1.00
H624   H     0.78048   0.04104   0.96262   0.00000  Uiso   1.00
H625   H     0.93679   0.31379   0.71867   0.00000  Uiso   1.00
H626   H     0.72987   0.01955   0.78133   0.00000  Uiso   1.00
H627   H     0.97922   0.10119   0.69405   0.00000  Uiso   1.00
H628   H     0.68744   0.23214   0.80595   0.00000  Uiso   1.00
N629   N     0.98344   0.15265   0.73783   0.00000  Uiso   1.00
N630   N     0.68322   0.18068   0.76217   0.00000  Uiso   1.00
N631   N     0.88528   0.29687   0.63609   0.00000  Uiso   1.00
N632   N     0.78138   0.03646   0.86391   0.00000  Uiso   1.00
N633   N     0.90891   0.00666   0.93180   0.00000  Uiso   1.00
N634   N     0.75776   0.32667   0.56820   0.00000  Uiso   1.00
O635   O     0.79642   0.24619   0.75299   0.00000  Uiso   1.00
O636   O     0.75746   0.32604   0.77354   0.00000  Uiso   1.00
O637   O     0.67706   0.11941   0.70984   0.00000  Uiso   1.00
O638   O     0.98961   0.21392   0.79016   0.00000  Uiso   1.00
O639   O     0.87025   0.08714   0.74702   0.00000  Uiso   1.00
O640   O     0.89280   0.23721   0.74519   0.00000  Uiso   1.00
O641   O     0.77387   0.09613   0.75482   0.00000  Uiso   1.00
O642   O     0.78514   0.17117   0.81998   0.00000  Uiso   1.00
O643   O     0.88153   0.16216   0.68003   0.00000  Uiso   1.00
O644   O     0.88152   0.16219   0.81218   0.00000  Uiso   1.00
O645   O     0.78515   0.17115   0.68783   0.00000  Uiso   1.00
O646   O     0.90920   0.00729   0.72647   0.00000  Uiso   1.00
Zn647  Zn    0.76898   0.17266   0.75521   0.00000  Uiso   1.00
Zn648  Zn    0.89769   0.16067   0.74479   0.00000  Uiso   1.00
C649   C     0.18184   0.59808   0.74863   0.00000  Uiso   1.00
C650   C     0.18715   0.54227   0.90538   0.00000  Uiso   1.00
C651   C     0.16560   0.50235   0.61618   0.00000  Uiso   1.00
C652   C     0.16773   0.49765   0.88382   0.00000  Uiso   1.00
C653   C     0.18505   0.54702   0.59278   0.00000  Uiso   1.00
C654   C     0.14829   0.45298   0.90722   0.00000  Uiso   1.00
C655   C     0.18549   0.54637   0.54585   0.00000  Uiso   1.00
C656   C     0.14785   0.45363   0.95415   0.00000  Uiso   1.00
C657   C     0.16631   0.50056   0.52348   0.00000  Uiso   1.00
C658   C     0.16702   0.49944   0.97652   0.00000  Uiso   1.00
C659   C     0.14646   0.45589   0.54809   0.00000  Uiso   1.00
C660   C     0.15149   0.40192   0.75137   0.00000  Uiso   1.00
C661   C     0.18687   0.54411   0.95191   0.00000  Uiso   1.00
C662   C     0.20481   0.59027   0.52088   0.00000  Uiso   1.00
C663   C     0.12853   0.40973   0.97912   0.00000  Uiso   1.00
C664   C     0.20372   0.59317   0.61710   0.00000  Uiso   1.00
C665   C     0.12961   0.40683   0.88290   0.00000  Uiso   1.00
C666   C     0.22594   0.63608   0.95069   0.00000  Uiso   1.00
C667   C     0.10739   0.36392   0.54931   0.00000  Uiso   1.00
C668   C     0.20560   0.58951   0.97435   0.00000  Uiso   1.00
C669   C     0.12773   0.41049   0.52565   0.00000  Uiso   1.00
C670   C     0.18966   0.65230   0.74435   0.00000  Uiso   1.00
C671   C     0.14368   0.34770   0.75565   0.00000  Uiso   1.00
C672   C     0.16699   0.49924   0.83629   0.00000  Uiso   1.00
C673   C     0.16634   0.50076   0.66371   0.00000  Uiso   1.00
C674   C     0.14618   0.45773   0.59462   0.00000  Uiso   1.00
H675   H     0.13165   0.42432   0.61465   0.00000  Uiso   1.00
H676   H     0.20169   0.57568   0.88535   0.00000  Uiso   1.00
H677   H     0.21952   0.62562   0.53738   0.00000  Uiso   1.00
H678   H     0.11382   0.37438   0.96262   0.00000  Uiso   1.00
H679   H     0.27013   0.64712   0.71867   0.00000  Uiso   1.00
H680   H     0.06321   0.35288   0.78133   0.00000  Uiso   1.00
H681   H     0.31256   0.43452   0.69405   0.00000  Uiso   1.00
H682   H     0.02078   0.56548   0.80595   0.00000  Uiso   1.00
N683   N     0.31678   0.48598   0.73783   0.00000  Uiso   1.00
N684   N     0.01656   0.51402   0.76217   0.00000  Uiso   1.00
N685   N     0.21862   0.63021   0.63609   0.00000  Uiso   1.00
N686   N     0.11472   0.36979   0.86391   0.00000  Uiso   1.00
N687   N     0.24224   0.33999   0.93180   0.00000  Uiso   1.00
N688   N     0.09109   0.66001   0.56820   0.00000  Uiso   1.00
O689   O     0.12975   0.57952   0.75299   0.00000  Uiso   1.00
O690   O     0.09080   0.65937   0.77354   0.00000  Uiso   1.00
O691   O     0.01039   0.45275   0.70984   0.00000  Uiso   1.00
O692   O     0.32294   0.54725   0.79016   0.00000  Uiso   1.00
O693   O     0.20358   0.42048   0.74702   0.00000  Uiso   1.00
O694   O     0.22613   0.57054   0.74519   0.00000  Uiso   1.00
O695   O     0.10720   0.42946   0.75482   0.00000  Uiso   1.00
O696   O     0.11847   0.50450   0.81998   0.00000  Uiso   1.00
O697   O     0.21486   0.49550   0.68003   0.00000  Uiso   1.00
O698   O     0.21485   0.49552   0.81218   0.00000  Uiso   1.00
O699   O     0.11848   0.50448   0.68783   0.00000  Uiso   1.00
O700   O     0.24254   0.34063   0.72647   0.00000  Uiso   1.00
Zn701  Zn    0.10231   0.50600   0.75521   0.00000  Uiso   1.00
Zn702  Zn    0.23102   0.49400   0.74479   0.00000  Uiso   1.00
C703   C     0.51518   0.59808   0.74863   0.00000  Uiso   1.00
C704   C     0.52048   0.54227   0.90538   0.00000  Uiso   1.00
C705   C     0.49893   0.50235   0.61618   0.00000  Uiso   1.00
C706   C     0.50107   0.49765   0.88382   0.00000  Uiso   1.00
C707   C     0.51838   0.54702   0.59278   0.00000  Uiso   1.00
C708   C     0.48162   0.45298   0.90722   0.00000  Uiso   1.00
C709   C     0.51882   0.54637   0.54585   0.00000  Uiso   1.00
C710   C     0.48118   0.45363   0.95415   0.00000  Uiso   1.00
C711   C     0.49964   0.50056   0.52348   0.00000  Uiso   1.00
C712   C     0.50036   0.49944   0.97652   0.00000  Uiso   1.00
C713   C     0.47980   0.45589   0.54809   0.00000  Uiso   1.00
C714   C     0.48483   0.40192   0.75137   0.00000  Uiso   1.00
C715   C     0.52020   0.54411   0.95191   0.00000  Uiso   1.00
C716   C     0.53814   0.59027   0.52088   0.00000  Uiso   1.00
C717   C     0.46186   0.40973   0.97912   0.00000  Uiso   1.00
C718   C     0.53705   0.59317   0.61710   0.00000  Uiso   1.00
C719   C     0.46295   0.40683   0.88290   0.00000  Uiso   1.00
C720   C     0.55928   0.63608   0.95069   0.00000  Uiso   1.00
C721   C     0.44072   0.36392   0.54931   0.00000  Uiso   1.00
C722   C     0.53893   0.58951   0.97435   0.00000  Uiso   1.00
C723   C     0.46107   0.41049   0.52565   0.00000  Uiso   1.00
C724   C     0.52299   0.65230   0.74435   0.00000  Uiso   1.00
C725   C     0.47701   0.34770   0.75565   0.00000  Uiso   1.00
C726   C     0.50033   0.49924   0.83629   0.00000  Uiso   1.00
C727   C     0.49967   0.50076   0.66371   0.00000  Uiso   1.00
C728   C     0.47952   0.45773   0.59462   0.00000  Uiso   1.00
H729   H     0.46498   0.42432   0.61465   0.00000  Uiso   1.00
H730   H     0.53502   0.57568   0.88535   0.00000  Uiso   1.00
H731   H     0.55285   0.62562   0.53738   0.00000  Uiso   1.00
H732   H     0.44715   0.37438   0.96262   0.00000  Uiso   1.00
H733   H     0.60346   0.64712   0.71867   0.00000  Uiso   1.00
H734   H     0.39654   0.35288   0.78133   0.00000  Uiso   1.00
H735   H     0.64589   0.43452   0.69405   0.00000  Uiso   1.00
H736   H     0.35411   0.56548   0.80595   0.00000  Uiso   1.00
N737   N     0.65011   0.48598   0.73783   0.00000  Uiso   1.00
N738   N     0.34989   0.51402   0.76217   0.00000  Uiso   1.00
N739   N     0.55195   0.63021   0.63609   0.00000  Uiso   1.00
N740   N     0.44805   0.36979   0.86391   0.00000  Uiso   1.00
N741   N     0.57557   0.33999   0.93180   0.00000  Uiso   1.00
N742   N     0.42443   0.66001   0.56820   0.00000  Uiso   1.00
O743   O     0.46308   0.57952   0.75299   0.00000  Uiso   1.00
O744   O     0.42413   0.65937   0.77354   0.00000  Uiso   1.00
O745   O     0.34372   0.45275   0.70984   0.00000  Uiso   1.00
O746   O     0.65628   0.54725   0.79016   0.00000  Uiso   1.00
O747   O     0.53692   0.42048   0.74702   0.00000  Uiso   1.00
O748   O     0.55946   0.57054   0.74519   0.00000  Uiso   1.00
O749   O     0.44054   0.42946   0.75482   0.00000  Uiso   1.00
O750   O     0.45181   0.50450   0.81998   0.00000  Uiso   1.00
O751   O     0.54819   0.49550   0.68003   0.00000  Uiso   1.00
O752   O     0.54819   0.49552   0.81218   0.00000  Uiso   1.00
O753   O     0.45181   0.50448   0.68783   0.00000  Uiso   1.00
O754   O     0.57587   0.34063   0.72647   0.00000  Uiso   1.00
Zn755  Zn    0.43565   0.50600   0.75521   0.00000  Uiso   1.00
Zn756  Zn    0.56435   0.49400   0.74479   0.00000  Uiso   1.00
C757   C     0.84851   0.59808   0.74863   0.00000  Uiso   1.00
C758   C     0.85382   0.54227   0.90538   0.00000  Uiso   1.00
C759   C     0.83227   0.50235   0.61618   0.00000  Uiso   1.00
C760   C     0.83440   0.49765   0.88382   0.00000  Uiso   1.00
C761   C     0.85171   0.54702   0.59278   0.00000  Uiso   1.00
C762   C     0.81495   0.45298   0.90722   0.00000  Uiso   1.00
C763   C     0.85215   0.54637   0.54585   0.00000  Uiso   1.00
C764   C     0.81451   0.45363   0.95415   0.00000  Uiso   1.00
C765   C     0.83298   0.50056   0.52348   0.00000  Uiso   1.00
C766   C     0.83369   0.49944   0.97652   0.00000  Uiso   1.00
C767   C     0.81313   0.45589   0.54809   0.00000  Uiso   1.00
C768   C     0.81816   0.40192   0.75137   0.00000  Uiso   1.00
C769   C     0.85354   0.54411   0.95191   0.00000  Uiso   1.00
C770   C     0.87147   0.59027   0.52088   0.00000  Uiso   1.00
C771   C     0.79519   0.40973   0.97912   0.00000  Uiso   1.00
C772   C     0.87039   0.59317   0.61710   0.00000  Uiso   1.00
C773   C     0.79628   0.40683   0.88290   0.00000  Uiso   1.00
C774   C     0.89261   0.63608   0.95069   0.00000  Uiso   1.00
C775   C     0.77406   0.36392   0.54931   0.00000  Uiso   1.00
C776   C     0.87227   0.58951   0.97435   0.00000  Uiso   1.00
C777   C     0.79440   0.41049   0.52565   0.00000  Uiso   1.00
C778   C     0.85632   0.65230   0.74435   0.00000  Uiso   1.00
C779   C     0.81035   0.34770   0.75565   0.00000  Uiso   1.00
C780   C     0.83366   0.49924   0.83629   0.00000  Uiso   1.00
C781   C     0.83301   0.50076   0.66371   0.00000  Uiso   1.00
C782   C     0.81285   0.45773   0.59462   0.00000  Uiso   1.00
H783   H     0.79831   0.42432   0.61465   0.00000  Uiso   1.00
H784   H     0.86835   0.57568   0.88535   0.00000  Uiso   1.00
H785   H     0.88618   0.62562   0.53738   0.00000  Uiso   1.00
H786   H     0.78048   0.37438   0.96262   0.00000  Uiso   1.00
H787   H     0.93679   0.64712   0.71867   0.00000  Uiso   1.00
H788   H     0.72987   0.35288   0.78133   0.00000  Uiso   1.00
H789   H     0.97922   0.43452   0.69405   0.00000  Uiso   1.00
H790   H     0.68744   0.56548   0.80595   0.00000  Uiso   1.00
N791   N     0.98344   0.48598   0.73783   0.00000  Uiso   1.00
N792   N     0.68322   0.51402   0.76217   0.00000  Uiso   1.00
N793   N     0.88528   0.63021   0.63609   0.00000  Uiso   1.00
N794   N     0.78138   0.36979   0.86391   0.00000  Uiso   1.00
N795   N     0.90891   0.33999   0.93180   0.00000  Uiso   1.00
N796   N     0.75776   0.66001   0.56820   0.00000  Uiso   1.00
O797   O     0.79642   0.57952   0.75299   0.00000  Uiso   1.00
O798   O     0.75746   0.65937   0.77354   0.00000  Uiso   1.00
O799   O     0.67706   0.45275   0.70984   0.00000  Uiso   1.00
O800   O     0.98961   0.54725   0.79016   0.00000  Uiso   1.00
O801   O     0.87025   0.42048   0.74702   0.00000  Uiso   1.00
O802   O     0.89280   0.57054   0.74519   0.00000  Uiso   1.00
O803   O     0.77387   0.42946   0.75482   0.00000  Uiso   1.00
O804   O     0.78514   0.50450   0.81998   0.00000  Uiso   1.00
O805   O     0.88153   0.49550   0.68003   0.00000  Uiso   1.00
O806   O     0.88152   0.49552   0.81218   0.00000  Uiso   1.00
O807   O     0.78515   0.50448   0.68783   0.00000  Uiso   1.00
O808   O     0.90920   0.34063   0.72647   0.00000  Uiso   1.00
Zn809  Zn    0.76898   0.50600   0.75521   0.00000  Uiso   1.00
Zn810  Zn    0.89769   0.49400   0.74479   0.00000  Uiso   1.00
C811   C     0.18184   0.93141   0.74863   0.00000  Uiso   1.00
C812   C     0.18715   0.87560   0.90538   0.00000  Uiso   1.00
C813   C     0.16560   0.83568   0.61618   0.00000  Uiso   1.00
C814   C     0.16773   0.83099   0.88382   0.00000  Uiso   1.00
C815   C     0.18505   0.88035   0.59278   0.00000  Uiso   1.00
C816   C     0.14829   0.78632   0.90722   0.00000  Uiso   1.00
C817   C     0.18549   0.87970   0.54585   0.00000  Uiso   1.00
C818   C     0.14785   0.78697   0.95415   0.00000  Uiso   1.00
C819   C     0.16631   0.83390   0.52348   0.00000  Uiso   1.00
C820   C     0.16702   0.83277   0.97652   0.00000  Uiso   1.00
C821   C     0.14646   0.78923   0.54809   0.00000  Uiso   1.00
C822   C     0.15149   0.73525   0.75137   0.00000  Uiso   1.00
C823   C     0.18687   0.87744   0.95191   0.00000  Uiso   1.00
C824   C     0.20481   0.92361   0.52088   0.00000  Uiso   1.00
C825   C     0.12853   0.74306   0.97912   0.00000  Uiso   1.00
C826   C     0.20372   0.92651   0.61710   0.00000  Uiso   1.00
C827   C     0.12961   0.74016   0.88290   0.00000  Uiso   1.00
C828   C     0.22594   0.96942   0.95069   0.00000  Uiso   1.00
C829   C     0.10739   0.69725   0.54931   0.00000  Uiso   1.00
C830   C     0.20560   0.92285   0.97435   0.00000  Uiso   1.00
C831   C     0.12773   0.74382   0.52565   0.00000  Uiso   1.00
C832   C     0.18966   0.98563   0.74435   0.00000  Uiso   1.00
C833   C     0.14368   0.68103   0.75565   0.00000  Uiso   1.00
C834   C     0.16699   0.83258   0.83629   0.00000  Uiso   1.00
C835   C     0.16634   0.83409   0.66371   0.00000  Uiso   1.00
C836   C     0.14618   0.79106   0.59462   0.00000  Uiso   1.00
H837   H     0.13165   0.75765   0.61465   0.00000  Uiso   1.00
H838   H     0.20169   0.90902   0.88535   0.00000  Uiso   1.00
H839   H     0.21952   0.95896   0.53738   0.00000  Uiso   1.00
H840   H     0.11382   0.70771   0.96262   0.00000  Uiso   1.00
H841   H     0.27013   0.98045   0.71867   0.00000  Uiso   1.00
H842   H     0.06321   0.68621   0.78133   0.00000  Uiso   1.00
H843   H     0.31256   0.76786   0.69405   0.00000  Uiso   1.00
H844   H     0.02078   0.89881   0.80595   0.00000  Uiso   1.00
N845   N     0.31678   0.81932   0.73783   0.00000  Uiso   1.00
N846   N     0.01656   0.84735   0.76217   0.00000  Uiso   1.00
N847   N     0.21862   0.96354   0.63609   0.00000  Uiso   1.00
N848   N     0.11472   0.70313   0.86391   0.00000  Uiso   1.00
N849   N     0.24224   0.67333   0.93180   0.00000  Uiso   1.00
N850   N     0.09109   0.99334   0.56820   0.00000  Uiso   1.00
O851   O     0.12975   0.91286   0.75299   0.00000  Uiso   1.00
O852   O     0.09080   0.99271   0.77354   0.00000  Uiso   1.00
O853   O     0.01039   0.78608   0.70984   0.00000  Uiso   1.00
O854   O     0.32294   0.88059   0.79016   0.00000  Uiso   1.00
O855   O     0.20358   0.75381   0.74702   0.00000  Uiso   1.00
O856   O     0.22613   0.90387   0.74519   0.00000  Uiso   1.00
O857   O     0.10720   0.76279   0.75482   0.00000  Uiso   1.00
O858   O     0.11847   0.83784   0.81998   0.00000  Uiso   1.00
O859   O     0.21486   0.82883   0.68003   0.00000  Uiso   1.00
O860   O     0.21485   0.82885   0.81218   0.00000  Uiso   1.00
O861   O     0.11848   0.83781   0.68783   0.00000  Uiso   1.00
O862   O     0.24254   0.67396   0.72647   0.00000  Uiso   1.00
Zn863  Zn    0.10231   0.83933   0.75521   0.00000  Uiso   1.00
Zn864  Zn    0.23102   0.82734   0.74479   0.00000  Uiso   1.00
C865   C     0.51518   0.93141   0.74863   0.00000  Uiso   1.00
C866   C     0.52048   0.87560   0.90538   0.00000  Uiso   1.00
C867   C     0.49893   0.83568   0.61618   0.00000  Uiso   1.00
C868   C     0.50107   0.83099   0.88382   0.00000  Uiso   1.00
C869   C     0.51838   0.88035   0.59278   0.00000  Uiso   1.00
C870   C     0.48162   0.78632   0.90722   0.00000  Uiso   1.00
C871   C     0.51882   0.87970   0.54585   0.00000  Uiso   1.00
C872   C     0.48118   0.78697   0.95415   0.00000  Uiso   1.00
C873   C     0.49964   0.83390   0.52348   0.00000  Uiso   1.00
C874   C     0.50036   0.83277   0.97652   0.00000  Uiso   1.00
C875   C     0.47980   0.78923   0.54809   0.00000  Uiso   1.00
C876   C     0.48483   0.73525   0.75137   0.00000  Uiso   1.00
C877   C     0.52020   0.87744   0.95191   0.00000  Uiso   1.00
C878   C     0.53814   0.92361   0.52088   0.00000  Uiso   1.00
C879   C     0.46186   0.74306   0.97912   0.00000  Uiso   1.00
C880   C     0.53705   0.92651   0.61710   0.00000  Uiso   1.00
C881   C     0.46295   0.74016   0.88290   0.00000  Uiso   1.00
C882   C     0.55928   0.96942   0.95069   0.00000  Uiso   1.00
C883   C     0.44072   0.69725   0.54931   0.00000  Uiso   1.00
C884   C     0.53893   0.92285   0.97435   0.00000  Uiso   1.00
C885   C     0.46107   0.74382   0.52565   0.00000  Uiso   1.00
C886   C     0.52299   0.98563   0.74435   0.00000  Uiso   1.00
C887   C     0.47701   0.68103   0.75565   0.00000  Uiso   1.00
C888   C     0.50033   0.83258   0.83629   0.00000  Uiso   1.00
C889   C     0.49967   0.83409   0.66371   0.00000  Uiso   1.00
C890   C     0.47952   0.79106   0.59462   0.00000  Uiso   1.00
H891   H     0.46498   0.75765   0.61465   0.00000  Uiso   1.00
H892   H     0.53502   0.90902   0.88535   0.00000  Uiso   1.00
H893   H     0.55285   0.95896   0.53738   0.00000  Uiso   1.00
H894   H     0.44715   0.70771   0.96262   0.00000  Uiso   1.00
H895   H     0.60346   0.98045   0.71867   0.00000  Uiso   1.00
H896   H     0.39654   0.68621   0.78133   0.00000  Uiso   1.00
H897   H     0.64589   0.76786   0.69405   0.00000  Uiso   1.00
H898   H     0.35411   0.89881   0.80595   0.00000  Uiso   1.00
N899   N     0.65011   0.81932   0.73783   0.00000  Uiso   1.00
N900   N     0.34989   0.84735   0.76217   0.00000  Uiso   1.00
N901   N     0.55195   0.96354   0.63609   0.00000  Uiso   1.00
N902   N     0.44805   0.70313   0.86391   0.00000  Uiso   1.00
N903   N     0.57557   0.67333   0.93180   0.00000  Uiso   1.00
N904   N     0.42443   0.99334   0.56820   0.00000  Uiso   1.00
O905   O     0.46308   0.91286   0.75299   0.00000  Uiso   1.00
O906   O     0.42413   0.99271   0.77354   0.00000  Uiso   1.00
O907   O     0.34372   0.78608   0.70984   0.00000  Uiso   1.00
O908   O     0.65628   0.88059   0.79016   0.00000  Uiso   1.00
O909   O     0.53692   0.75381   0.74702   0.00000  Uiso   1.00
O910   O     0.55946   0.90387   0.74519   0.00000  Uiso   1.00
O911   O     0.44054   0.76279   0.75482   0.00000  Uiso   1.00
O912   O     0.45181   0.83784   0.81998   0.00000  Uiso   1.00
O913   O     0.54819   0.82883   0.68003   0.00000  Uiso   1.00
O914   O     0.54819   0.82885   0.81218   0.00000  Uiso   1.00
O915   O     0.45181   0.83781   0.68783   0.00000  Uiso   1.00
O916   O     0.57587   0.67396   0.72647   0.00000  Uiso   1.00
Zn917  Zn    0.43565   0.83933   0.75521   0.00000  Uiso   1.00
Zn918  Zn    0.56435   0.82734   0.74479   0.00000  Uiso   1.00
C919   C     0.84851   0.93141   0.74863   0.00000  Uiso   1.00
C920   C     0.85382   0.87560   0.90538   0.00000  Uiso   1.00
C921   C     0.83227   0.83568   0.61618   0.00000  Uiso   1.00
C922   C     0.83440   0.83099   0.88382   0.00000  Uiso   1.00
C923   C     0.85171   0.88035   0.59278   0.00000  Uiso   1.00
C924   C     0.81495   0.78632   0.90722   0.00000  Uiso   1.00
C925   C     0.85215   0.87970   0.54585   0.00000  Uiso   1.00
C926   C     0.81451   0.78697   0.95415   0.00000  Uiso   1.00
C927   C     0.83298   0.83390   0.52348   0.00000  Uiso   1.00
C928   C     0.83369   0.83277   0.97652   0.00000  Uiso   1.00
C929   C     0.81313   0.78923   0.54809   0.00000  Uiso   1.00
C930   C     0.81816   0.73525   0.75137   0.00000  Uiso   1.00
C931   C     0.85354   0.87744   0.95191   0.00000  Uiso   1.00
C932   C     0.87147   0.92361   0.52088   0.00000  Uiso   1.00
C933   C     0.79519   0.74306   0.97912   0.00000  Uiso   1.00
C934   C     0.87039   0.92651   0.61710   0.00000  Uiso   1.00
C935   C     0.79628   0.74016   0.88290   0.00000  Uiso   1.00
C936   C     0.89261   0.96942   0.95069   0.00000  Uiso   1.00
C937   C     0.77406   0.69725   0.54931   0.00000  Uiso   1.00
C938   C     0.87227   0.92285   0.97435   0.00000  Uiso   1.00
C939   C     0.79440   0.74382   0.52565   0.00000  Uiso   1.00
C940   C     0.85632   0.98563   0.74435   0.00000  Uiso   1.00
C941   C     0.81035   0.68103   0.75565   0.00000  Uiso   1.00
C942   C     0.83366   0.83258   0.83629   0.00000  Uiso   1.00
C943   C     0.83301   0.83409   0.66371   0.00000  Uiso   1.00
C944   C     0.81285   0.79106   0.59462   0.00000  Uiso   1.00
H945   H     0.79831   0.75765   0.61465   0.00000  Uiso   1.00
H946   H     0.86835   0.90902   0.88535   0.00000  Uiso   1.00
H947   H     0.88618   0.95896   0.53738   0.00000  Uiso   1.00
H948   H     0.78048   0.70771   0.96262   0.00000  Uiso   1.00
H949   H     0.93679   0.98045   0.71867   0.00000  Uiso   1.00
H950   H     0.72987   0.68621   0.78133   0.00000  Uiso   1.00
H951   H     0.97922   0.76786   0.69405   0.00000  Uiso   1.00
H952   H     0.68744   0.89881   0.80595   0.00000  Uiso   1.00
N953   N     0.98344   0.81932   0.73783   0.00000  Uiso   1.00
N954   N     0.68322   0.84735   0.76217   0.00000  Uiso   1.00
N955   N     0.88528   0.96354   0.63609   0.00000  Uiso   1.00
N956   N     0.78138   0.70313   0.86391   0.00000  Uiso   1.00
N957   N     0.90891   0.67333   0.93180   0.00000  Uiso   1.00
N958   N     0.75776   0.99334   0.56820   0.00000  Uiso   1.00
O959   O     0.79642   0.91286   0.75299   0.00000  Uiso   1.00
O960   O     0.75746   0.99271   0.77354   0.00000  Uiso   1.00
O961   O     0.67706   0.78608   0.70984   0.00000  Uiso   1.00
O962   O     0.98961   0.88059   0.79016   0.00000  Uiso   1.00
O963   O     0.87025   0.75381   0.74702   0.00000  Uiso   1.00
O964   O     0.89280   0.90387   0.74519   0.00000  Uiso   1.00
O965   O     0.77387   0.76279   0.75482   0.00000  Uiso   1.00
O966   O     0.78514   0.83784   0.81998   0.00000  Uiso   1.00
O967   O     0.88153   0.82883   0.68003   0.00000  Uiso   1.00
O968   O     0.88152   0.82885   0.81218   0.00000  Uiso   1.00
O969   O     0.78515   0.83781   0.68783   0.00000  Uiso   1.00
O970   O     0.90920   0.67396   0.72647   0.00000  Uiso   1.00
Zn971  Zn    0.76898   0.83933   0.75521   0.00000  Uiso   1.00
Zn972  Zn    0.89769   0.82734   0.74479   0.00000  Uiso   1.00
loop_
_geom_bond_atom_site_label_1
_geom_bond_atom_site_label_2
_geom_bond_distance
_geom_bond_site_symmetry_2
_ccdc_geom_bond_type
C1     C22     1.417   .     S
C1     O46     1.289   .     A
C1     O41     1.277   .     A
C2     C4      1.384   .     A
C2     H28     1.085   .     S
C2     C13     1.387   .     A
C3     C26     1.384   .     A
C3     C25     1.421   .     S
C3     C5      1.398   .     A
C4     C24     1.421   .     S
C4     C6      1.398   .     A
C5     C7      1.399   .     A
C5     C16     1.452   .     S
C6     C17     1.452   .     S
C6     C8      1.399   .     A
C7     C9      1.419   .     A
C7     C14     1.405   .     A
C8     C15     1.405   .     A
C8     C10     1.419   .     A
C9     C11     1.419   .     A
C9     C496    1.399   1_554 S
C10    C13     1.419   .     A
C10    C495    1.399   .     S
C11    C26     1.387   .     A
C11    C21     1.409   .     A
C12    C23     1.417   .     S
C12    O47     1.289   .     A
C12    O45     1.277   .     A
C13    C20     1.409   .     A
C14    H29     1.084   .     S
C14    C506    1.386   1_554 S
C15    H30     1.084   .     S
C15    C507    1.386   .     S
C16    N37     1.156   .     T
C17    N38     1.156   .     T
C18    C20     1.448   .     S
C18    N201    1.157   .     S
C19    C21     1.448   .     S
C19    N364    1.157   1_545 S
C20    C500    1.386   .     S
C21    C501    1.386   1_554 S
C22    C185    1.361   .     S
C22    O214    1.393   .     S
C23    C346    1.361   1_545 S
C23    O366    1.393   1_545 S
C24    O50     1.285   .     A
C24    O48     1.285   .     A
C25    O51     1.285   .     A
C25    O49     1.285   .     A
C26    H27     1.085   .     S
H31    O214    0.990   .     S
H32    O366    0.990   1_545 S
H33    O97     0.990   .     S
H34    O152    0.990   1_455 S
N35    Zn54    2.018   .     S
N35    N90     1.287   .     S
N35    O97     1.338   .     S
N36    Zn53    2.018   .     S
N36    N143    1.287   1_455 S
N36    O152    1.338   1_455 S
N39    C342    1.157   1_545 S
N40    C181    1.157   .     S
O41    Zn53    1.978   .     S
O42    H194    0.990   .     S
O42    C185    1.393   .     S
O43    N143    1.338   1_455 S
O43    H141    0.990   1_455 S
O44    H88     0.990   .     S
O44    N90     1.338   .     S
O45    Zn54    1.978   .     S
O46    Zn54    1.999   .     S
O47    Zn53    1.999   .     S
O48    Zn53    2.000   .     S
O49    Zn54    2.000   .     S
O50    Zn54    2.014   .     S
O51    Zn53    2.014   .     S
O52    H355    0.990   1_545 S
O52    C346    1.393   1_545 S
C55    C76     1.417   .     S
C55    O100    1.289   .     A
C55    O95     1.277   .     A
C56    C58     1.384   .     A
C56    H82     1.085   .     S
C56    C67     1.387   .     A
C57    C80     1.384   .     A
C57    C79     1.421   .     S
C57    C59     1.398   .     A
C58    C78     1.421   .     S
C58    C60     1.398   .     A
C59    C61     1.399   .     A
C59    C70     1.452   .     S
C60    C71     1.452   .     S
C60    C62     1.399   .     A
C61    C63     1.419   .     A
C61    C68     1.405   .     A
C62    C69     1.405   .     A
C62    C64     1.419   .     A
C63    C65     1.419   .     A
C63    C550    1.399   1_554 S
C64    C67     1.419   .     A
C64    C549    1.399   .     S
C65    C80     1.387   .     A
C65    C75     1.409   .     A
C66    C77     1.417   .     S
C66    O101    1.289   .     A
C66    O99     1.277   .     A
C67    C74     1.409   .     A
C68    H83     1.084   .     S
C68    C560    1.386   1_554 S
C69    H84     1.084   .     S
C69    C561    1.386   .     S
C70    N91     1.156   .     T
C71    N92     1.156   .     T
C72    C74     1.448   .     S
C72    N255    1.157   .     S
C73    C75     1.448   .     S
C73    N418    1.157   1_545 S
C74    C554    1.386   .     S
C75    C555    1.386   1_554 S
C76    C239    1.361   .     S
C76    O268    1.393   .     S
C77    C400    1.361   1_545 S
C77    O420    1.393   1_545 S
C78    O104    1.285   .     A
C78    O102    1.285   .     A
C79    O105    1.285   .     A
C79    O103    1.285   .     A
C80    H81     1.085   .     S
H85    O268    0.990   .     S
H86    O420    0.990   1_545 S
H87    O151    0.990   .     S
N89    Zn108   2.018   .     S
N89    N144    1.287   .     S
N89    O151    1.338   .     S
N90    Zn107   2.018   .     S
N93    C396    1.157   1_545 S
N94    C235    1.157   .     S
O95    Zn107   1.978   .     S
O96    H248    0.990   .     S
O96    C239    1.393   .     S
O98    H142    0.990   .     S
O98    N144    1.338   .     S
O99    Zn108   1.978   .     S
O100   Zn108   1.999   .     S
O101   Zn107   1.999   .     S
O102   Zn107   2.000   .     S
O103   Zn108   2.000   .     S
O104   Zn108   2.014   .     S
O105   Zn107   2.014   .     S
O106   H409    0.990   1_545 S
O106   C400    1.393   1_545 S
C109   C130    1.417   .     S
C109   O154    1.289   .     A
C109   O149    1.277   .     A
C110   C112    1.384   .     A
C110   H136    1.085   .     S
C110   C121    1.387   .     A
C111   C134    1.384   .     A
C111   C133    1.421   .     S
C111   C113    1.398   .     A
C112   C132    1.421   .     S
C112   C114    1.398   .     A
C113   C115    1.399   .     A
C113   C124    1.452   .     S
C114   C125    1.452   .     S
C114   C116    1.399   .     A
C115   C117    1.419   .     A
C115   C122    1.405   .     A
C116   C123    1.405   .     A
C116   C118    1.419   .     A
C117   C119    1.419   .     A
C117   C604    1.399   1_554 S
C118   C121    1.419   .     A
C118   C603    1.399   .     S
C119   C134    1.387   .     A
C119   C129    1.409   .     A
C120   C131    1.417   .     S
C120   O155    1.289   .     A
C120   O153    1.277   .     A
C121   C128    1.409   .     A
C122   H137    1.084   .     S
C122   C614    1.386   1_554 S
C123   H138    1.084   .     S
C123   C615    1.386   .     S
C124   N145    1.156   .     T
C125   N146    1.156   .     T
C126   C128    1.448   .     S
C126   N309    1.157   .     S
C127   C129    1.448   .     S
C127   N472    1.157   1_545 S
C128   C608    1.386   .     S
C129   C609    1.386   1_554 S
C130   C293    1.361   .     S
C130   O322    1.393   .     S
C131   C454    1.361   1_545 S
C131   O474    1.393   1_545 S
C132   O158    1.285   .     A
C132   O156    1.285   .     A
C133   O159    1.285   .     A
C133   O157    1.285   .     A
C134   H135    1.085   .     S
H139   O322    0.990   .     S
H140   O474    0.990   1_545 S
H141   O43     0.990   1_655 S
N143   Zn162   2.018   .     S
N143   N36     1.287   1_655 S
N143   O43     1.338   1_655 S
N144   Zn161   2.018   .     S
N147   C450    1.157   1_545 S
N148   C289    1.157   .     S
O149   Zn161   1.978   .     S
O150   H302    0.990   .     S
O150   C293    1.393   .     S
O152   H34     0.990   1_655 S
O152   N36     1.338   1_655 S
O153   Zn162   1.978   .     S
O154   Zn162   1.999   .     S
O155   Zn161   1.999   .     S
O156   Zn161   2.000   .     S
O157   Zn162   2.000   .     S
O158   Zn162   2.014   .     S
O159   Zn161   2.014   .     S
O160   H463    0.990   1_545 S
O160   C454    1.393   1_545 S
C163   C184    1.417   .     S
C163   O208    1.289   .     A
C163   O203    1.277   .     A
C164   C166    1.384   .     A
C164   H190    1.085   .     S
C164   C175    1.387   .     A
C165   C188    1.384   .     A
C165   C187    1.421   .     S
C165   C167    1.398   .     A
C166   C186    1.421   .     S
C166   C168    1.398   .     A
C167   C169    1.399   .     A
C167   C178    1.452   .     S
C168   C179    1.452   .     S
C168   C170    1.399   .     A
C169   C171    1.419   .     A
C169   C176    1.405   .     A
C170   C177    1.405   .     A
C170   C172    1.419   .     A
C171   C173    1.419   .     A
C171   C658    1.399   1_554 S
C172   C175    1.419   .     A
C172   C657    1.399   .     S
C173   C188    1.387   .     A
C173   C183    1.409   .     A
C174   C185    1.417   .     S
C174   O209    1.289   .     A
C174   O207    1.277   .     A
C175   C182    1.409   .     A
C176   H191    1.084   .     S
C176   C668    1.386   1_554 S
C177   H192    1.084   .     S
C177   C669    1.386   .     S
C178   N199    1.156   .     T
C179   N200    1.156   .     T
C180   C182    1.448   .     S
C180   N363    1.157   .     S
C181   C183    1.448   .     S
C182   C662    1.386   .     S
C183   C663    1.386   1_554 S
C184   C347    1.361   .     S
C184   O376    1.393   .     S
C186   O212    1.285   .     A
C186   O210    1.285   .     A
C187   O213    1.285   .     A
C187   O211    1.285   .     A
C188   H189    1.085   .     S
H193   O376    0.990   .     S
H195   O259    0.990   .     S
H196   O314    0.990   1_455 S
N197   Zn216   2.018   .     S
N197   N252    1.287   .     S
N197   O259    1.338   .     S
N198   Zn215   2.018   .     S
N198   N305    1.287   1_455 S
N198   O314    1.338   1_455 S
N202   C343    1.157   .     S
O203   Zn215   1.978   .     S
O204   H356    0.990   .     S
O204   C347    1.393   .     S
O205   N305    1.338   1_455 S
O205   H303    0.990   1_455 S
O206   H250    0.990   .     S
O206   N252    1.338   .     S
O207   Zn216   1.978   .     S
O208   Zn216   1.999   .     S
O209   Zn215   1.999   .     S
O210   Zn215   2.000   .     S
O211   Zn216   2.000   .     S
O212   Zn216   2.014   .     S
O213   Zn215   2.014   .     S
C217   C238    1.417   .     S
C217   O262    1.289   .     A
C217   O257    1.277   .     A
C218   C220    1.384   .     A
C218   H244    1.085   .     S
C218   C229    1.387   .     A
C219   C242    1.384   .     A
C219   C241    1.421   .     S
C219   C221    1.398   .     A
C220   C240    1.421   .     S
C220   C222    1.398   .     A
C221   C223    1.399   .     A
C221   C232    1.452   .     S
C222   C233    1.452   .     S
C222   C224    1.399   .     A
C223   C225    1.419   .     A
C223   C230    1.405   .     A
C224   C231    1.405   .     A
C224   C226    1.419   .     A
C225   C227    1.419   .     A
C225   C712    1.399   1_554 S
C226   C229    1.419   .     A
C226   C711    1.399   .     S
C227   C242    1.387   .     A
C227   C237    1.409   .     A
C228   C239    1.417   .     S
C228   O263    1.289   .     A
C228   O261    1.277   .     A
C229   C236    1.409   .     A
C230   H245    1.084   .     S
C230   C722    1.386   1_554 S
C231   H246    1.084   .     S
C231   C723    1.386   .     S
C232   N253    1.156   .     T
C233   N254    1.156   .     T
C234   C236    1.448   .     S
C234   N417    1.157   .     S
C235   C237    1.448   .     S
C236   C716    1.386   .     S
C237   C717    1.386   1_554 S
C238   C401    1.361   .     S
C238   O430    1.393   .     S
C240   O266    1.285   .     A
C240   O264    1.285   .     A
C241   O267    1.285   .     A
C241   O265    1.285   .     A
C242   H243    1.085   .     S
H247   O430    0.990   .     S
H249   O313    0.990   .     S
N251   Zn270   2.018   .     S
N251   N306    1.287   .     S
N251   O313    1.338   .     S
N252   Zn269   2.018   .     S
N256   C397    1.157   .     S
O257   Zn269   1.978   .     S
O258   H410    0.990   .     S
O258   C401    1.393   .     S
O260   H304    0.990   .     S
O260   N306    1.338   .     S
O261   Zn270   1.978   .     S
O262   Zn270   1.999   .     S
O263   Zn269   1.999   .     S
O264   Zn269   2.000   .     S
O265   Zn270   2.000   .     S
O266   Zn270   2.014   .     S
O267   Zn269   2.014   .     S
C271   C292    1.417   .     S
C271   O316    1.289   .     A
C271   O311    1.277   .     A
C272   C274    1.384   .     A
C272   H298    1.085   .     S
C272   C283    1.387   .     A
C273   C296    1.384   .     A
C273   C295    1.421   .     S
C273   C275    1.398   .     A
C274   C294    1.421   .     S
C274   C276    1.398   .     A
C275   C277    1.399   .     A
C275   C286    1.452   .     S
C276   C287    1.452   .     S
C276   C278    1.399   .     A
C277   C279    1.419   .     A
C277   C284    1.405   .     A
C278   C285    1.405   .     A
C278   C280    1.419   .     A
C279   C281    1.419   .     A
C279   C766    1.399   1_554 S
C280   C283    1.419   .     A
C280   C765    1.399   .     S
C281   C296    1.387   .     A
C281   C291    1.409   .     A
C282   C293    1.417   .     S
C282   O317    1.289   .     A
C282   O315    1.277   .     A
C283   C290    1.409   .     A
C284   H299    1.084   .     S
C284   C776    1.386   1_554 S
C285   H300    1.084   .     S
C285   C777    1.386   .     S
C286   N307    1.156   .     T
C287   N308    1.156   .     T
C288   C290    1.448   .     S
C288   N471    1.157   .     S
C289   C291    1.448   .     S
C290   C770    1.386   .     S
C291   C771    1.386   1_554 S
C292   C455    1.361   .     S
C292   O484    1.393   .     S
C294   O320    1.285   .     A
C294   O318    1.285   .     A
C295   O321    1.285   .     A
C295   O319    1.285   .     A
C296   H297    1.085   .     S
H301   O484    0.990   .     S
H303   O205    0.990   1_655 S
N305   Zn324   2.018   .     S
N305   N198    1.287   1_655 S
N305   O205    1.338   1_655 S
N306   Zn323   2.018   .     S
N310   C451    1.157   .     S
O311   Zn323   1.978   .     S
O312   H464    0.990   .     S
O312   C455    1.393   .     S
O314   H196    0.990   1_655 S
O314   N198    1.338   1_655 S
O315   Zn324   1.978   .     S
O316   Zn324   1.999   .     S
O317   Zn323   1.999   .     S
O318   Zn323   2.000   .     S
O319   Zn324   2.000   .     S
O320   Zn324   2.014   .     S
O321   Zn323   2.014   .     S
C325   C346    1.417   .     S
C325   O370    1.289   .     A
C325   O365    1.277   .     A
C326   C328    1.384   .     A
C326   H352    1.085   .     S
C326   C337    1.387   .     A
C327   C350    1.384   .     A
C327   C349    1.421   .     S
C327   C329    1.398   .     A
C328   C348    1.421   .     S
C328   C330    1.398   .     A
C329   C331    1.399   .     A
C329   C340    1.452   .     S
C330   C341    1.452   .     S
C330   C332    1.399   .     A
C331   C333    1.419   .     A
C331   C338    1.405   .     A
C332   C339    1.405   .     A
C332   C334    1.419   .     A
C333   C335    1.419   .     A
C333   C820    1.399   1_554 S
C334   C337    1.419   .     A
C334   C819    1.399   .     S
C335   C350    1.387   .     A
C335   C345    1.409   .     A
C336   C347    1.417   .     S
C336   O371    1.289   .     A
C336   O369    1.277   .     A
C337   C344    1.409   .     A
C338   H353    1.084   .     S
C338   C830    1.386   1_554 S
C339   H354    1.084   .     S
C339   C831    1.386   .     S
C340   N361    1.156   .     T
C341   N362    1.156   .     T
C342   C344    1.448   .     S
C342   N39     1.157   1_565 S
C343   C345    1.448   .     S
C344   C824    1.386   .     S
C345   C825    1.386   1_554 S
C346   C23     1.361   1_565 S
C346   O52     1.393   1_565 S
C348   O374    1.285   .     A
C348   O372    1.285   .     A
C349   O375    1.285   .     A
C349   O373    1.285   .     A
C350   H351    1.085   .     S
H355   O52     0.990   1_565 S
H357   O421    0.990   .     S
H358   O476    0.990   1_455 S
N359   Zn378   2.018   .     S
N359   N414    1.287   .     S
N359   O421    1.338   .     S
N360   Zn377   2.018   .     S
N360   N467    1.287   1_455 S
N360   O476    1.338   1_455 S
N364   C19     1.157   1_565 S
O365   Zn377   1.978   .     S
O366   H32     0.990   1_565 S
O366   C23     1.393   1_565 S
O367   N467    1.338   1_455 S
O367   H465    0.990   1_455 S
O368   H412    0.990   .     S
O368   N414    1.338   .     S
O369   Zn378   1.978   .     S
O370   Zn378   1.999   .     S
O371   Zn377   1.999   .     S
O372   Zn377   2.000   .     S
O373   Zn378   2.000   .     S
O374   Zn378   2.014   .     S
O375   Zn377   2.014   .     S
C379   C400    1.417   .     S
C379   O424    1.289   .     A
C379   O419    1.277   .     A
C380   C382    1.384   .     A
C380   H406    1.085   .     S
C380   C391    1.387   .     A
C381   C404    1.384   .     A
C381   C403    1.421   .     S
C381   C383    1.398   .     A
C382   C402    1.421   .     S
C382   C384    1.398   .     A
C383   C385    1.399   .     A
C383   C394    1.452   .     S
C384   C395    1.452   .     S
C384   C386    1.399   .     A
C385   C387    1.419   .     A
C385   C392    1.405   .     A
C386   C393    1.405   .     A
C386   C388    1.419   .     A
C387   C389    1.419   .     A
C387   C874    1.399   1_554 S
C388   C391    1.419   .     A
C388   C873    1.399   .     S
C389   C404    1.387   .     A
C389   C399    1.409   .     A
C390   C401    1.417   .     S
C390   O425    1.289   .     A
C390   O423    1.277   .     A
C391   C398    1.409   .     A
C392   H407    1.084   .     S
C392   C884    1.386   1_554 S
C393   H408    1.084   .     S
C393   C885    1.386   .     S
C394   N415    1.156   .     T
C395   N416    1.156   .     T
C396   C398    1.448   .     S
C396   N93     1.157   1_565 S
C397   C399    1.448   .     S
C398   C878    1.386   .     S
C399   C879    1.386   1_554 S
C400   C77     1.361   1_565 S
C400   O106    1.393   1_565 S
C402   O428    1.285   .     A
C402   O426    1.285   .     A
C403   O429    1.285   .     A
C403   O427    1.285   .     A
C404   H405    1.085   .     S
H409   O106    0.990   1_565 S
H411   O475    0.990   .     S
N413   Zn432   2.018   .     S
N413   N468    1.287   .     S
N413   O475    1.338   .     S
N414   Zn431   2.018   .     S
N418   C73     1.157   1_565 S
O419   Zn431   1.978   .     S
O420   H86     0.990   1_565 S
O420   C77     1.393   1_565 S
O422   H466    0.990   .     S
O422   N468    1.338   .     S
O423   Zn432   1.978   .     S
O424   Zn432   1.999   .     S
O425   Zn431   1.999   .     S
O426   Zn431   2.000   .     S
O427   Zn432   2.000   .     S
O428   Zn432   2.014   .     S
O429   Zn431   2.014   .     S
C433   C454    1.417   .     S
C433   O478    1.289   .     A
C433   O473    1.277   .     A
C434   C436    1.384   .     A
C434   H460    1.085   .     S
C434   C445    1.387   .     A
C435   C458    1.384   .     A
C435   C457    1.421   .     S
C435   C437    1.398   .     A
C436   C456    1.421   .     S
C436   C438    1.398   .     A
C437   C439    1.399   .     A
C437   C448    1.452   .     S
C438   C449    1.452   .     S
C438   C440    1.399   .     A
C439   C441    1.419   .     A
C439   C446    1.405   .     A
C440   C447    1.405   .     A
C440   C442    1.419   .     A
C441   C443    1.419   .     A
C441   C928    1.399   1_554 S
C442   C445    1.419   .     A
C442   C927    1.399   .     S
C443   C458    1.387   .     A
C443   C453    1.409   .     A
C444   C455    1.417   .     S
C444   O479    1.289   .     A
C444   O477    1.277   .     A
C445   C452    1.409   .     A
C446   H461    1.084   .     S
C446   C938    1.386   1_554 S
C447   H462    1.084   .     S
C447   C939    1.386   .     S
C448   N469    1.156   .     T
C449   N470    1.156   .     T
C450   C452    1.448   .     S
C450   N147    1.157   1_565 S
C451   C453    1.448   .     S
C452   C932    1.386   .     S
C453   C933    1.386   1_554 S
C454   C131    1.361   1_565 S
C454   O160    1.393   1_565 S
C456   O482    1.285   .     A
C456   O480    1.285   .     A
C457   O483    1.285   .     A
C457   O481    1.285   .     A
C458   H459    1.085   .     S
H463   O160    0.990   1_565 S
H465   O367    0.990   1_655 S
N467   Zn486   2.018   .     S
N467   N360    1.287   1_655 S
N467   O367    1.338   1_655 S
N468   Zn485   2.018   .     S
N472   C127    1.157   1_565 S
O473   Zn485   1.978   .     S
O474   H140    0.990   1_565 S
O474   C131    1.393   1_565 S
O476   H358    0.990   1_655 S
O476   N360    1.338   1_655 S
O477   Zn486   1.978   .     S
O478   Zn486   1.999   .     S
O479   Zn485   1.999   .     S
O480   Zn485   2.000   .     S
O481   Zn486   2.000   .     S
O482   Zn486   2.014   .     S
O483   Zn485   2.014   .     S
C487   C508    1.417   .     S
C487   O532    1.289   .     A
C487   O527    1.277   .     A
C488   C490    1.384   .     A
C488   H514    1.085   .     S
C488   C499    1.387   .     A
C489   C512    1.384   .     A
C489   C511    1.421   .     S
C489   C491    1.398   .     A
C490   C510    1.421   .     S
C490   C492    1.398   .     A
C491   C493    1.399   .     A
C491   C502    1.452   .     S
C492   C503    1.452   .     S
C492   C494    1.399   .     A
C493   C495    1.419   .     A
C493   C500    1.405   .     A
C494   C501    1.405   .     A
C494   C496    1.419   .     A
C495   C497    1.419   .     A
C496   C499    1.419   .     A
C496   C9      1.399   1_556 S
C497   C512    1.387   .     A
C497   C507    1.409   .     A
C498   C509    1.417   .     S
C498   O533    1.289   .     A
C498   O531    1.277   .     A
C499   C506    1.409   .     A
C500   H515    1.084   .     S
C501   H516    1.084   .     S
C501   C21     1.386   1_556 S
C502   N523    1.156   .     T
C503   N524    1.156   .     T
C504   C506    1.448   .     S
C504   N687    1.157   .     S
C505   C507    1.448   .     S
C505   N850    1.157   1_545 S
C506   C14     1.386   1_556 S
C508   C671    1.361   .     S
C508   O700    1.393   .     S
C509   C832    1.361   1_545 S
C509   O852    1.393   1_545 S
C510   O536    1.285   .     A
C510   O534    1.285   .     A
C511   O537    1.285   .     A
C511   O535    1.285   .     A
C512   H513    1.085   .     S
H517   O700    0.990   .     S
H518   O852    0.990   1_545 S
H519   O583    0.990   .     S
H520   O638    0.990   1_455 S
N521   Zn540   2.018   .     S
N521   N576    1.287   .     S
N521   O583    1.338   .     S
N522   Zn539   2.018   .     S
N522   N629    1.287   1_455 S
N522   O638    1.338   1_455 S
N525   C828    1.157   1_545 S
N526   C667    1.157   .     S
O527   Zn539   1.978   .     S
O528   H680    0.990   .     S
O528   C671    1.393   .     S
O529   N629    1.338   1_455 S
O529   H627    0.990   1_455 S
O530   H574    0.990   .     S
O530   N576    1.338   .     S
O531   Zn540   1.978   .     S
O532   Zn540   1.999   .     S
O533   Zn539   1.999   .     S
O534   Zn539   2.000   .     S
O535   Zn540   2.000   .     S
O536   Zn540   2.014   .     S
O537   Zn539   2.014   .     S
O538   H841    0.990   1_545 S
O538   C832    1.393   1_545 S
C541   C562    1.417   .     S
C541   O586    1.289   .     A
C541   O581    1.277   .     A
C542   C544    1.384   .     A
C542   H568    1.085   .     S
C542   C553    1.387   .     A
C543   C566    1.384   .     A
C543   C565    1.421   .     S
C543   C545    1.398   .     A
C544   C564    1.421   .     S
C544   C546    1.398   .     A
C545   C547    1.399   .     A
C545   C556    1.452   .     S
C546   C557    1.452   .     S
C546   C548    1.399   .     A
C547   C549    1.419   .     A
C547   C554    1.405   .     A
C548   C555    1.405   .     A
C548   C550    1.419   .     A
C549   C551    1.419   .     A
C550   C553    1.419   .     A
C550   C63     1.399   1_556 S
C551   C566    1.387   .     A
C551   C561    1.409   .     A
C552   C563    1.417   .     S
C552   O587    1.289   .     A
C552   O585    1.277   .     A
C553   C560    1.409   .     A
C554   H569    1.084   .     S
C555   H570    1.084   .     S
C555   C75     1.386   1_556 S
C556   N577    1.156   .     T
C557   N578    1.156   .     T
C558   C560    1.448   .     S
C558   N741    1.157   .     S
C559   C561    1.448   .     S
C559   N904    1.157   1_545 S
C560   C68     1.386   1_556 S
C562   C725    1.361   .     S
C562   O754    1.393   .     S
C563   C886    1.361   1_545 S
C563   O906    1.393   1_545 S
C564   O590    1.285   .     A
C564   O588    1.285   .     A
C565   O591    1.285   .     A
C565   O589    1.285   .     A
C566   H567    1.085   .     S
H571   O754    0.990   .     S
H572   O906    0.990   1_545 S
H573   O637    0.990   .     S
N575   Zn594   2.018   .     S
N575   N630    1.287   .     S
N575   O637    1.338   .     S
N576   Zn593   2.018   .     S
N579   C882    1.157   1_545 S
N580   C721    1.157   .     S
O581   Zn593   1.978   .     S
O582   H734    0.990   .     S
O582   C725    1.393   .     S
O584   H628    0.990   .     S
O584   N630    1.338   .     S
O585   Zn594   1.978   .     S
O586   Zn594   1.999   .     S
O587   Zn593   1.999   .     S
O588   Zn593   2.000   .     S
O589   Zn594   2.000   .     S
O590   Zn594   2.014   .     S
O591   Zn593   2.014   .     S
O592   H895    0.990   1_545 S
O592   C886    1.393   1_545 S
C595   C616    1.417   .     S
C595   O640    1.289   .     A
C595   O635    1.277   .     A
C596   C598    1.384   .     A
C596   H622    1.085   .     S
C596   C607    1.387   .     A
C597   C620    1.384   .     A
C597   C619    1.421   .     S
C597   C599    1.398   .     A
C598   C618    1.421   .     S
C598   C600    1.398   .     A
C599   C601    1.399   .     A
C599   C610    1.452   .     S
C600   C611    1.452   .     S
C600   C602    1.399   .     A
C601   C603    1.419   .     A
C601   C608    1.405   .     A
C602   C609    1.405   .     A
C602   C604    1.419   .     A
C603   C605    1.419   .     A
C604   C607    1.419   .     A
C604   C117    1.399   1_556 S
C605   C620    1.387   .     A
C605   C615    1.409   .     A
C606   C617    1.417   .     S
C606   O641    1.289   .     A
C606   O639    1.277   .     A
C607   C614    1.409   .     A
C608   H623    1.084   .     S
C609   H624    1.084   .     S
C609   C129    1.386   1_556 S
C610   N631    1.156   .     T
C611   N632    1.156   .     T
C612   C614    1.448   .     S
C612   N795    1.157   .     S
C613   C615    1.448   .     S
C613   N958    1.157   1_545 S
C614   C122    1.386   1_556 S
C616   C779    1.361   .     S
C616   O808    1.393   .     S
C617   C940    1.361   1_545 S
C617   O960    1.393   1_545 S
C618   O644    1.285   .     A
C618   O642    1.285   .     A
C619   O645    1.285   .     A
C619   O643    1.285   .     A
C620   H621    1.085   .     S
H625   O808    0.990   .     S
H626   O960    0.990   1_545 S
H627   O529    0.990   1_655 S
N629   Zn648   2.018   .     S
N629   N522    1.287   1_655 S
N629   O529    1.338   1_655 S
N630   Zn647   2.018   .     S
N633   C936    1.157   1_545 S
N634   C775    1.157   .     S
O635   Zn647   1.978   .     S
O636   H788    0.990   .     S
O636   C779    1.393   .     S
O638   H520    0.990   1_655 S
O638   N522    1.338   1_655 S
O639   Zn648   1.978   .     S
O640   Zn648   1.999   .     S
O641   Zn647   1.999   .     S
O642   Zn647   2.000   .     S
O643   Zn648   2.000   .     S
O644   Zn648   2.014   .     S
O645   Zn647   2.014   .     S
O646   H949    0.990   1_545 S
O646   C940    1.393   1_545 S
C649   C670    1.417   .     S
C649   O694    1.289   .     A
C649   O689    1.277   .     A
C650   C652    1.384   .     A
C650   H676    1.085   .     S
C650   C661    1.387   .     A
C651   C674    1.384   .     A
C651   C673    1.421   .     S
C651   C653    1.398   .     A
C652   C672    1.421   .     S
C652   C654    1.398   .     A
C653   C655    1.399   .     A
C653   C664    1.452   .     S
C654   C665    1.452   .     S
C654   C656    1.399   .     A
C655   C657    1.419   .     A
C655   C662    1.405   .     A
C656   C663    1.405   .     A
C656   C658    1.419   .     A
C657   C659    1.419   .     A
C658   C661    1.419   .     A
C658   C171    1.399   1_556 S
C659   C674    1.387   .     A
C659   C669    1.409   .     A
C660   C671    1.417   .     S
C660   O695    1.289   .     A
C660   O693    1.277   .     A
C661   C668    1.409   .     A
C662   H677    1.084   .     S
C663   H678    1.084   .     S
C663   C183    1.386   1_556 S
C664   N685    1.156   .     T
C665   N686    1.156   .     T
C666   C668    1.448   .     S
C666   N849    1.157   .     S
C667   C669    1.448   .     S
C668   C176    1.386   1_556 S
C670   C833    1.361   .     S
C670   O862    1.393   .     S
C672   O698    1.285   .     A
C672   O696    1.285   .     A
C673   O699    1.285   .     A
C673   O697    1.285   .     A
C674   H675    1.085   .     S
H679   O862    0.990   .     S
H681   O745    0.990   .     S
H682   O800    0.990   1_455 S
N683   Zn702   2.018   .     S
N683   N738    1.287   .     S
N683   O745    1.338   .     S
N684   Zn701   2.018   .     S
N684   N791    1.287   1_455 S
N684   O800    1.338   1_455 S
N688   C829    1.157   .     S
O689   Zn701   1.978   .     S
O690   H842    0.990   .     S
O690   C833    1.393   .     S
O691   N791    1.338   1_455 S
O691   H789    0.990   1_455 S
O692   H736    0.990   .     S
O692   N738    1.338   .     S
O693   Zn702   1.978   .     S
O694   Zn702   1.999   .     S
O695   Zn701   1.999   .     S
O696   Zn701   2.000   .     S
O697   Zn702   2.000   .     S
O698   Zn702   2.014   .     S
O699   Zn701   2.014   .     S
C703   C724    1.417   .     S
C703   O748    1.289   .     A
C703   O743    1.277   .     A
C704   C706    1.384   .     A
C704   H730    1.085   .     S
C704   C715    1.387   .     A
C705   C728    1.384   .     A
C705   C727    1.421   .     S
C705   C707    1.398   .     A
C706   C726    1.421   .     S
C706   C708    1.398   .     A
C707   C709    1.399   .     A
C707   C718    1.452   .     S
C708   C719    1.452   .     S
C708   C710    1.399   .     A
C709   C711    1.419   .     A
C709   C716    1.405   .     A
C710   C717    1.405   .     A
C710   C712    1.419   .     A
C711   C713    1.419   .     A
C712   C715    1.419   .     A
C712   C225    1.399   1_556 S
C713   C728    1.387   .     A
C713   C723    1.409   .     A
C714   C725    1.417   .     S
C714   O749    1.289   .     A
C714   O747    1.277   .     A
C715   C722    1.409   .     A
C716   H731    1.084   .     S
C717   H732    1.084   .     S
C717   C237    1.386   1_556 S
C718   N739    1.156   .     T
C719   N740    1.156   .     T
C720   C722    1.448   .     S
C720   N903    1.157   .     S
C721   C723    1.448   .     S
C722   C230    1.386   1_556 S
C724   C887    1.361   .     S
C724   O916    1.393   .     S
C726   O752    1.285   .     A
C726   O750    1.285   .     A
C727   O753    1.285   .     A
C727   O751    1.285   .     A
C728   H729    1.085   .     S
H733   O916    0.990   .     S
H735   O799    0.990   .     S
N737   Zn756   2.018   .     S
N737   N792    1.287   .     S
N737   O799    1.338   .     S
N738   Zn755   2.018   .     S
N742   C883    1.157   .     S
O743   Zn755   1.978   .     S
O744   H896    0.990   .     S
O744   C887    1.393   .     S
O746   H790    0.990   .     S
O746   N792    1.338   .     S
O747   Zn756   1.978   .     S
O748   Zn756   1.999   .     S
O749   Zn755   1.999   .     S
O750   Zn755   2.000   .     S
O751   Zn756   2.000   .     S
O752   Zn756   2.014   .     S
O753   Zn755   2.014   .     S
C757   C778    1.417   .     S
C757   O802    1.289   .     A
C757   O797    1.277   .     A
C758   C760    1.384   .     A
C758   H784    1.085   .     S
C758   C769    1.387   .     A
C759   C782    1.384   .     A
C759   C781    1.421   .     S
C759   C761    1.398   .     A
C760   C780    1.421   .     S
C760   C762    1.398   .     A
C761   C763    1.399   .     A
C761   C772    1.452   .     S
C762   C773    1.452   .     S
C762   C764    1.399   .     A
C763   C765    1.419   .     A
C763   C770    1.405   .     A
C764   C771    1.405   .     A
C764   C766    1.419   .     A
C765   C767    1.419   .     A
C766   C769    1.419   .     A
C766   C279    1.399   1_556 S
C767   C782    1.387   .     A
C767   C777    1.409   .     A
C768   C779    1.417   .     S
C768   O803    1.289   .     A
C768   O801    1.277   .     A
C769   C776    1.409   .     A
C770   H785    1.084   .     S
C771   H786    1.084   .     S
C771   C291    1.386   1_556 S
C772   N793    1.156   .     T
C773   N794    1.156   .     T
C774   C776    1.448   .     S
C774   N957    1.157   .     S
C775   C777    1.448   .     S
C776   C284    1.386   1_556 S
C778   C941    1.361   .     S
C778   O970    1.393   .     S
C780   O806    1.285   .     A
C780   O804    1.285   .     A
C781   O807    1.285   .     A
C781   O805    1.285   .     A
C782   H783    1.085   .     S
H787   O970    0.990   .     S
H789   O691    0.990   1_655 S
N791   Zn810   2.018   .     S
N791   N684    1.287   1_655 S
N791   O691    1.338   1_655 S
N792   Zn809   2.018   .     S
N796   C937    1.157   .     S
O797   Zn809   1.978   .     S
O798   H950    0.990   .     S
O798   C941    1.393   .     S
O800   H682    0.990   1_655 S
O800   N684    1.338   1_655 S
O801   Zn810   1.978   .     S
O802   Zn810   1.999   .     S
O803   Zn809   1.999   .     S
O804   Zn809   2.000   .     S
O805   Zn810   2.000   .     S
O806   Zn810   2.014   .     S
O807   Zn809   2.014   .     S
C811   C832    1.417   .     S
C811   O856    1.289   .     A
C811   O851    1.277   .     A
C812   C814    1.384   .     A
C812   H838    1.085   .     S
C812   C823    1.387   .     A
C813   C836    1.384   .     A
C813   C835    1.421   .     S
C813   C815    1.398   .     A
C814   C834    1.421   .     S
C814   C816    1.398   .     A
C815   C817    1.399   .     A
C815   C826    1.452   .     S
C816   C827    1.452   .     S
C816   C818    1.399   .     A
C817   C819    1.419   .     A
C817   C824    1.405   .     A
C818   C825    1.405   .     A
C818   C820    1.419   .     A
C819   C821    1.419   .     A
C820   C823    1.419   .     A
C820   C333    1.399   1_556 S
C821   C836    1.387   .     A
C821   C831    1.409   .     A
C822   C833    1.417   .     S
C822   O857    1.289   .     A
C822   O855    1.277   .     A
C823   C830    1.409   .     A
C824   H839    1.084   .     S
C825   H840    1.084   .     S
C825   C345    1.386   1_556 S
C826   N847    1.156   .     T
C827   N848    1.156   .     T
C828   C830    1.448   .     S
C828   N525    1.157   1_565 S
C829   C831    1.448   .     S
C830   C338    1.386   1_556 S
C832   C509    1.361   1_565 S
C832   O538    1.393   1_565 S
C834   O860    1.285   .     A
C834   O858    1.285   .     A
C835   O861    1.285   .     A
C835   O859    1.285   .     A
C836   H837    1.085   .     S
H841   O538    0.990   1_565 S
H843   O907    0.990   .     S
H844   O962    0.990   1_455 S
N845   Zn864   2.018   .     S
N845   N900    1.287   .     S
N845   O907    1.338   .     S
N846   Zn863   2.018   .     S
N846   N953    1.287   1_455 S
N846   O962    1.338   1_455 S
N850   C505    1.157   1_565 S
O851   Zn863   1.978   .     S
O852   H518    0.990   1_565 S
O852   C509    1.393   1_565 S
O853   N953    1.338   1_455 S
O853   H951    0.990   1_455 S
O854   H898    0.990   .     S
O854   N900    1.338   .     S
O855   Zn864   1.978   .     S
O856   Zn864   1.999   .     S
O857   Zn863   1.999   .     S
O858   Zn863   2.000   .     S
O859   Zn864   2.000   .     S
O860   Zn864   2.014   .     S
O861   Zn863   2.014   .     S
C865   C886    1.417   .     S
C865   O910    1.289   .     A
C865   O905    1.277   .     A
C866   C868    1.384   .     A
C866   H892    1.085   .     S
C866   C877    1.387   .     A
C867   C890    1.384   .     A
C867   C889    1.421   .     S
C867   C869    1.398   .     A
C868   C888    1.421   .     S
C868   C870    1.398   .     A
C869   C871    1.399   .     A
C869   C880    1.452   .     S
C870   C881    1.452   .     S
C870   C872    1.399   .     A
C871   C873    1.419   .     A
C871   C878    1.405   .     A
C872   C879    1.405   .     A
C872   C874    1.419   .     A
C873   C875    1.419   .     A
C874   C877    1.419   .     A
C874   C387    1.399   1_556 S
C875   C890    1.387   .     A
C875   C885    1.409   .     A
C876   C887    1.417   .     S
C876   O911    1.289   .     A
C876   O909    1.277   .     A
C877   C884    1.409   .     A
C878   H893    1.084   .     S
C879   H894    1.084   .     S
C879   C399    1.386   1_556 S
C880   N901    1.156   .     T
C881   N902    1.156   .     T
C882   C884    1.448   .     S
C882   N579    1.157   1_565 S
C883   C885    1.448   .     S
C884   C392    1.386   1_556 S
C886   C563    1.361   1_565 S
C886   O592    1.393   1_565 S
C888   O914    1.285   .     A
C888   O912    1.285   .     A
C889   O915    1.285   .     A
C889   O913    1.285   .     A
C890   H891    1.085   .     S
H895   O592    0.990   1_565 S
H897   O961    0.990   .     S
N899   Zn918   2.018   .     S
N899   N954    1.287   .     S
N899   O961    1.338   .     S
N900   Zn917   2.018   .     S
N904   C559    1.157   1_565 S
O905   Zn917   1.978   .     S
O906   H572    0.990   1_565 S
O906   C563    1.393   1_565 S
O908   H952    0.990   .     S
O908   N954    1.338   .     S
O909   Zn918   1.978   .     S
O910   Zn918   1.999   .     S
O911   Zn917   1.999   .     S
O912   Zn917   2.000   .     S
O913   Zn918   2.000   .     S
O914   Zn918   2.014   .     S
O915   Zn917   2.014   .     S
C919   C940    1.417   .     S
C919   O964    1.289   .     A
C919   O959    1.277   .     A
C920   C922    1.384   .     A
C920   H946    1.085   .     S
C920   C931    1.387   .     A
C921   C944    1.384   .     A
C921   C943    1.421   .     S
C921   C923    1.398   .     A
C922   C942    1.421   .     S
C922   C924    1.398   .     A
C923   C925    1.399   .     A
C923   C934    1.452   .     S
C924   C935    1.452   .     S
C924   C926    1.399   .     A
C925   C927    1.419   .     A
C925   C932    1.405   .     A
C926   C933    1.405   .     A
C926   C928    1.419   .     A
C927   C929    1.419   .     A
C928   C931    1.419   .     A
C928   C441    1.399   1_556 S
C929   C944    1.387   .     A
C929   C939    1.409   .     A
C930   C941    1.417   .     S
C930   O965    1.289   .     A
C930   O963    1.277   .     A
C931   C938    1.409   .     A
C932   H947    1.084   .     S
C933   H948    1.084   .     S
C933   C453    1.386   1_556 S
C934   N955    1.156   .     T
C935   N956    1.156   .     T
C936   C938    1.448   .     S
C936   N633    1.157   1_565 S
C937   C939    1.448   .     S
C938   C446    1.386   1_556 S
C940   C617    1.361   1_565 S
C940   O646    1.393   1_565 S
C942   O968    1.285   .     A
C942   O966    1.285   .     A
C943   O969    1.285   .     A
C943   O967    1.285   .     A
C944   H945    1.085   .     S
H949   O646    0.990   1_565 S
H951   O853    0.990   1_655 S
N953   Zn972   2.018   .     S
N953   N846    1.287   1_655 S
N953   O853    1.338   1_655 S
N954   Zn971   2.018   .     S
N958   C613    1.157   1_565 S
O959   Zn971   1.978   .     S
O960   H626    0.990   1_565 S
O960   C617    1.393   1_565 S
O962   H844    0.990   1_655 S
O962   N846    1.338   1_655 S
O963   Zn972   1.978   .     S
O964   Zn972   1.999   .     S
O965   Zn971   1.999   .     S
O966   Zn971   2.000   .     S
O967   Zn972   2.000   .     S
O968   Zn972   2.014   .     S
O969   Zn971   2.014   .     S
