data_str_m3_o1_o1_pcu_sym.22
_audit_creation_date              2020-01-03
_audit_creation_method            'Materials Studio'
_symmetry_space_group_name_H-M    'P1'
_symmetry_Int_Tables_number       1
_symmetry_cell_setting            triclinic
loop_
_symmetry_equiv_pos_as_xyz
  x,y,z
_cell_length_a                    29.1885
_cell_length_b                    30.5224
_cell_length_c                    29.7468
_cell_angle_alpha                 87.9991
_cell_angle_beta                  90.0152
_cell_angle_gamma                 90.9498
loop_
_atom_site_label
_atom_site_type_symbol
_atom_site_fract_x
_atom_site_fract_y
_atom_site_fract_z
_atom_site_U_iso_or_equiv
_atom_site_adp_type
_atom_site_occupancy
C1     C     0.06406   0.19386   0.16747   0.00000  Uiso   1.00
C2     C     0.49292   0.21191   0.31127   0.00000  Uiso   1.00
C3     C     0.49437   0.21185   0.02566   0.00000  Uiso   1.00
C4     C     0.00641   0.28820   0.30783   0.00000  Uiso   1.00
C5     C     0.25612   0.03841   0.02282   0.00000  Uiso   1.00
C6     C     0.24292   0.46191   0.31127   0.00000  Uiso   1.00
C7     C     0.24437   0.46185   0.02566   0.00000  Uiso   1.00
C8     C     0.25641   0.03820   0.30783   0.00000  Uiso   1.00
C9     C     0.37268   0.15808   0.12589   0.00000  Uiso   1.00
C10    C     0.12009   0.35442   0.20284   0.00000  Uiso   1.00
C11    C     0.10895   0.36435   0.12212   0.00000  Uiso   1.00
C12    C     0.43628   0.30689   0.16614   0.00000  Uiso   1.00
C13    C     0.37408   0.14963   0.20606   0.00000  Uiso   1.00
C14    C     0.11311   0.14200   0.21023   0.00000  Uiso   1.00
C15    C     0.39098   0.36338   0.12554   0.00000  Uiso   1.00
C16    C     0.38026   0.34982   0.20704   0.00000  Uiso   1.00
C17    C     0.12529   0.15553   0.13042   0.00000  Uiso   1.00
C18    C     0.12268   0.40808   0.12589   0.00000  Uiso   1.00
C19    C     0.37009   0.10442   0.20284   0.00000  Uiso   1.00
C20    C     0.35895   0.11435   0.12212   0.00000  Uiso   1.00
C21    C     0.12408   0.39963   0.20606   0.00000  Uiso   1.00
C22    C     0.36311   0.39200   0.21023   0.00000  Uiso   1.00
C23    C     0.43517   0.19414   0.16697   0.00000  Uiso   1.00
C24    C     0.14097   0.11338   0.12554   0.00000  Uiso   1.00
C25    C     0.13026   0.09982   0.20704   0.00000  Uiso   1.00
C26    C     0.37529   0.40553   0.13042   0.00000  Uiso   1.00
C27    C     0.10216   0.33901   0.16256   0.00000  Uiso   1.00
C28    C     0.39067   0.17102   0.16702   0.00000  Uiso   1.00
C29    C     0.39832   0.33725   0.16519   0.00000  Uiso   1.00
C30    C     0.10378   0.16584   0.17023   0.00000  Uiso   1.00
C31    C     0.35216   0.08901   0.16256   0.00000  Uiso   1.00
C32    C     0.14067   0.42102   0.16702   0.00000  Uiso   1.00
C33    C     0.14832   0.08725   0.16519   0.00000  Uiso   1.00
C34    C     0.06375   0.30763   0.16577   0.00000  Uiso   1.00
C35    C     0.35378   0.41584   0.17023   0.00000  Uiso   1.00
C36    C     0.31406   0.44386   0.16747   0.00000  Uiso   1.00
C37    C     0.18628   0.05689   0.16614   0.00000  Uiso   1.00
C38    C     0.18517   0.44414   0.16697   0.00000  Uiso   1.00
C39    C     0.31375   0.05763   0.16578   0.00000  Uiso   1.00
C40    C     0.00612   0.28841   0.02282   0.00000  Uiso   1.00
H41    H     0.48497   0.33528   0.06413   0.00000  Uiso   1.00
H42    H     0.27166   0.10509   0.02516   0.00000  Uiso   1.00
H43    H     0.25433   0.41663   0.26427   0.00000  Uiso   1.00
H44    H     0.19826   0.42289   0.27918   0.00000  Uiso   1.00
H45    H     0.26499   0.40028   0.04115   0.00000  Uiso   1.00
H46    H     0.20798   0.40725   0.04356   0.00000  Uiso   1.00
H47    H     0.29558   0.09056   0.28905   0.00000  Uiso   1.00
H48    H     0.23832   0.10027   0.29027   0.00000  Uiso   1.00
H49    H     0.36389   0.25133   0.13227   0.00000  Uiso   1.00
H50    H     0.12688   0.33598   0.29170   0.00000  Uiso   1.00
H51    H     0.10636   0.28789   0.02921   0.00000  Uiso   1.00
H52    H     0.02166   0.35509   0.02516   0.00000  Uiso   1.00
H53    H     0.36092   0.17498   0.29079   0.00000  Uiso   1.00
H54    H     0.10134   0.23236   0.28737   0.00000  Uiso   1.00
H55    H     0.43106   0.37168   0.02821   0.00000  Uiso   1.00
H56    H     0.39591   0.24591   0.26775   0.00000  Uiso   1.00
H57    H     0.08663   0.18444   0.05339   0.00000  Uiso   1.00
H58    H     0.11389   0.00133   0.13227   0.00000  Uiso   1.00
H59    H     0.37689   0.08598   0.29170   0.00000  Uiso   1.00
H60    H     0.35636   0.03789   0.02921   0.00000  Uiso   1.00
H61    H     0.11092   0.42498   0.29079   0.00000  Uiso   1.00
H62    H     0.35134   0.48236   0.28737   0.00000  Uiso   1.00
H63    H     0.00433   0.16663   0.26427   0.00000  Uiso   1.00
H64    H     0.18106   0.12168   0.02821   0.00000  Uiso   1.00
H65    H     0.14591   0.49591   0.26775   0.00000  Uiso   1.00
H66    H     0.33663   0.43444   0.05339   0.00000  Uiso   1.00
H67    H     0.44826   0.17289   0.27918   0.00000  Uiso   1.00
H68    H     0.01499   0.15028   0.04115   0.00000  Uiso   1.00
H69    H     0.45798   0.15725   0.04356   0.00000  Uiso   1.00
H70    H     0.04558   0.34056   0.28905   0.00000  Uiso   1.00
H71    H     0.48832   0.35027   0.29027   0.00000  Uiso   1.00
H72    H     0.23497   0.08528   0.06413   0.00000  Uiso   1.00
N73    N     0.00000   0.25000   0.28573   0.00000  Uiso   1.00
N74    N     0.23196   0.42146   0.29076   0.00000  Uiso   1.00
N75    N     0.23960   0.42152   0.05134   0.00000  Uiso   1.00
N76    N     0.26316   0.07780   0.28165   0.00000  Uiso   1.00
N77    N     0.00000   0.25000   0.04760   0.00000  Uiso   1.00
N78    N     0.25000   0.00000   0.28573   0.00000  Uiso   1.00
N79    N     0.25000   0.00000   0.04760   0.00000  Uiso   1.00
N80    N     0.01439   0.32806   0.04644   0.00000  Uiso   1.00
N81    N     0.48196   0.17146   0.29076   0.00000  Uiso   1.00
N82    N     0.48960   0.17152   0.05134   0.00000  Uiso   1.00
N83    N     0.01316   0.32780   0.28165   0.00000  Uiso   1.00
N84    N     0.26439   0.07806   0.04644   0.00000  Uiso   1.00
O85    O     0.04581   0.20419   0.20487   0.00000  Uiso   1.00
O86    O     0.20420   0.04581   0.12846   0.00000  Uiso   1.00
O87    O     0.20420   0.04581   0.20487   0.00000  Uiso   1.00
O88    O     0.29581   0.45419   0.12846   0.00000  Uiso   1.00
O89    O     0.20420   0.45419   0.12846   0.00000  Uiso   1.00
O90    O     0.29581   0.04581   0.20487   0.00000  Uiso   1.00
O91    O     0.29581   0.04581   0.12846   0.00000  Uiso   1.00
O92    O     0.20420   0.45419   0.20487   0.00000  Uiso   1.00
O93    O     0.38912   0.21010   0.05272   0.00000  Uiso   1.00
O94    O     0.31123   0.18084   0.06278   0.00000  Uiso   1.00
O95    O     0.33717   0.24334   0.11363   0.00000  Uiso   1.00
O96    O     0.45420   0.29581   0.12846   0.00000  Uiso   1.00
O97    O     0.16735   0.27982   0.20668   0.00000  Uiso   1.00
O98    O     0.20696   0.34640   0.22997   0.00000  Uiso   1.00
O99    O     0.14613   0.31106   0.28383   0.00000  Uiso   1.00
O100   O     0.12446   0.37019   0.03275   0.00000  Uiso   1.00
O101   O     0.17788   0.32830   0.07942   0.00000  Uiso   1.00
O102   O     0.09987   0.29273   0.06130   0.00000  Uiso   1.00
O103   O     0.31520   0.21738   0.20659   0.00000  Uiso   1.00
O104   O     0.28289   0.14427   0.21756   0.00000  Uiso   1.00
O105   O     0.32781   0.17696   0.28397   0.00000  Uiso   1.00
O106   O     0.08513   0.14971   0.29583   0.00000  Uiso   1.00
O107   O     0.45420   0.29581   0.20487   0.00000  Uiso   1.00
O108   O     0.16662   0.16254   0.27935   0.00000  Uiso   1.00
O109   O     0.11081   0.22349   0.25708   0.00000  Uiso   1.00
O110   O     0.40045   0.29714   0.06457   0.00000  Uiso   1.00
O111   O     0.32865   0.33569   0.06750   0.00000  Uiso   1.00
O112   O     0.39763   0.37546   0.03036   0.00000  Uiso   1.00
O113   O     0.40407   0.32358   0.29115   0.00000  Uiso   1.00
O114   O     0.32379   0.31359   0.27001   0.00000  Uiso   1.00
O115   O     0.38301   0.26000   0.24016   0.00000  Uiso   1.00
O116   O     0.14663   0.24055   0.11988   0.00000  Uiso   1.00
O117   O     0.19399   0.18950   0.08001   0.00000  Uiso   1.00
O118   O     0.04581   0.20419   0.12846   0.00000  Uiso   1.00
O119   O     0.11269   0.20511   0.04857   0.00000  Uiso   1.00
O120   O     0.13912   0.46010   0.05272   0.00000  Uiso   1.00
O121   O     0.06123   0.43084   0.06278   0.00000  Uiso   1.00
O122   O     0.08717   0.49334   0.11363   0.00000  Uiso   1.00
O123   O     0.41735   0.02982   0.20668   0.00000  Uiso   1.00
O124   O     0.45696   0.09640   0.22997   0.00000  Uiso   1.00
O125   O     0.39613   0.06106   0.28383   0.00000  Uiso   1.00
O126   O     0.37446   0.12019   0.03275   0.00000  Uiso   1.00
O127   O     0.42788   0.07830   0.07942   0.00000  Uiso   1.00
O128   O     0.34987   0.04273   0.06130   0.00000  Uiso   1.00
O129   O     0.45420   0.20419   0.12846   0.00000  Uiso   1.00
O130   O     0.06520   0.46738   0.20659   0.00000  Uiso   1.00
O131   O     0.03289   0.39427   0.21756   0.00000  Uiso   1.00
O132   O     0.07781   0.42696   0.28397   0.00000  Uiso   1.00
O133   O     0.33513   0.39971   0.29583   0.00000  Uiso   1.00
O134   O     0.41662   0.41254   0.27935   0.00000  Uiso   1.00
O135   O     0.36081   0.47349   0.25708   0.00000  Uiso   1.00
O136   O     0.15045   0.04714   0.06457   0.00000  Uiso   1.00
O137   O     0.07865   0.08569   0.06750   0.00000  Uiso   1.00
O138   O     0.14763   0.12546   0.03036   0.00000  Uiso   1.00
O139   O     0.15407   0.07358   0.29115   0.00000  Uiso   1.00
O140   O     0.04581   0.29581   0.20487   0.00000  Uiso   1.00
O141   O     0.07379   0.06359   0.27001   0.00000  Uiso   1.00
O142   O     0.13301   0.01000   0.24016   0.00000  Uiso   1.00
O143   O     0.39663   0.49055   0.11988   0.00000  Uiso   1.00
O144   O     0.44399   0.43950   0.08001   0.00000  Uiso   1.00
O145   O     0.36269   0.45511   0.04857   0.00000  Uiso   1.00
O146   O     0.04581   0.29581   0.12846   0.00000  Uiso   1.00
O147   O     0.45420   0.20419   0.20487   0.00000  Uiso   1.00
O148   O     0.29581   0.45419   0.20487   0.00000  Uiso   1.00
S149   S     0.35262   0.19833   0.08677   0.00000  Uiso   1.00
S150   S     0.41179   0.07209   0.23034   0.00000  Uiso   1.00
S151   S     0.37825   0.08909   0.07271   0.00000  Uiso   1.00
S152   S     0.07363   0.42291   0.22785   0.00000  Uiso   1.00
S153   S     0.36874   0.41916   0.26221   0.00000  Uiso   1.00
S154   S     0.12972   0.09085   0.07187   0.00000  Uiso   1.00
S155   S     0.12240   0.06172   0.25366   0.00000  Uiso   1.00
S156   S     0.39592   0.44891   0.09447   0.00000  Uiso   1.00
S157   S     0.16179   0.32209   0.23034   0.00000  Uiso   1.00
S158   S     0.12825   0.33908   0.07271   0.00000  Uiso   1.00
S159   S     0.32363   0.17291   0.22785   0.00000  Uiso   1.00
S160   S     0.11874   0.16917   0.26221   0.00000  Uiso   1.00
S161   S     0.37972   0.34085   0.07187   0.00000  Uiso   1.00
S162   S     0.37240   0.31172   0.25366   0.00000  Uiso   1.00
S163   S     0.14592   0.19891   0.09447   0.00000  Uiso   1.00
S164   S     0.10262   0.44832   0.08677   0.00000  Uiso   1.00
Zn165  Zn    0.00000   0.25000   0.21771   0.00000  Uiso   1.00
Zn166  Zn    0.00000   0.25000   0.11563   0.00000  Uiso   1.00
Zn167  Zn    0.25000   0.00000   0.21771   0.00000  Uiso   1.00
Zn168  Zn    0.25000   0.00000   0.11563   0.00000  Uiso   1.00
C169   C     0.56406   0.19386   0.16747   0.00000  Uiso   1.00
C170   C     0.99292   0.21191   0.31127   0.00000  Uiso   1.00
C171   C     0.99437   0.21185   0.02566   0.00000  Uiso   1.00
C172   C     0.50641   0.28820   0.30783   0.00000  Uiso   1.00
C173   C     0.75612   0.03841   0.02282   0.00000  Uiso   1.00
C174   C     0.74292   0.46191   0.31127   0.00000  Uiso   1.00
C175   C     0.74437   0.46185   0.02566   0.00000  Uiso   1.00
C176   C     0.75641   0.03820   0.30783   0.00000  Uiso   1.00
C177   C     0.87268   0.15808   0.12589   0.00000  Uiso   1.00
C178   C     0.62009   0.35442   0.20284   0.00000  Uiso   1.00
C179   C     0.60895   0.36435   0.12212   0.00000  Uiso   1.00
C180   C     0.93628   0.30689   0.16614   0.00000  Uiso   1.00
C181   C     0.87408   0.14963   0.20606   0.00000  Uiso   1.00
C182   C     0.61311   0.14200   0.21023   0.00000  Uiso   1.00
C183   C     0.89098   0.36338   0.12554   0.00000  Uiso   1.00
C184   C     0.88026   0.34982   0.20704   0.00000  Uiso   1.00
C185   C     0.62529   0.15553   0.13042   0.00000  Uiso   1.00
C186   C     0.62268   0.40808   0.12589   0.00000  Uiso   1.00
C187   C     0.87009   0.10442   0.20284   0.00000  Uiso   1.00
C188   C     0.85895   0.11435   0.12212   0.00000  Uiso   1.00
C189   C     0.62408   0.39963   0.20606   0.00000  Uiso   1.00
C190   C     0.86311   0.39200   0.21023   0.00000  Uiso   1.00
C191   C     0.93517   0.19414   0.16697   0.00000  Uiso   1.00
C192   C     0.64097   0.11338   0.12554   0.00000  Uiso   1.00
C193   C     0.63026   0.09982   0.20704   0.00000  Uiso   1.00
C194   C     0.87529   0.40553   0.13042   0.00000  Uiso   1.00
C195   C     0.60216   0.33901   0.16256   0.00000  Uiso   1.00
C196   C     0.89067   0.17102   0.16702   0.00000  Uiso   1.00
C197   C     0.89832   0.33725   0.16519   0.00000  Uiso   1.00
C198   C     0.60378   0.16584   0.17023   0.00000  Uiso   1.00
C199   C     0.85216   0.08901   0.16256   0.00000  Uiso   1.00
C200   C     0.64067   0.42102   0.16702   0.00000  Uiso   1.00
C201   C     0.64832   0.08725   0.16519   0.00000  Uiso   1.00
C202   C     0.56375   0.30763   0.16577   0.00000  Uiso   1.00
C203   C     0.85378   0.41584   0.17023   0.00000  Uiso   1.00
C204   C     0.81406   0.44386   0.16747   0.00000  Uiso   1.00
C205   C     0.68628   0.05689   0.16614   0.00000  Uiso   1.00
C206   C     0.68517   0.44414   0.16697   0.00000  Uiso   1.00
C207   C     0.81375   0.05763   0.16578   0.00000  Uiso   1.00
C208   C     0.50612   0.28841   0.02282   0.00000  Uiso   1.00
H209   H     0.98497   0.33528   0.06413   0.00000  Uiso   1.00
H210   H     0.77166   0.10509   0.02516   0.00000  Uiso   1.00
H211   H     0.75433   0.41663   0.26427   0.00000  Uiso   1.00
H212   H     0.69826   0.42289   0.27918   0.00000  Uiso   1.00
H213   H     0.76499   0.40028   0.04115   0.00000  Uiso   1.00
H214   H     0.70798   0.40725   0.04356   0.00000  Uiso   1.00
H215   H     0.79558   0.09056   0.28905   0.00000  Uiso   1.00
H216   H     0.73832   0.10027   0.29027   0.00000  Uiso   1.00
H217   H     0.86389   0.25133   0.13227   0.00000  Uiso   1.00
H218   H     0.62688   0.33598   0.29170   0.00000  Uiso   1.00
H219   H     0.60636   0.28789   0.02921   0.00000  Uiso   1.00
H220   H     0.52166   0.35509   0.02516   0.00000  Uiso   1.00
H221   H     0.86092   0.17498   0.29079   0.00000  Uiso   1.00
H222   H     0.60134   0.23236   0.28737   0.00000  Uiso   1.00
H223   H     0.93106   0.37168   0.02821   0.00000  Uiso   1.00
H224   H     0.89591   0.24591   0.26775   0.00000  Uiso   1.00
H225   H     0.58663   0.18444   0.05339   0.00000  Uiso   1.00
H226   H     0.61389   0.00133   0.13227   0.00000  Uiso   1.00
H227   H     0.87689   0.08598   0.29170   0.00000  Uiso   1.00
H228   H     0.85636   0.03789   0.02921   0.00000  Uiso   1.00
H229   H     0.61092   0.42498   0.29079   0.00000  Uiso   1.00
H230   H     0.85134   0.48236   0.28737   0.00000  Uiso   1.00
H231   H     0.50433   0.16663   0.26427   0.00000  Uiso   1.00
H232   H     0.68106   0.12168   0.02821   0.00000  Uiso   1.00
H233   H     0.64591   0.49591   0.26775   0.00000  Uiso   1.00
H234   H     0.83663   0.43444   0.05339   0.00000  Uiso   1.00
H235   H     0.94826   0.17289   0.27918   0.00000  Uiso   1.00
H236   H     0.51499   0.15028   0.04115   0.00000  Uiso   1.00
H237   H     0.95798   0.15725   0.04356   0.00000  Uiso   1.00
H238   H     0.54558   0.34056   0.28905   0.00000  Uiso   1.00
H239   H     0.98832   0.35027   0.29027   0.00000  Uiso   1.00
H240   H     0.73497   0.08528   0.06413   0.00000  Uiso   1.00
N241   N     0.50000   0.25000   0.28573   0.00000  Uiso   1.00
N242   N     0.73196   0.42146   0.29076   0.00000  Uiso   1.00
N243   N     0.73960   0.42152   0.05134   0.00000  Uiso   1.00
N244   N     0.76316   0.07780   0.28165   0.00000  Uiso   1.00
N245   N     0.50000   0.25000   0.04760   0.00000  Uiso   1.00
N246   N     0.75000   0.00000   0.28573   0.00000  Uiso   1.00
N247   N     0.75000   0.00000   0.04760   0.00000  Uiso   1.00
N248   N     0.51439   0.32806   0.04644   0.00000  Uiso   1.00
N249   N     0.98196   0.17146   0.29076   0.00000  Uiso   1.00
N250   N     0.98960   0.17152   0.05134   0.00000  Uiso   1.00
N251   N     0.51316   0.32780   0.28165   0.00000  Uiso   1.00
N252   N     0.76439   0.07806   0.04644   0.00000  Uiso   1.00
O253   O     0.54581   0.20419   0.20487   0.00000  Uiso   1.00
O254   O     0.70420   0.04581   0.12846   0.00000  Uiso   1.00
O255   O     0.70420   0.04581   0.20487   0.00000  Uiso   1.00
O256   O     0.79581   0.45419   0.12846   0.00000  Uiso   1.00
O257   O     0.70420   0.45419   0.12846   0.00000  Uiso   1.00
O258   O     0.79581   0.04581   0.20487   0.00000  Uiso   1.00
O259   O     0.79581   0.04581   0.12846   0.00000  Uiso   1.00
O260   O     0.70420   0.45419   0.20487   0.00000  Uiso   1.00
O261   O     0.88912   0.21010   0.05272   0.00000  Uiso   1.00
O262   O     0.81123   0.18084   0.06278   0.00000  Uiso   1.00
O263   O     0.83717   0.24334   0.11363   0.00000  Uiso   1.00
O264   O     0.95420   0.29581   0.12846   0.00000  Uiso   1.00
O265   O     0.66735   0.27982   0.20668   0.00000  Uiso   1.00
O266   O     0.70696   0.34640   0.22997   0.00000  Uiso   1.00
O267   O     0.64613   0.31106   0.28383   0.00000  Uiso   1.00
O268   O     0.62446   0.37019   0.03275   0.00000  Uiso   1.00
O269   O     0.67788   0.32830   0.07942   0.00000  Uiso   1.00
O270   O     0.59987   0.29273   0.06130   0.00000  Uiso   1.00
O271   O     0.81520   0.21738   0.20659   0.00000  Uiso   1.00
O272   O     0.78289   0.14427   0.21756   0.00000  Uiso   1.00
O273   O     0.82781   0.17696   0.28397   0.00000  Uiso   1.00
O274   O     0.58513   0.14971   0.29583   0.00000  Uiso   1.00
O275   O     0.95420   0.29581   0.20487   0.00000  Uiso   1.00
O276   O     0.66662   0.16254   0.27935   0.00000  Uiso   1.00
O277   O     0.61081   0.22349   0.25708   0.00000  Uiso   1.00
O278   O     0.90045   0.29714   0.06457   0.00000  Uiso   1.00
O279   O     0.82865   0.33569   0.06750   0.00000  Uiso   1.00
O280   O     0.89763   0.37546   0.03036   0.00000  Uiso   1.00
O281   O     0.90407   0.32358   0.29115   0.00000  Uiso   1.00
O282   O     0.82379   0.31359   0.27001   0.00000  Uiso   1.00
O283   O     0.88301   0.26000   0.24016   0.00000  Uiso   1.00
O284   O     0.64663   0.24055   0.11988   0.00000  Uiso   1.00
O285   O     0.69399   0.18950   0.08001   0.00000  Uiso   1.00
O286   O     0.54581   0.20419   0.12846   0.00000  Uiso   1.00
O287   O     0.61269   0.20511   0.04857   0.00000  Uiso   1.00
O288   O     0.63912   0.46010   0.05272   0.00000  Uiso   1.00
O289   O     0.56123   0.43084   0.06278   0.00000  Uiso   1.00
O290   O     0.58717   0.49334   0.11363   0.00000  Uiso   1.00
O291   O     0.91735   0.02982   0.20668   0.00000  Uiso   1.00
O292   O     0.95696   0.09640   0.22997   0.00000  Uiso   1.00
O293   O     0.89613   0.06106   0.28383   0.00000  Uiso   1.00
O294   O     0.87446   0.12019   0.03275   0.00000  Uiso   1.00
O295   O     0.92788   0.07830   0.07942   0.00000  Uiso   1.00
O296   O     0.84987   0.04273   0.06130   0.00000  Uiso   1.00
O297   O     0.95420   0.20419   0.12846   0.00000  Uiso   1.00
O298   O     0.56520   0.46738   0.20659   0.00000  Uiso   1.00
O299   O     0.53289   0.39427   0.21756   0.00000  Uiso   1.00
O300   O     0.57781   0.42696   0.28397   0.00000  Uiso   1.00
O301   O     0.83513   0.39971   0.29583   0.00000  Uiso   1.00
O302   O     0.91662   0.41254   0.27935   0.00000  Uiso   1.00
O303   O     0.86081   0.47349   0.25708   0.00000  Uiso   1.00
O304   O     0.65045   0.04714   0.06457   0.00000  Uiso   1.00
O305   O     0.57865   0.08569   0.06750   0.00000  Uiso   1.00
O306   O     0.64763   0.12546   0.03036   0.00000  Uiso   1.00
O307   O     0.65407   0.07358   0.29115   0.00000  Uiso   1.00
O308   O     0.54581   0.29581   0.20487   0.00000  Uiso   1.00
O309   O     0.57379   0.06359   0.27001   0.00000  Uiso   1.00
O310   O     0.63301   0.01000   0.24016   0.00000  Uiso   1.00
O311   O     0.89663   0.49055   0.11988   0.00000  Uiso   1.00
O312   O     0.94399   0.43950   0.08001   0.00000  Uiso   1.00
O313   O     0.86269   0.45511   0.04857   0.00000  Uiso   1.00
O314   O     0.54581   0.29581   0.12846   0.00000  Uiso   1.00
O315   O     0.95420   0.20419   0.20487   0.00000  Uiso   1.00
O316   O     0.79581   0.45419   0.20487   0.00000  Uiso   1.00
S317   S     0.85262   0.19833   0.08677   0.00000  Uiso   1.00
S318   S     0.91179   0.07209   0.23034   0.00000  Uiso   1.00
S319   S     0.87825   0.08909   0.07271   0.00000  Uiso   1.00
S320   S     0.57363   0.42291   0.22785   0.00000  Uiso   1.00
S321   S     0.86874   0.41916   0.26221   0.00000  Uiso   1.00
S322   S     0.62972   0.09085   0.07187   0.00000  Uiso   1.00
S323   S     0.62240   0.06172   0.25366   0.00000  Uiso   1.00
S324   S     0.89592   0.44891   0.09447   0.00000  Uiso   1.00
S325   S     0.66179   0.32209   0.23034   0.00000  Uiso   1.00
S326   S     0.62825   0.33908   0.07271   0.00000  Uiso   1.00
S327   S     0.82363   0.17291   0.22785   0.00000  Uiso   1.00
S328   S     0.61874   0.16917   0.26221   0.00000  Uiso   1.00
S329   S     0.87972   0.34085   0.07187   0.00000  Uiso   1.00
S330   S     0.87240   0.31172   0.25366   0.00000  Uiso   1.00
S331   S     0.64592   0.19891   0.09447   0.00000  Uiso   1.00
S332   S     0.60262   0.44832   0.08677   0.00000  Uiso   1.00
Zn333  Zn    0.50000   0.25000   0.21771   0.00000  Uiso   1.00
Zn334  Zn    0.50000   0.25000   0.11563   0.00000  Uiso   1.00
Zn335  Zn    0.75000   0.00000   0.21771   0.00000  Uiso   1.00
Zn336  Zn    0.75000   0.00000   0.11563   0.00000  Uiso   1.00
C337   C     0.06406   0.69386   0.16747   0.00000  Uiso   1.00
C338   C     0.49292   0.71191   0.31127   0.00000  Uiso   1.00
C339   C     0.49437   0.71185   0.02566   0.00000  Uiso   1.00
C340   C     0.00641   0.78820   0.30783   0.00000  Uiso   1.00
C341   C     0.25612   0.53841   0.02282   0.00000  Uiso   1.00
C342   C     0.24292   0.96191   0.31127   0.00000  Uiso   1.00
C343   C     0.24437   0.96185   0.02566   0.00000  Uiso   1.00
C344   C     0.25641   0.53820   0.30783   0.00000  Uiso   1.00
C345   C     0.37268   0.65808   0.12589   0.00000  Uiso   1.00
C346   C     0.12009   0.85442   0.20284   0.00000  Uiso   1.00
C347   C     0.10895   0.86435   0.12212   0.00000  Uiso   1.00
C348   C     0.43628   0.80689   0.16614   0.00000  Uiso   1.00
C349   C     0.37408   0.64963   0.20606   0.00000  Uiso   1.00
C350   C     0.11311   0.64200   0.21023   0.00000  Uiso   1.00
C351   C     0.39098   0.86338   0.12554   0.00000  Uiso   1.00
C352   C     0.38026   0.84982   0.20704   0.00000  Uiso   1.00
C353   C     0.12529   0.65553   0.13042   0.00000  Uiso   1.00
C354   C     0.12268   0.90808   0.12589   0.00000  Uiso   1.00
C355   C     0.37009   0.60442   0.20284   0.00000  Uiso   1.00
C356   C     0.35895   0.61435   0.12212   0.00000  Uiso   1.00
C357   C     0.12408   0.89963   0.20606   0.00000  Uiso   1.00
C358   C     0.36311   0.89200   0.21023   0.00000  Uiso   1.00
C359   C     0.43517   0.69414   0.16697   0.00000  Uiso   1.00
C360   C     0.14097   0.61338   0.12554   0.00000  Uiso   1.00
C361   C     0.13026   0.59982   0.20704   0.00000  Uiso   1.00
C362   C     0.37529   0.90553   0.13042   0.00000  Uiso   1.00
C363   C     0.10216   0.83901   0.16256   0.00000  Uiso   1.00
C364   C     0.39067   0.67102   0.16702   0.00000  Uiso   1.00
C365   C     0.39832   0.83725   0.16519   0.00000  Uiso   1.00
C366   C     0.10378   0.66584   0.17023   0.00000  Uiso   1.00
C367   C     0.35216   0.58901   0.16256   0.00000  Uiso   1.00
C368   C     0.14067   0.92102   0.16702   0.00000  Uiso   1.00
C369   C     0.14832   0.58725   0.16519   0.00000  Uiso   1.00
C370   C     0.06375   0.80763   0.16577   0.00000  Uiso   1.00
C371   C     0.35378   0.91584   0.17023   0.00000  Uiso   1.00
C372   C     0.31406   0.94386   0.16747   0.00000  Uiso   1.00
C373   C     0.18628   0.55689   0.16614   0.00000  Uiso   1.00
C374   C     0.18517   0.94414   0.16697   0.00000  Uiso   1.00
C375   C     0.31375   0.55763   0.16578   0.00000  Uiso   1.00
C376   C     0.00612   0.78841   0.02282   0.00000  Uiso   1.00
H377   H     0.48497   0.83528   0.06413   0.00000  Uiso   1.00
H378   H     0.27166   0.60509   0.02516   0.00000  Uiso   1.00
H379   H     0.25433   0.91663   0.26427   0.00000  Uiso   1.00
H380   H     0.19826   0.92289   0.27918   0.00000  Uiso   1.00
H381   H     0.26499   0.90028   0.04115   0.00000  Uiso   1.00
H382   H     0.20798   0.90725   0.04356   0.00000  Uiso   1.00
H383   H     0.29558   0.59056   0.28905   0.00000  Uiso   1.00
H384   H     0.23832   0.60027   0.29027   0.00000  Uiso   1.00
H385   H     0.36389   0.75133   0.13227   0.00000  Uiso   1.00
H386   H     0.12688   0.83598   0.29170   0.00000  Uiso   1.00
H387   H     0.10636   0.78789   0.02921   0.00000  Uiso   1.00
H388   H     0.02166   0.85509   0.02516   0.00000  Uiso   1.00
H389   H     0.36092   0.67498   0.29079   0.00000  Uiso   1.00
H390   H     0.10134   0.73236   0.28737   0.00000  Uiso   1.00
H391   H     0.43106   0.87168   0.02821   0.00000  Uiso   1.00
H392   H     0.39591   0.74591   0.26775   0.00000  Uiso   1.00
H393   H     0.08663   0.68444   0.05339   0.00000  Uiso   1.00
H394   H     0.11389   0.50133   0.13227   0.00000  Uiso   1.00
H395   H     0.37689   0.58598   0.29170   0.00000  Uiso   1.00
H396   H     0.35636   0.53789   0.02921   0.00000  Uiso   1.00
H397   H     0.11092   0.92498   0.29079   0.00000  Uiso   1.00
H398   H     0.35134   0.98236   0.28737   0.00000  Uiso   1.00
H399   H     0.00433   0.66663   0.26427   0.00000  Uiso   1.00
H400   H     0.18106   0.62168   0.02821   0.00000  Uiso   1.00
H401   H     0.14591   0.99591   0.26775   0.00000  Uiso   1.00
H402   H     0.33663   0.93444   0.05339   0.00000  Uiso   1.00
H403   H     0.44826   0.67289   0.27918   0.00000  Uiso   1.00
H404   H     0.01499   0.65028   0.04115   0.00000  Uiso   1.00
H405   H     0.45798   0.65725   0.04356   0.00000  Uiso   1.00
H406   H     0.04558   0.84056   0.28905   0.00000  Uiso   1.00
H407   H     0.48832   0.85027   0.29027   0.00000  Uiso   1.00
H408   H     0.23497   0.58528   0.06413   0.00000  Uiso   1.00
N409   N     0.00000   0.75000   0.28573   0.00000  Uiso   1.00
N410   N     0.23196   0.92146   0.29076   0.00000  Uiso   1.00
N411   N     0.23960   0.92152   0.05134   0.00000  Uiso   1.00
N412   N     0.26316   0.57780   0.28165   0.00000  Uiso   1.00
N413   N     0.00000   0.75000   0.04760   0.00000  Uiso   1.00
N414   N     0.25000   0.50000   0.28573   0.00000  Uiso   1.00
N415   N     0.25000   0.50000   0.04760   0.00000  Uiso   1.00
N416   N     0.01439   0.82806   0.04644   0.00000  Uiso   1.00
N417   N     0.48196   0.67146   0.29076   0.00000  Uiso   1.00
N418   N     0.48960   0.67152   0.05134   0.00000  Uiso   1.00
N419   N     0.01316   0.82780   0.28165   0.00000  Uiso   1.00
N420   N     0.26439   0.57806   0.04644   0.00000  Uiso   1.00
O421   O     0.04581   0.70419   0.20487   0.00000  Uiso   1.00
O422   O     0.20420   0.54581   0.12846   0.00000  Uiso   1.00
O423   O     0.20420   0.54581   0.20487   0.00000  Uiso   1.00
O424   O     0.29581   0.95419   0.12846   0.00000  Uiso   1.00
O425   O     0.20420   0.95419   0.12846   0.00000  Uiso   1.00
O426   O     0.29581   0.54581   0.20487   0.00000  Uiso   1.00
O427   O     0.29581   0.54581   0.12846   0.00000  Uiso   1.00
O428   O     0.20420   0.95419   0.20487   0.00000  Uiso   1.00
O429   O     0.38912   0.71010   0.05272   0.00000  Uiso   1.00
O430   O     0.31123   0.68084   0.06278   0.00000  Uiso   1.00
O431   O     0.33717   0.74334   0.11363   0.00000  Uiso   1.00
O432   O     0.45420   0.79581   0.12846   0.00000  Uiso   1.00
O433   O     0.16735   0.77982   0.20668   0.00000  Uiso   1.00
O434   O     0.20696   0.84640   0.22997   0.00000  Uiso   1.00
O435   O     0.14613   0.81106   0.28383   0.00000  Uiso   1.00
O436   O     0.12446   0.87019   0.03275   0.00000  Uiso   1.00
O437   O     0.17788   0.82830   0.07942   0.00000  Uiso   1.00
O438   O     0.09987   0.79273   0.06130   0.00000  Uiso   1.00
O439   O     0.31520   0.71738   0.20659   0.00000  Uiso   1.00
O440   O     0.28289   0.64427   0.21756   0.00000  Uiso   1.00
O441   O     0.32781   0.67696   0.28397   0.00000  Uiso   1.00
O442   O     0.08513   0.64971   0.29583   0.00000  Uiso   1.00
O443   O     0.45420   0.79581   0.20487   0.00000  Uiso   1.00
O444   O     0.16662   0.66254   0.27935   0.00000  Uiso   1.00
O445   O     0.11081   0.72349   0.25708   0.00000  Uiso   1.00
O446   O     0.40045   0.79714   0.06457   0.00000  Uiso   1.00
O447   O     0.32865   0.83569   0.06750   0.00000  Uiso   1.00
O448   O     0.39763   0.87546   0.03036   0.00000  Uiso   1.00
O449   O     0.40407   0.82358   0.29115   0.00000  Uiso   1.00
O450   O     0.32379   0.81359   0.27001   0.00000  Uiso   1.00
O451   O     0.38301   0.76000   0.24016   0.00000  Uiso   1.00
O452   O     0.14663   0.74055   0.11988   0.00000  Uiso   1.00
O453   O     0.19399   0.68950   0.08001   0.00000  Uiso   1.00
O454   O     0.04581   0.70419   0.12846   0.00000  Uiso   1.00
O455   O     0.11269   0.70511   0.04857   0.00000  Uiso   1.00
O456   O     0.13912   0.96010   0.05272   0.00000  Uiso   1.00
O457   O     0.06123   0.93084   0.06278   0.00000  Uiso   1.00
O458   O     0.08717   0.99334   0.11363   0.00000  Uiso   1.00
O459   O     0.41735   0.52982   0.20668   0.00000  Uiso   1.00
O460   O     0.45696   0.59640   0.22997   0.00000  Uiso   1.00
O461   O     0.39613   0.56106   0.28383   0.00000  Uiso   1.00
O462   O     0.37446   0.62019   0.03275   0.00000  Uiso   1.00
O463   O     0.42788   0.57830   0.07942   0.00000  Uiso   1.00
O464   O     0.34987   0.54273   0.06130   0.00000  Uiso   1.00
O465   O     0.45420   0.70419   0.12846   0.00000  Uiso   1.00
O466   O     0.06520   0.96738   0.20659   0.00000  Uiso   1.00
O467   O     0.03289   0.89427   0.21756   0.00000  Uiso   1.00
O468   O     0.07781   0.92696   0.28397   0.00000  Uiso   1.00
O469   O     0.33513   0.89971   0.29583   0.00000  Uiso   1.00
O470   O     0.41662   0.91254   0.27935   0.00000  Uiso   1.00
O471   O     0.36081   0.97349   0.25708   0.00000  Uiso   1.00
O472   O     0.15045   0.54714   0.06457   0.00000  Uiso   1.00
O473   O     0.07865   0.58569   0.06750   0.00000  Uiso   1.00
O474   O     0.14763   0.62546   0.03036   0.00000  Uiso   1.00
O475   O     0.15407   0.57358   0.29115   0.00000  Uiso   1.00
O476   O     0.04581   0.79581   0.20487   0.00000  Uiso   1.00
O477   O     0.07379   0.56359   0.27001   0.00000  Uiso   1.00
O478   O     0.13301   0.51000   0.24016   0.00000  Uiso   1.00
O479   O     0.39663   0.99055   0.11988   0.00000  Uiso   1.00
O480   O     0.44399   0.93950   0.08001   0.00000  Uiso   1.00
O481   O     0.36269   0.95511   0.04857   0.00000  Uiso   1.00
O482   O     0.04581   0.79581   0.12846   0.00000  Uiso   1.00
O483   O     0.45420   0.70419   0.20487   0.00000  Uiso   1.00
O484   O     0.29581   0.95419   0.20487   0.00000  Uiso   1.00
S485   S     0.35262   0.69833   0.08677   0.00000  Uiso   1.00
S486   S     0.41179   0.57209   0.23034   0.00000  Uiso   1.00
S487   S     0.37825   0.58909   0.07271   0.00000  Uiso   1.00
S488   S     0.07363   0.92291   0.22785   0.00000  Uiso   1.00
S489   S     0.36874   0.91916   0.26221   0.00000  Uiso   1.00
S490   S     0.12972   0.59085   0.07187   0.00000  Uiso   1.00
S491   S     0.12240   0.56172   0.25366   0.00000  Uiso   1.00
S492   S     0.39592   0.94891   0.09447   0.00000  Uiso   1.00
S493   S     0.16179   0.82209   0.23034   0.00000  Uiso   1.00
S494   S     0.12825   0.83908   0.07271   0.00000  Uiso   1.00
S495   S     0.32363   0.67291   0.22785   0.00000  Uiso   1.00
S496   S     0.11874   0.66917   0.26221   0.00000  Uiso   1.00
S497   S     0.37972   0.84085   0.07187   0.00000  Uiso   1.00
S498   S     0.37240   0.81172   0.25366   0.00000  Uiso   1.00
S499   S     0.14592   0.69891   0.09447   0.00000  Uiso   1.00
S500   S     0.10262   0.94832   0.08677   0.00000  Uiso   1.00
Zn501  Zn    0.00000   0.75000   0.21771   0.00000  Uiso   1.00
Zn502  Zn    0.00000   0.75000   0.11563   0.00000  Uiso   1.00
Zn503  Zn    0.25000   0.50000   0.21771   0.00000  Uiso   1.00
Zn504  Zn    0.25000   0.50000   0.11563   0.00000  Uiso   1.00
C505   C     0.56406   0.69386   0.16747   0.00000  Uiso   1.00
C506   C     0.99292   0.71191   0.31127   0.00000  Uiso   1.00
C507   C     0.99437   0.71185   0.02566   0.00000  Uiso   1.00
C508   C     0.50641   0.78820   0.30783   0.00000  Uiso   1.00
C509   C     0.75612   0.53841   0.02282   0.00000  Uiso   1.00
C510   C     0.74292   0.96191   0.31127   0.00000  Uiso   1.00
C511   C     0.74437   0.96185   0.02566   0.00000  Uiso   1.00
C512   C     0.75641   0.53820   0.30783   0.00000  Uiso   1.00
C513   C     0.87268   0.65808   0.12589   0.00000  Uiso   1.00
C514   C     0.62009   0.85442   0.20284   0.00000  Uiso   1.00
C515   C     0.60895   0.86435   0.12212   0.00000  Uiso   1.00
C516   C     0.93628   0.80689   0.16614   0.00000  Uiso   1.00
C517   C     0.87408   0.64963   0.20606   0.00000  Uiso   1.00
C518   C     0.61311   0.64200   0.21023   0.00000  Uiso   1.00
C519   C     0.89098   0.86338   0.12554   0.00000  Uiso   1.00
C520   C     0.88026   0.84982   0.20704   0.00000  Uiso   1.00
C521   C     0.62529   0.65553   0.13042   0.00000  Uiso   1.00
C522   C     0.62268   0.90808   0.12589   0.00000  Uiso   1.00
C523   C     0.87009   0.60442   0.20284   0.00000  Uiso   1.00
C524   C     0.85895   0.61435   0.12212   0.00000  Uiso   1.00
C525   C     0.62408   0.89963   0.20606   0.00000  Uiso   1.00
C526   C     0.86311   0.89200   0.21023   0.00000  Uiso   1.00
C527   C     0.93517   0.69414   0.16697   0.00000  Uiso   1.00
C528   C     0.64097   0.61338   0.12554   0.00000  Uiso   1.00
C529   C     0.63026   0.59982   0.20704   0.00000  Uiso   1.00
C530   C     0.87529   0.90553   0.13042   0.00000  Uiso   1.00
C531   C     0.60216   0.83901   0.16256   0.00000  Uiso   1.00
C532   C     0.89067   0.67102   0.16702   0.00000  Uiso   1.00
C533   C     0.89832   0.83725   0.16519   0.00000  Uiso   1.00
C534   C     0.60378   0.66584   0.17023   0.00000  Uiso   1.00
C535   C     0.85216   0.58901   0.16256   0.00000  Uiso   1.00
C536   C     0.64067   0.92102   0.16702   0.00000  Uiso   1.00
C537   C     0.64832   0.58725   0.16519   0.00000  Uiso   1.00
C538   C     0.56375   0.80763   0.16577   0.00000  Uiso   1.00
C539   C     0.85378   0.91584   0.17023   0.00000  Uiso   1.00
C540   C     0.81406   0.94386   0.16747   0.00000  Uiso   1.00
C541   C     0.68628   0.55689   0.16614   0.00000  Uiso   1.00
C542   C     0.68517   0.94414   0.16697   0.00000  Uiso   1.00
C543   C     0.81375   0.55763   0.16578   0.00000  Uiso   1.00
C544   C     0.50612   0.78841   0.02282   0.00000  Uiso   1.00
H545   H     0.98497   0.83528   0.06413   0.00000  Uiso   1.00
H546   H     0.77166   0.60509   0.02516   0.00000  Uiso   1.00
H547   H     0.75433   0.91663   0.26427   0.00000  Uiso   1.00
H548   H     0.69826   0.92289   0.27918   0.00000  Uiso   1.00
H549   H     0.76499   0.90028   0.04115   0.00000  Uiso   1.00
H550   H     0.70798   0.90725   0.04356   0.00000  Uiso   1.00
H551   H     0.79558   0.59056   0.28905   0.00000  Uiso   1.00
H552   H     0.73832   0.60027   0.29027   0.00000  Uiso   1.00
H553   H     0.86389   0.75133   0.13227   0.00000  Uiso   1.00
H554   H     0.62688   0.83598   0.29170   0.00000  Uiso   1.00
H555   H     0.60636   0.78789   0.02921   0.00000  Uiso   1.00
H556   H     0.52166   0.85509   0.02516   0.00000  Uiso   1.00
H557   H     0.86092   0.67498   0.29079   0.00000  Uiso   1.00
H558   H     0.60134   0.73236   0.28737   0.00000  Uiso   1.00
H559   H     0.93106   0.87168   0.02821   0.00000  Uiso   1.00
H560   H     0.89591   0.74591   0.26775   0.00000  Uiso   1.00
H561   H     0.58663   0.68444   0.05339   0.00000  Uiso   1.00
H562   H     0.61389   0.50133   0.13227   0.00000  Uiso   1.00
H563   H     0.87689   0.58598   0.29170   0.00000  Uiso   1.00
H564   H     0.85636   0.53789   0.02921   0.00000  Uiso   1.00
H565   H     0.61092   0.92498   0.29079   0.00000  Uiso   1.00
H566   H     0.85134   0.98236   0.28737   0.00000  Uiso   1.00
H567   H     0.50433   0.66663   0.26427   0.00000  Uiso   1.00
H568   H     0.68106   0.62168   0.02821   0.00000  Uiso   1.00
H569   H     0.64591   0.99591   0.26775   0.00000  Uiso   1.00
H570   H     0.83663   0.93444   0.05339   0.00000  Uiso   1.00
H571   H     0.94826   0.67289   0.27918   0.00000  Uiso   1.00
H572   H     0.51499   0.65028   0.04115   0.00000  Uiso   1.00
H573   H     0.95798   0.65725   0.04356   0.00000  Uiso   1.00
H574   H     0.54558   0.84056   0.28905   0.00000  Uiso   1.00
H575   H     0.98832   0.85027   0.29027   0.00000  Uiso   1.00
H576   H     0.73497   0.58528   0.06413   0.00000  Uiso   1.00
N577   N     0.50000   0.75000   0.28573   0.00000  Uiso   1.00
N578   N     0.73196   0.92146   0.29076   0.00000  Uiso   1.00
N579   N     0.73960   0.92152   0.05134   0.00000  Uiso   1.00
N580   N     0.76316   0.57780   0.28165   0.00000  Uiso   1.00
N581   N     0.50000   0.75000   0.04760   0.00000  Uiso   1.00
N582   N     0.75000   0.50000   0.28573   0.00000  Uiso   1.00
N583   N     0.75000   0.50000   0.04760   0.00000  Uiso   1.00
N584   N     0.51439   0.82806   0.04644   0.00000  Uiso   1.00
N585   N     0.98196   0.67146   0.29076   0.00000  Uiso   1.00
N586   N     0.98960   0.67152   0.05134   0.00000  Uiso   1.00
N587   N     0.51316   0.82780   0.28165   0.00000  Uiso   1.00
N588   N     0.76439   0.57806   0.04644   0.00000  Uiso   1.00
O589   O     0.54581   0.70419   0.20487   0.00000  Uiso   1.00
O590   O     0.70420   0.54581   0.12846   0.00000  Uiso   1.00
O591   O     0.70420   0.54581   0.20487   0.00000  Uiso   1.00
O592   O     0.79581   0.95419   0.12846   0.00000  Uiso   1.00
O593   O     0.70420   0.95419   0.12846   0.00000  Uiso   1.00
O594   O     0.79581   0.54581   0.20487   0.00000  Uiso   1.00
O595   O     0.79581   0.54581   0.12846   0.00000  Uiso   1.00
O596   O     0.70420   0.95419   0.20487   0.00000  Uiso   1.00
O597   O     0.88912   0.71010   0.05272   0.00000  Uiso   1.00
O598   O     0.81123   0.68084   0.06278   0.00000  Uiso   1.00
O599   O     0.83717   0.74334   0.11363   0.00000  Uiso   1.00
O600   O     0.95420   0.79581   0.12846   0.00000  Uiso   1.00
O601   O     0.66735   0.77982   0.20668   0.00000  Uiso   1.00
O602   O     0.70696   0.84640   0.22997   0.00000  Uiso   1.00
O603   O     0.64613   0.81106   0.28383   0.00000  Uiso   1.00
O604   O     0.62446   0.87019   0.03275   0.00000  Uiso   1.00
O605   O     0.67788   0.82830   0.07942   0.00000  Uiso   1.00
O606   O     0.59987   0.79273   0.06130   0.00000  Uiso   1.00
O607   O     0.81520   0.71738   0.20659   0.00000  Uiso   1.00
O608   O     0.78289   0.64427   0.21756   0.00000  Uiso   1.00
O609   O     0.82781   0.67696   0.28397   0.00000  Uiso   1.00
O610   O     0.58513   0.64971   0.29583   0.00000  Uiso   1.00
O611   O     0.95420   0.79581   0.20487   0.00000  Uiso   1.00
O612   O     0.66662   0.66254   0.27935   0.00000  Uiso   1.00
O613   O     0.61081   0.72349   0.25708   0.00000  Uiso   1.00
O614   O     0.90045   0.79714   0.06457   0.00000  Uiso   1.00
O615   O     0.82865   0.83569   0.06750   0.00000  Uiso   1.00
O616   O     0.89763   0.87546   0.03036   0.00000  Uiso   1.00
O617   O     0.90407   0.82358   0.29115   0.00000  Uiso   1.00
O618   O     0.82379   0.81359   0.27001   0.00000  Uiso   1.00
O619   O     0.88301   0.76000   0.24016   0.00000  Uiso   1.00
O620   O     0.64663   0.74055   0.11988   0.00000  Uiso   1.00
O621   O     0.69399   0.68950   0.08001   0.00000  Uiso   1.00
O622   O     0.54581   0.70419   0.12846   0.00000  Uiso   1.00
O623   O     0.61269   0.70511   0.04857   0.00000  Uiso   1.00
O624   O     0.63912   0.96010   0.05272   0.00000  Uiso   1.00
O625   O     0.56123   0.93084   0.06278   0.00000  Uiso   1.00
O626   O     0.58717   0.99334   0.11363   0.00000  Uiso   1.00
O627   O     0.91735   0.52982   0.20668   0.00000  Uiso   1.00
O628   O     0.95696   0.59640   0.22997   0.00000  Uiso   1.00
O629   O     0.89613   0.56106   0.28383   0.00000  Uiso   1.00
O630   O     0.87446   0.62019   0.03275   0.00000  Uiso   1.00
O631   O     0.92788   0.57830   0.07942   0.00000  Uiso   1.00
O632   O     0.84987   0.54273   0.06130   0.00000  Uiso   1.00
O633   O     0.95420   0.70419   0.12846   0.00000  Uiso   1.00
O634   O     0.56520   0.96738   0.20659   0.00000  Uiso   1.00
O635   O     0.53289   0.89427   0.21756   0.00000  Uiso   1.00
O636   O     0.57781   0.92696   0.28397   0.00000  Uiso   1.00
O637   O     0.83513   0.89971   0.29583   0.00000  Uiso   1.00
O638   O     0.91662   0.91254   0.27935   0.00000  Uiso   1.00
O639   O     0.86081   0.97349   0.25708   0.00000  Uiso   1.00
O640   O     0.65045   0.54714   0.06457   0.00000  Uiso   1.00
O641   O     0.57865   0.58569   0.06750   0.00000  Uiso   1.00
O642   O     0.64763   0.62546   0.03036   0.00000  Uiso   1.00
O643   O     0.65407   0.57358   0.29115   0.00000  Uiso   1.00
O644   O     0.54581   0.79581   0.20487   0.00000  Uiso   1.00
O645   O     0.57379   0.56359   0.27001   0.00000  Uiso   1.00
O646   O     0.63301   0.51000   0.24016   0.00000  Uiso   1.00
O647   O     0.89663   0.99055   0.11988   0.00000  Uiso   1.00
O648   O     0.94399   0.93950   0.08001   0.00000  Uiso   1.00
O649   O     0.86269   0.95511   0.04857   0.00000  Uiso   1.00
O650   O     0.54581   0.79581   0.12846   0.00000  Uiso   1.00
O651   O     0.95420   0.70419   0.20487   0.00000  Uiso   1.00
O652   O     0.79581   0.95419   0.20487   0.00000  Uiso   1.00
S653   S     0.85262   0.69833   0.08677   0.00000  Uiso   1.00
S654   S     0.91179   0.57209   0.23034   0.00000  Uiso   1.00
S655   S     0.87825   0.58909   0.07271   0.00000  Uiso   1.00
S656   S     0.57363   0.92291   0.22785   0.00000  Uiso   1.00
S657   S     0.86874   0.91916   0.26221   0.00000  Uiso   1.00
S658   S     0.62972   0.59085   0.07187   0.00000  Uiso   1.00
S659   S     0.62240   0.56172   0.25366   0.00000  Uiso   1.00
S660   S     0.89592   0.94891   0.09447   0.00000  Uiso   1.00
S661   S     0.66179   0.82209   0.23034   0.00000  Uiso   1.00
S662   S     0.62825   0.83908   0.07271   0.00000  Uiso   1.00
S663   S     0.82363   0.67291   0.22785   0.00000  Uiso   1.00
S664   S     0.61874   0.66917   0.26221   0.00000  Uiso   1.00
S665   S     0.87972   0.84085   0.07187   0.00000  Uiso   1.00
S666   S     0.87240   0.81172   0.25366   0.00000  Uiso   1.00
S667   S     0.64592   0.69891   0.09447   0.00000  Uiso   1.00
S668   S     0.60262   0.94832   0.08677   0.00000  Uiso   1.00
Zn669  Zn    0.50000   0.75000   0.21771   0.00000  Uiso   1.00
Zn670  Zn    0.50000   0.75000   0.11563   0.00000  Uiso   1.00
Zn671  Zn    0.75000   0.50000   0.21771   0.00000  Uiso   1.00
Zn672  Zn    0.75000   0.50000   0.11563   0.00000  Uiso   1.00
C673   C     0.06406   0.19386   0.50081   0.00000  Uiso   1.00
C674   C     0.49292   0.21191   0.64460   0.00000  Uiso   1.00
C675   C     0.49437   0.21185   0.35899   0.00000  Uiso   1.00
C676   C     0.00641   0.28820   0.64116   0.00000  Uiso   1.00
C677   C     0.25612   0.03841   0.35615   0.00000  Uiso   1.00
C678   C     0.24292   0.46191   0.64460   0.00000  Uiso   1.00
C679   C     0.24437   0.46185   0.35899   0.00000  Uiso   1.00
C680   C     0.25641   0.03820   0.64116   0.00000  Uiso   1.00
C681   C     0.37268   0.15808   0.45922   0.00000  Uiso   1.00
C682   C     0.12009   0.35442   0.53617   0.00000  Uiso   1.00
C683   C     0.10895   0.36435   0.45546   0.00000  Uiso   1.00
C684   C     0.43628   0.30689   0.49948   0.00000  Uiso   1.00
C685   C     0.37408   0.14963   0.53939   0.00000  Uiso   1.00
C686   C     0.11311   0.14200   0.54356   0.00000  Uiso   1.00
C687   C     0.39098   0.36338   0.45887   0.00000  Uiso   1.00
C688   C     0.38026   0.34982   0.54037   0.00000  Uiso   1.00
C689   C     0.12529   0.15553   0.46375   0.00000  Uiso   1.00
C690   C     0.12268   0.40808   0.45922   0.00000  Uiso   1.00
C691   C     0.37009   0.10442   0.53617   0.00000  Uiso   1.00
C692   C     0.35895   0.11435   0.45546   0.00000  Uiso   1.00
C693   C     0.12408   0.39963   0.53939   0.00000  Uiso   1.00
C694   C     0.36311   0.39200   0.54356   0.00000  Uiso   1.00
C695   C     0.43517   0.19414   0.50030   0.00000  Uiso   1.00
C696   C     0.14097   0.11338   0.45887   0.00000  Uiso   1.00
C697   C     0.13026   0.09982   0.54037   0.00000  Uiso   1.00
C698   C     0.37529   0.40553   0.46375   0.00000  Uiso   1.00
C699   C     0.10216   0.33901   0.49589   0.00000  Uiso   1.00
C700   C     0.39067   0.17102   0.50035   0.00000  Uiso   1.00
C701   C     0.39832   0.33725   0.49852   0.00000  Uiso   1.00
C702   C     0.10378   0.16584   0.50356   0.00000  Uiso   1.00
C703   C     0.35216   0.08901   0.49589   0.00000  Uiso   1.00
C704   C     0.14067   0.42102   0.50035   0.00000  Uiso   1.00
C705   C     0.14832   0.08725   0.49852   0.00000  Uiso   1.00
C706   C     0.06375   0.30763   0.49911   0.00000  Uiso   1.00
C707   C     0.35378   0.41584   0.50356   0.00000  Uiso   1.00
C708   C     0.31406   0.44386   0.50081   0.00000  Uiso   1.00
C709   C     0.18628   0.05689   0.49948   0.00000  Uiso   1.00
C710   C     0.18517   0.44414   0.50030   0.00000  Uiso   1.00
C711   C     0.31375   0.05763   0.49911   0.00000  Uiso   1.00
C712   C     0.00612   0.28841   0.35615   0.00000  Uiso   1.00
H713   H     0.48497   0.33528   0.39747   0.00000  Uiso   1.00
H714   H     0.27166   0.10509   0.35849   0.00000  Uiso   1.00
H715   H     0.25433   0.41663   0.59760   0.00000  Uiso   1.00
H716   H     0.19826   0.42289   0.61252   0.00000  Uiso   1.00
H717   H     0.26499   0.40028   0.37449   0.00000  Uiso   1.00
H718   H     0.20798   0.40725   0.37690   0.00000  Uiso   1.00
H719   H     0.29558   0.09056   0.62239   0.00000  Uiso   1.00
H720   H     0.23832   0.10027   0.62360   0.00000  Uiso   1.00
H721   H     0.36389   0.25133   0.46560   0.00000  Uiso   1.00
H722   H     0.12688   0.33598   0.62503   0.00000  Uiso   1.00
H723   H     0.10636   0.28789   0.36255   0.00000  Uiso   1.00
H724   H     0.02166   0.35509   0.35849   0.00000  Uiso   1.00
H725   H     0.36092   0.17498   0.62413   0.00000  Uiso   1.00
H726   H     0.10134   0.23236   0.62070   0.00000  Uiso   1.00
H727   H     0.43106   0.37168   0.36154   0.00000  Uiso   1.00
H728   H     0.39591   0.24591   0.60109   0.00000  Uiso   1.00
H729   H     0.08663   0.18444   0.38673   0.00000  Uiso   1.00
H730   H     0.11389   0.00133   0.46560   0.00000  Uiso   1.00
H731   H     0.37689   0.08598   0.62503   0.00000  Uiso   1.00
H732   H     0.35636   0.03789   0.36255   0.00000  Uiso   1.00
H733   H     0.11092   0.42498   0.62413   0.00000  Uiso   1.00
H734   H     0.35134   0.48236   0.62070   0.00000  Uiso   1.00
H735   H     0.00433   0.16663   0.59760   0.00000  Uiso   1.00
H736   H     0.18106   0.12168   0.36154   0.00000  Uiso   1.00
H737   H     0.14591   0.49591   0.60109   0.00000  Uiso   1.00
H738   H     0.33663   0.43444   0.38673   0.00000  Uiso   1.00
H739   H     0.44826   0.17289   0.61252   0.00000  Uiso   1.00
H740   H     0.01499   0.15028   0.37449   0.00000  Uiso   1.00
H741   H     0.45798   0.15725   0.37690   0.00000  Uiso   1.00
H742   H     0.04558   0.34056   0.62239   0.00000  Uiso   1.00
H743   H     0.48832   0.35027   0.62360   0.00000  Uiso   1.00
H744   H     0.23497   0.08528   0.39747   0.00000  Uiso   1.00
N745   N     0.00000   0.25000   0.61907   0.00000  Uiso   1.00
N746   N     0.23196   0.42146   0.62409   0.00000  Uiso   1.00
N747   N     0.23960   0.42152   0.38468   0.00000  Uiso   1.00
N748   N     0.26316   0.07780   0.61498   0.00000  Uiso   1.00
N749   N     0.00000   0.25000   0.38093   0.00000  Uiso   1.00
N750   N     0.25000   0.00000   0.61907   0.00000  Uiso   1.00
N751   N     0.25000   0.00000   0.38093   0.00000  Uiso   1.00
N752   N     0.01439   0.32806   0.37977   0.00000  Uiso   1.00
N753   N     0.48196   0.17146   0.62409   0.00000  Uiso   1.00
N754   N     0.48960   0.17152   0.38468   0.00000  Uiso   1.00
N755   N     0.01316   0.32780   0.61498   0.00000  Uiso   1.00
N756   N     0.26439   0.07806   0.37977   0.00000  Uiso   1.00
O757   O     0.04581   0.20419   0.53821   0.00000  Uiso   1.00
O758   O     0.20420   0.04581   0.46179   0.00000  Uiso   1.00
O759   O     0.20420   0.04581   0.53821   0.00000  Uiso   1.00
O760   O     0.29581   0.45419   0.46179   0.00000  Uiso   1.00
O761   O     0.20420   0.45419   0.46179   0.00000  Uiso   1.00
O762   O     0.29581   0.04581   0.53821   0.00000  Uiso   1.00
O763   O     0.29581   0.04581   0.46179   0.00000  Uiso   1.00
O764   O     0.20420   0.45419   0.53821   0.00000  Uiso   1.00
O765   O     0.38912   0.21010   0.38606   0.00000  Uiso   1.00
O766   O     0.31123   0.18084   0.39611   0.00000  Uiso   1.00
O767   O     0.33717   0.24334   0.44697   0.00000  Uiso   1.00
O768   O     0.45420   0.29581   0.46179   0.00000  Uiso   1.00
O769   O     0.16735   0.27982   0.54001   0.00000  Uiso   1.00
O770   O     0.20696   0.34640   0.56330   0.00000  Uiso   1.00
O771   O     0.14613   0.31106   0.61717   0.00000  Uiso   1.00
O772   O     0.12446   0.37019   0.36609   0.00000  Uiso   1.00
O773   O     0.17788   0.32830   0.41275   0.00000  Uiso   1.00
O774   O     0.09987   0.29273   0.39463   0.00000  Uiso   1.00
O775   O     0.31520   0.21738   0.53992   0.00000  Uiso   1.00
O776   O     0.28289   0.14427   0.55089   0.00000  Uiso   1.00
O777   O     0.32781   0.17696   0.61730   0.00000  Uiso   1.00
O778   O     0.08513   0.14971   0.62917   0.00000  Uiso   1.00
O779   O     0.45420   0.29581   0.53821   0.00000  Uiso   1.00
O780   O     0.16662   0.16254   0.61268   0.00000  Uiso   1.00
O781   O     0.11081   0.22349   0.59041   0.00000  Uiso   1.00
O782   O     0.40045   0.29714   0.39791   0.00000  Uiso   1.00
O783   O     0.32865   0.33569   0.40083   0.00000  Uiso   1.00
O784   O     0.39763   0.37546   0.36370   0.00000  Uiso   1.00
O785   O     0.40407   0.32358   0.62449   0.00000  Uiso   1.00
O786   O     0.32379   0.31359   0.60334   0.00000  Uiso   1.00
O787   O     0.38301   0.26000   0.57349   0.00000  Uiso   1.00
O788   O     0.14663   0.24055   0.45322   0.00000  Uiso   1.00
O789   O     0.19399   0.18950   0.41334   0.00000  Uiso   1.00
O790   O     0.04581   0.20419   0.46179   0.00000  Uiso   1.00
O791   O     0.11269   0.20511   0.38191   0.00000  Uiso   1.00
O792   O     0.13912   0.46010   0.38606   0.00000  Uiso   1.00
O793   O     0.06123   0.43084   0.39611   0.00000  Uiso   1.00
O794   O     0.08717   0.49334   0.44697   0.00000  Uiso   1.00
O795   O     0.41735   0.02982   0.54001   0.00000  Uiso   1.00
O796   O     0.45696   0.09640   0.56330   0.00000  Uiso   1.00
O797   O     0.39613   0.06106   0.61717   0.00000  Uiso   1.00
O798   O     0.37446   0.12019   0.36609   0.00000  Uiso   1.00
O799   O     0.42788   0.07830   0.41275   0.00000  Uiso   1.00
O800   O     0.34987   0.04273   0.39463   0.00000  Uiso   1.00
O801   O     0.45420   0.20419   0.46179   0.00000  Uiso   1.00
O802   O     0.06520   0.46738   0.53992   0.00000  Uiso   1.00
O803   O     0.03289   0.39427   0.55089   0.00000  Uiso   1.00
O804   O     0.07781   0.42696   0.61730   0.00000  Uiso   1.00
O805   O     0.33513   0.39971   0.62917   0.00000  Uiso   1.00
O806   O     0.41662   0.41254   0.61268   0.00000  Uiso   1.00
O807   O     0.36081   0.47349   0.59041   0.00000  Uiso   1.00
O808   O     0.15045   0.04714   0.39791   0.00000  Uiso   1.00
O809   O     0.07865   0.08569   0.40083   0.00000  Uiso   1.00
O810   O     0.14763   0.12546   0.36370   0.00000  Uiso   1.00
O811   O     0.15407   0.07358   0.62449   0.00000  Uiso   1.00
O812   O     0.04581   0.29581   0.53821   0.00000  Uiso   1.00
O813   O     0.07379   0.06359   0.60334   0.00000  Uiso   1.00
O814   O     0.13301   0.01000   0.57349   0.00000  Uiso   1.00
O815   O     0.39663   0.49055   0.45322   0.00000  Uiso   1.00
O816   O     0.44399   0.43950   0.41334   0.00000  Uiso   1.00
O817   O     0.36269   0.45511   0.38191   0.00000  Uiso   1.00
O818   O     0.04581   0.29581   0.46179   0.00000  Uiso   1.00
O819   O     0.45420   0.20419   0.53821   0.00000  Uiso   1.00
O820   O     0.29581   0.45419   0.53821   0.00000  Uiso   1.00
S821   S     0.35262   0.19833   0.42011   0.00000  Uiso   1.00
S822   S     0.41179   0.07209   0.56368   0.00000  Uiso   1.00
S823   S     0.37825   0.08909   0.40605   0.00000  Uiso   1.00
S824   S     0.07363   0.42291   0.56119   0.00000  Uiso   1.00
S825   S     0.36874   0.41916   0.59554   0.00000  Uiso   1.00
S826   S     0.12972   0.09085   0.40520   0.00000  Uiso   1.00
S827   S     0.12240   0.06172   0.58699   0.00000  Uiso   1.00
S828   S     0.39592   0.44891   0.42780   0.00000  Uiso   1.00
S829   S     0.16179   0.32209   0.56368   0.00000  Uiso   1.00
S830   S     0.12825   0.33908   0.40605   0.00000  Uiso   1.00
S831   S     0.32363   0.17291   0.56119   0.00000  Uiso   1.00
S832   S     0.11874   0.16917   0.59554   0.00000  Uiso   1.00
S833   S     0.37972   0.34085   0.40520   0.00000  Uiso   1.00
S834   S     0.37240   0.31172   0.58699   0.00000  Uiso   1.00
S835   S     0.14592   0.19891   0.42780   0.00000  Uiso   1.00
S836   S     0.10262   0.44832   0.42011   0.00000  Uiso   1.00
Zn837  Zn    0.00000   0.25000   0.55104   0.00000  Uiso   1.00
Zn838  Zn    0.00000   0.25000   0.44896   0.00000  Uiso   1.00
Zn839  Zn    0.25000   0.00000   0.55104   0.00000  Uiso   1.00
Zn840  Zn    0.25000   0.00000   0.44896   0.00000  Uiso   1.00
C841   C     0.56406   0.19386   0.50081   0.00000  Uiso   1.00
C842   C     0.99292   0.21191   0.64460   0.00000  Uiso   1.00
C843   C     0.99437   0.21185   0.35899   0.00000  Uiso   1.00
C844   C     0.50641   0.28820   0.64116   0.00000  Uiso   1.00
C845   C     0.75612   0.03841   0.35615   0.00000  Uiso   1.00
C846   C     0.74292   0.46191   0.64460   0.00000  Uiso   1.00
C847   C     0.74437   0.46185   0.35899   0.00000  Uiso   1.00
C848   C     0.75641   0.03820   0.64116   0.00000  Uiso   1.00
C849   C     0.87268   0.15808   0.45922   0.00000  Uiso   1.00
C850   C     0.62009   0.35442   0.53617   0.00000  Uiso   1.00
C851   C     0.60895   0.36435   0.45546   0.00000  Uiso   1.00
C852   C     0.93628   0.30689   0.49948   0.00000  Uiso   1.00
C853   C     0.87408   0.14963   0.53939   0.00000  Uiso   1.00
C854   C     0.61311   0.14200   0.54356   0.00000  Uiso   1.00
C855   C     0.89098   0.36338   0.45887   0.00000  Uiso   1.00
C856   C     0.88026   0.34982   0.54037   0.00000  Uiso   1.00
C857   C     0.62529   0.15553   0.46375   0.00000  Uiso   1.00
C858   C     0.62268   0.40808   0.45922   0.00000  Uiso   1.00
C859   C     0.87009   0.10442   0.53617   0.00000  Uiso   1.00
C860   C     0.85895   0.11435   0.45546   0.00000  Uiso   1.00
C861   C     0.62408   0.39963   0.53939   0.00000  Uiso   1.00
C862   C     0.86311   0.39200   0.54356   0.00000  Uiso   1.00
C863   C     0.93517   0.19414   0.50030   0.00000  Uiso   1.00
C864   C     0.64097   0.11338   0.45887   0.00000  Uiso   1.00
C865   C     0.63026   0.09982   0.54037   0.00000  Uiso   1.00
C866   C     0.87529   0.40553   0.46375   0.00000  Uiso   1.00
C867   C     0.60216   0.33901   0.49589   0.00000  Uiso   1.00
C868   C     0.89067   0.17102   0.50035   0.00000  Uiso   1.00
C869   C     0.89832   0.33725   0.49852   0.00000  Uiso   1.00
C870   C     0.60378   0.16584   0.50356   0.00000  Uiso   1.00
C871   C     0.85216   0.08901   0.49589   0.00000  Uiso   1.00
C872   C     0.64067   0.42102   0.50035   0.00000  Uiso   1.00
C873   C     0.64832   0.08725   0.49852   0.00000  Uiso   1.00
C874   C     0.56375   0.30763   0.49911   0.00000  Uiso   1.00
C875   C     0.85378   0.41584   0.50356   0.00000  Uiso   1.00
C876   C     0.81406   0.44386   0.50081   0.00000  Uiso   1.00
C877   C     0.68628   0.05689   0.49948   0.00000  Uiso   1.00
C878   C     0.68517   0.44414   0.50030   0.00000  Uiso   1.00
C879   C     0.81375   0.05763   0.49911   0.00000  Uiso   1.00
C880   C     0.50612   0.28841   0.35615   0.00000  Uiso   1.00
H881   H     0.98497   0.33528   0.39747   0.00000  Uiso   1.00
H882   H     0.77166   0.10509   0.35849   0.00000  Uiso   1.00
H883   H     0.75433   0.41663   0.59760   0.00000  Uiso   1.00
H884   H     0.69826   0.42289   0.61252   0.00000  Uiso   1.00
H885   H     0.76499   0.40028   0.37449   0.00000  Uiso   1.00
H886   H     0.70798   0.40725   0.37690   0.00000  Uiso   1.00
H887   H     0.79558   0.09056   0.62239   0.00000  Uiso   1.00
H888   H     0.73832   0.10027   0.62360   0.00000  Uiso   1.00
H889   H     0.86389   0.25133   0.46560   0.00000  Uiso   1.00
H890   H     0.62688   0.33598   0.62503   0.00000  Uiso   1.00
H891   H     0.60636   0.28789   0.36255   0.00000  Uiso   1.00
H892   H     0.52166   0.35509   0.35849   0.00000  Uiso   1.00
H893   H     0.86092   0.17498   0.62413   0.00000  Uiso   1.00
H894   H     0.60134   0.23236   0.62070   0.00000  Uiso   1.00
H895   H     0.93106   0.37168   0.36154   0.00000  Uiso   1.00
H896   H     0.89591   0.24591   0.60109   0.00000  Uiso   1.00
H897   H     0.58663   0.18444   0.38673   0.00000  Uiso   1.00
H898   H     0.61389   0.00133   0.46560   0.00000  Uiso   1.00
H899   H     0.87689   0.08598   0.62503   0.00000  Uiso   1.00
H900   H     0.85636   0.03789   0.36255   0.00000  Uiso   1.00
H901   H     0.61092   0.42498   0.62413   0.00000  Uiso   1.00
H902   H     0.85134   0.48236   0.62070   0.00000  Uiso   1.00
H903   H     0.50433   0.16663   0.59760   0.00000  Uiso   1.00
H904   H     0.68106   0.12168   0.36154   0.00000  Uiso   1.00
H905   H     0.64591   0.49591   0.60109   0.00000  Uiso   1.00
H906   H     0.83663   0.43444   0.38673   0.00000  Uiso   1.00
H907   H     0.94826   0.17289   0.61252   0.00000  Uiso   1.00
H908   H     0.51499   0.15028   0.37449   0.00000  Uiso   1.00
H909   H     0.95798   0.15725   0.37690   0.00000  Uiso   1.00
H910   H     0.54558   0.34056   0.62239   0.00000  Uiso   1.00
H911   H     0.98832   0.35027   0.62360   0.00000  Uiso   1.00
H912   H     0.73497   0.08528   0.39747   0.00000  Uiso   1.00
N913   N     0.50000   0.25000   0.61907   0.00000  Uiso   1.00
N914   N     0.73196   0.42146   0.62409   0.00000  Uiso   1.00
N915   N     0.73960   0.42152   0.38468   0.00000  Uiso   1.00
N916   N     0.76316   0.07780   0.61498   0.00000  Uiso   1.00
N917   N     0.50000   0.25000   0.38093   0.00000  Uiso   1.00
N918   N     0.75000   0.00000   0.61907   0.00000  Uiso   1.00
N919   N     0.75000   0.00000   0.38093   0.00000  Uiso   1.00
N920   N     0.51439   0.32806   0.37977   0.00000  Uiso   1.00
N921   N     0.98196   0.17146   0.62409   0.00000  Uiso   1.00
N922   N     0.98960   0.17152   0.38468   0.00000  Uiso   1.00
N923   N     0.51316   0.32780   0.61498   0.00000  Uiso   1.00
N924   N     0.76439   0.07806   0.37977   0.00000  Uiso   1.00
O925   O     0.54581   0.20419   0.53821   0.00000  Uiso   1.00
O926   O     0.70420   0.04581   0.46179   0.00000  Uiso   1.00
O927   O     0.70420   0.04581   0.53821   0.00000  Uiso   1.00
O928   O     0.79581   0.45419   0.46179   0.00000  Uiso   1.00
O929   O     0.70420   0.45419   0.46179   0.00000  Uiso   1.00
O930   O     0.79581   0.04581   0.53821   0.00000  Uiso   1.00
O931   O     0.79581   0.04581   0.46179   0.00000  Uiso   1.00
O932   O     0.70420   0.45419   0.53821   0.00000  Uiso   1.00
O933   O     0.88912   0.21010   0.38606   0.00000  Uiso   1.00
O934   O     0.81123   0.18084   0.39611   0.00000  Uiso   1.00
O935   O     0.83717   0.24334   0.44697   0.00000  Uiso   1.00
O936   O     0.95420   0.29581   0.46179   0.00000  Uiso   1.00
O937   O     0.66735   0.27982   0.54001   0.00000  Uiso   1.00
O938   O     0.70696   0.34640   0.56330   0.00000  Uiso   1.00
O939   O     0.64613   0.31106   0.61717   0.00000  Uiso   1.00
O940   O     0.62446   0.37019   0.36609   0.00000  Uiso   1.00
O941   O     0.67788   0.32830   0.41275   0.00000  Uiso   1.00
O942   O     0.59987   0.29273   0.39463   0.00000  Uiso   1.00
O943   O     0.81520   0.21738   0.53992   0.00000  Uiso   1.00
O944   O     0.78289   0.14427   0.55089   0.00000  Uiso   1.00
O945   O     0.82781   0.17696   0.61730   0.00000  Uiso   1.00
O946   O     0.58513   0.14971   0.62917   0.00000  Uiso   1.00
O947   O     0.95420   0.29581   0.53821   0.00000  Uiso   1.00
O948   O     0.66662   0.16254   0.61268   0.00000  Uiso   1.00
O949   O     0.61081   0.22349   0.59041   0.00000  Uiso   1.00
O950   O     0.90045   0.29714   0.39791   0.00000  Uiso   1.00
O951   O     0.82865   0.33569   0.40083   0.00000  Uiso   1.00
O952   O     0.89763   0.37546   0.36370   0.00000  Uiso   1.00
O953   O     0.90407   0.32358   0.62449   0.00000  Uiso   1.00
O954   O     0.82379   0.31359   0.60334   0.00000  Uiso   1.00
O955   O     0.88301   0.26000   0.57349   0.00000  Uiso   1.00
O956   O     0.64663   0.24055   0.45322   0.00000  Uiso   1.00
O957   O     0.69399   0.18950   0.41334   0.00000  Uiso   1.00
O958   O     0.54581   0.20419   0.46179   0.00000  Uiso   1.00
O959   O     0.61269   0.20511   0.38191   0.00000  Uiso   1.00
O960   O     0.63912   0.46010   0.38606   0.00000  Uiso   1.00
O961   O     0.56123   0.43084   0.39611   0.00000  Uiso   1.00
O962   O     0.58717   0.49334   0.44697   0.00000  Uiso   1.00
O963   O     0.91735   0.02982   0.54001   0.00000  Uiso   1.00
O964   O     0.95696   0.09640   0.56330   0.00000  Uiso   1.00
O965   O     0.89613   0.06106   0.61717   0.00000  Uiso   1.00
O966   O     0.87446   0.12019   0.36609   0.00000  Uiso   1.00
O967   O     0.92788   0.07830   0.41275   0.00000  Uiso   1.00
O968   O     0.84987   0.04273   0.39463   0.00000  Uiso   1.00
O969   O     0.95420   0.20419   0.46179   0.00000  Uiso   1.00
O970   O     0.56520   0.46738   0.53992   0.00000  Uiso   1.00
O971   O     0.53289   0.39427   0.55089   0.00000  Uiso   1.00
O972   O     0.57781   0.42696   0.61730   0.00000  Uiso   1.00
O973   O     0.83513   0.39971   0.62917   0.00000  Uiso   1.00
O974   O     0.91662   0.41254   0.61268   0.00000  Uiso   1.00
O975   O     0.86081   0.47349   0.59041   0.00000  Uiso   1.00
O976   O     0.65045   0.04714   0.39791   0.00000  Uiso   1.00
O977   O     0.57865   0.08569   0.40083   0.00000  Uiso   1.00
O978   O     0.64763   0.12546   0.36370   0.00000  Uiso   1.00
O979   O     0.65407   0.07358   0.62449   0.00000  Uiso   1.00
O980   O     0.54581   0.29581   0.53821   0.00000  Uiso   1.00
O981   O     0.57379   0.06359   0.60334   0.00000  Uiso   1.00
O982   O     0.63301   0.01000   0.57349   0.00000  Uiso   1.00
O983   O     0.89663   0.49055   0.45322   0.00000  Uiso   1.00
O984   O     0.94399   0.43950   0.41334   0.00000  Uiso   1.00
O985   O     0.86269   0.45511   0.38191   0.00000  Uiso   1.00
O986   O     0.54581   0.29581   0.46179   0.00000  Uiso   1.00
O987   O     0.95420   0.20419   0.53821   0.00000  Uiso   1.00
O988   O     0.79581   0.45419   0.53821   0.00000  Uiso   1.00
S989   S     0.85262   0.19833   0.42011   0.00000  Uiso   1.00
S990   S     0.91179   0.07209   0.56368   0.00000  Uiso   1.00
S991   S     0.87825   0.08909   0.40605   0.00000  Uiso   1.00
S992   S     0.57363   0.42291   0.56119   0.00000  Uiso   1.00
S993   S     0.86874   0.41916   0.59554   0.00000  Uiso   1.00
S994   S     0.62972   0.09085   0.40520   0.00000  Uiso   1.00
S995   S     0.62240   0.06172   0.58699   0.00000  Uiso   1.00
S996   S     0.89592   0.44891   0.42780   0.00000  Uiso   1.00
S997   S     0.66179   0.32209   0.56368   0.00000  Uiso   1.00
S998   S     0.62825   0.33908   0.40605   0.00000  Uiso   1.00
S999   S     0.82363   0.17291   0.56119   0.00000  Uiso   1.00
S1000  S     0.61874   0.16917   0.59554   0.00000  Uiso   1.00
S1001  S     0.87972   0.34085   0.40520   0.00000  Uiso   1.00
S1002  S     0.87240   0.31172   0.58699   0.00000  Uiso   1.00
S1003  S     0.64592   0.19891   0.42780   0.00000  Uiso   1.00
S1004  S     0.60262   0.44832   0.42011   0.00000  Uiso   1.00
Zn1005 Zn    0.50000   0.25000   0.55104   0.00000  Uiso   1.00
Zn1006 Zn    0.50000   0.25000   0.44896   0.00000  Uiso   1.00
Zn1007 Zn    0.75000   0.00000   0.55104   0.00000  Uiso   1.00
Zn1008 Zn    0.75000   0.00000   0.44896   0.00000  Uiso   1.00
C1009  C     0.06406   0.69386   0.50081   0.00000  Uiso   1.00
C1010  C     0.49292   0.71191   0.64460   0.00000  Uiso   1.00
C1011  C     0.49437   0.71185   0.35899   0.00000  Uiso   1.00
C1012  C     0.00641   0.78820   0.64116   0.00000  Uiso   1.00
C1013  C     0.25612   0.53841   0.35615   0.00000  Uiso   1.00
C1014  C     0.24292   0.96191   0.64460   0.00000  Uiso   1.00
C1015  C     0.24437   0.96185   0.35899   0.00000  Uiso   1.00
C1016  C     0.25641   0.53820   0.64116   0.00000  Uiso   1.00
C1017  C     0.37268   0.65808   0.45922   0.00000  Uiso   1.00
C1018  C     0.12009   0.85442   0.53617   0.00000  Uiso   1.00
C1019  C     0.10895   0.86435   0.45546   0.00000  Uiso   1.00
C1020  C     0.43628   0.80689   0.49948   0.00000  Uiso   1.00
C1021  C     0.37408   0.64963   0.53939   0.00000  Uiso   1.00
C1022  C     0.11311   0.64200   0.54356   0.00000  Uiso   1.00
C1023  C     0.39098   0.86338   0.45887   0.00000  Uiso   1.00
C1024  C     0.38026   0.84982   0.54037   0.00000  Uiso   1.00
C1025  C     0.12529   0.65553   0.46375   0.00000  Uiso   1.00
C1026  C     0.12268   0.90808   0.45922   0.00000  Uiso   1.00
C1027  C     0.37009   0.60442   0.53617   0.00000  Uiso   1.00
C1028  C     0.35895   0.61435   0.45546   0.00000  Uiso   1.00
C1029  C     0.12408   0.89963   0.53939   0.00000  Uiso   1.00
C1030  C     0.36311   0.89200   0.54356   0.00000  Uiso   1.00
C1031  C     0.43517   0.69414   0.50030   0.00000  Uiso   1.00
C1032  C     0.14097   0.61338   0.45887   0.00000  Uiso   1.00
C1033  C     0.13026   0.59982   0.54037   0.00000  Uiso   1.00
C1034  C     0.37529   0.90553   0.46375   0.00000  Uiso   1.00
C1035  C     0.10216   0.83901   0.49589   0.00000  Uiso   1.00
C1036  C     0.39067   0.67102   0.50035   0.00000  Uiso   1.00
C1037  C     0.39832   0.83725   0.49852   0.00000  Uiso   1.00
C1038  C     0.10378   0.66584   0.50356   0.00000  Uiso   1.00
C1039  C     0.35216   0.58901   0.49589   0.00000  Uiso   1.00
C1040  C     0.14067   0.92102   0.50035   0.00000  Uiso   1.00
C1041  C     0.14832   0.58725   0.49852   0.00000  Uiso   1.00
C1042  C     0.06375   0.80763   0.49911   0.00000  Uiso   1.00
C1043  C     0.35378   0.91584   0.50356   0.00000  Uiso   1.00
C1044  C     0.31406   0.94386   0.50081   0.00000  Uiso   1.00
C1045  C     0.18628   0.55689   0.49948   0.00000  Uiso   1.00
C1046  C     0.18517   0.94414   0.50030   0.00000  Uiso   1.00
C1047  C     0.31375   0.55763   0.49911   0.00000  Uiso   1.00
C1048  C     0.00612   0.78841   0.35615   0.00000  Uiso   1.00
H1049  H     0.48497   0.83528   0.39747   0.00000  Uiso   1.00
H1050  H     0.27166   0.60509   0.35849   0.00000  Uiso   1.00
H1051  H     0.25433   0.91663   0.59760   0.00000  Uiso   1.00
H1052  H     0.19826   0.92289   0.61252   0.00000  Uiso   1.00
H1053  H     0.26499   0.90028   0.37449   0.00000  Uiso   1.00
H1054  H     0.20798   0.90725   0.37690   0.00000  Uiso   1.00
H1055  H     0.29558   0.59056   0.62239   0.00000  Uiso   1.00
H1056  H     0.23832   0.60027   0.62360   0.00000  Uiso   1.00
H1057  H     0.36389   0.75133   0.46560   0.00000  Uiso   1.00
H1058  H     0.12688   0.83598   0.62503   0.00000  Uiso   1.00
H1059  H     0.10636   0.78789   0.36255   0.00000  Uiso   1.00
H1060  H     0.02166   0.85509   0.35849   0.00000  Uiso   1.00
H1061  H     0.36092   0.67498   0.62413   0.00000  Uiso   1.00
H1062  H     0.10134   0.73236   0.62070   0.00000  Uiso   1.00
H1063  H     0.43106   0.87168   0.36154   0.00000  Uiso   1.00
H1064  H     0.39591   0.74591   0.60109   0.00000  Uiso   1.00
H1065  H     0.08663   0.68444   0.38673   0.00000  Uiso   1.00
H1066  H     0.11389   0.50133   0.46560   0.00000  Uiso   1.00
H1067  H     0.37689   0.58598   0.62503   0.00000  Uiso   1.00
H1068  H     0.35636   0.53789   0.36255   0.00000  Uiso   1.00
H1069  H     0.11092   0.92498   0.62413   0.00000  Uiso   1.00
H1070  H     0.35134   0.98236   0.62070   0.00000  Uiso   1.00
H1071  H     0.00433   0.66663   0.59760   0.00000  Uiso   1.00
H1072  H     0.18106   0.62168   0.36154   0.00000  Uiso   1.00
H1073  H     0.14591   0.99591   0.60109   0.00000  Uiso   1.00
H1074  H     0.33663   0.93444   0.38673   0.00000  Uiso   1.00
H1075  H     0.44826   0.67289   0.61252   0.00000  Uiso   1.00
H1076  H     0.01499   0.65028   0.37449   0.00000  Uiso   1.00
H1077  H     0.45798   0.65725   0.37690   0.00000  Uiso   1.00
H1078  H     0.04558   0.84056   0.62239   0.00000  Uiso   1.00
H1079  H     0.48832   0.85027   0.62360   0.00000  Uiso   1.00
H1080  H     0.23497   0.58528   0.39747   0.00000  Uiso   1.00
N1081  N     0.00000   0.75000   0.61907   0.00000  Uiso   1.00
N1082  N     0.23196   0.92146   0.62409   0.00000  Uiso   1.00
N1083  N     0.23960   0.92152   0.38468   0.00000  Uiso   1.00
N1084  N     0.26316   0.57780   0.61498   0.00000  Uiso   1.00
N1085  N     0.00000   0.75000   0.38093   0.00000  Uiso   1.00
N1086  N     0.25000   0.50000   0.61907   0.00000  Uiso   1.00
N1087  N     0.25000   0.50000   0.38093   0.00000  Uiso   1.00
N1088  N     0.01439   0.82806   0.37977   0.00000  Uiso   1.00
N1089  N     0.48196   0.67146   0.62409   0.00000  Uiso   1.00
N1090  N     0.48960   0.67152   0.38468   0.00000  Uiso   1.00
N1091  N     0.01316   0.82780   0.61498   0.00000  Uiso   1.00
N1092  N     0.26439   0.57806   0.37977   0.00000  Uiso   1.00
O1093  O     0.04581   0.70419   0.53821   0.00000  Uiso   1.00
O1094  O     0.20420   0.54581   0.46179   0.00000  Uiso   1.00
O1095  O     0.20420   0.54581   0.53821   0.00000  Uiso   1.00
O1096  O     0.29581   0.95419   0.46179   0.00000  Uiso   1.00
O1097  O     0.20420   0.95419   0.46179   0.00000  Uiso   1.00
O1098  O     0.29581   0.54581   0.53821   0.00000  Uiso   1.00
O1099  O     0.29581   0.54581   0.46179   0.00000  Uiso   1.00
O1100  O     0.20420   0.95419   0.53821   0.00000  Uiso   1.00
O1101  O     0.38912   0.71010   0.38606   0.00000  Uiso   1.00
O1102  O     0.31123   0.68084   0.39611   0.00000  Uiso   1.00
O1103  O     0.33717   0.74334   0.44697   0.00000  Uiso   1.00
O1104  O     0.45420   0.79581   0.46179   0.00000  Uiso   1.00
O1105  O     0.16735   0.77982   0.54001   0.00000  Uiso   1.00
O1106  O     0.20696   0.84640   0.56330   0.00000  Uiso   1.00
O1107  O     0.14613   0.81106   0.61717   0.00000  Uiso   1.00
O1108  O     0.12446   0.87019   0.36609   0.00000  Uiso   1.00
O1109  O     0.17788   0.82830   0.41275   0.00000  Uiso   1.00
O1110  O     0.09987   0.79273   0.39463   0.00000  Uiso   1.00
O1111  O     0.31520   0.71738   0.53992   0.00000  Uiso   1.00
O1112  O     0.28289   0.64427   0.55089   0.00000  Uiso   1.00
O1113  O     0.32781   0.67696   0.61730   0.00000  Uiso   1.00
O1114  O     0.08513   0.64971   0.62917   0.00000  Uiso   1.00
O1115  O     0.45420   0.79581   0.53821   0.00000  Uiso   1.00
O1116  O     0.16662   0.66254   0.61268   0.00000  Uiso   1.00
O1117  O     0.11081   0.72349   0.59041   0.00000  Uiso   1.00
O1118  O     0.40045   0.79714   0.39791   0.00000  Uiso   1.00
O1119  O     0.32865   0.83569   0.40083   0.00000  Uiso   1.00
O1120  O     0.39763   0.87546   0.36370   0.00000  Uiso   1.00
O1121  O     0.40407   0.82358   0.62449   0.00000  Uiso   1.00
O1122  O     0.32379   0.81359   0.60334   0.00000  Uiso   1.00
O1123  O     0.38301   0.76000   0.57349   0.00000  Uiso   1.00
O1124  O     0.14663   0.74055   0.45322   0.00000  Uiso   1.00
O1125  O     0.19399   0.68950   0.41334   0.00000  Uiso   1.00
O1126  O     0.04581   0.70419   0.46179   0.00000  Uiso   1.00
O1127  O     0.11269   0.70511   0.38191   0.00000  Uiso   1.00
O1128  O     0.13912   0.96010   0.38606   0.00000  Uiso   1.00
O1129  O     0.06123   0.93084   0.39611   0.00000  Uiso   1.00
O1130  O     0.08717   0.99334   0.44697   0.00000  Uiso   1.00
O1131  O     0.41735   0.52982   0.54001   0.00000  Uiso   1.00
O1132  O     0.45696   0.59640   0.56330   0.00000  Uiso   1.00
O1133  O     0.39613   0.56106   0.61717   0.00000  Uiso   1.00
O1134  O     0.37446   0.62019   0.36609   0.00000  Uiso   1.00
O1135  O     0.42788   0.57830   0.41275   0.00000  Uiso   1.00
O1136  O     0.34987   0.54273   0.39463   0.00000  Uiso   1.00
O1137  O     0.45420   0.70419   0.46179   0.00000  Uiso   1.00
O1138  O     0.06520   0.96738   0.53992   0.00000  Uiso   1.00
O1139  O     0.03289   0.89427   0.55089   0.00000  Uiso   1.00
O1140  O     0.07781   0.92696   0.61730   0.00000  Uiso   1.00
O1141  O     0.33513   0.89971   0.62917   0.00000  Uiso   1.00
O1142  O     0.41662   0.91254   0.61268   0.00000  Uiso   1.00
O1143  O     0.36081   0.97349   0.59041   0.00000  Uiso   1.00
O1144  O     0.15045   0.54714   0.39791   0.00000  Uiso   1.00
O1145  O     0.07865   0.58569   0.40083   0.00000  Uiso   1.00
O1146  O     0.14763   0.62546   0.36370   0.00000  Uiso   1.00
O1147  O     0.15407   0.57358   0.62449   0.00000  Uiso   1.00
O1148  O     0.04581   0.79581   0.53821   0.00000  Uiso   1.00
O1149  O     0.07379   0.56359   0.60334   0.00000  Uiso   1.00
O1150  O     0.13301   0.51000   0.57349   0.00000  Uiso   1.00
O1151  O     0.39663   0.99055   0.45322   0.00000  Uiso   1.00
O1152  O     0.44399   0.93950   0.41334   0.00000  Uiso   1.00
O1153  O     0.36269   0.95511   0.38191   0.00000  Uiso   1.00
O1154  O     0.04581   0.79581   0.46179   0.00000  Uiso   1.00
O1155  O     0.45420   0.70419   0.53821   0.00000  Uiso   1.00
O1156  O     0.29581   0.95419   0.53821   0.00000  Uiso   1.00
S1157  S     0.35262   0.69833   0.42011   0.00000  Uiso   1.00
S1158  S     0.41179   0.57209   0.56368   0.00000  Uiso   1.00
S1159  S     0.37825   0.58909   0.40605   0.00000  Uiso   1.00
S1160  S     0.07363   0.92291   0.56119   0.00000  Uiso   1.00
S1161  S     0.36874   0.91916   0.59554   0.00000  Uiso   1.00
S1162  S     0.12972   0.59085   0.40520   0.00000  Uiso   1.00
S1163  S     0.12240   0.56172   0.58699   0.00000  Uiso   1.00
S1164  S     0.39592   0.94891   0.42780   0.00000  Uiso   1.00
S1165  S     0.16179   0.82209   0.56368   0.00000  Uiso   1.00
S1166  S     0.12825   0.83908   0.40605   0.00000  Uiso   1.00
S1167  S     0.32363   0.67291   0.56119   0.00000  Uiso   1.00
S1168  S     0.11874   0.66917   0.59554   0.00000  Uiso   1.00
S1169  S     0.37972   0.84085   0.40520   0.00000  Uiso   1.00
S1170  S     0.37240   0.81172   0.58699   0.00000  Uiso   1.00
S1171  S     0.14592   0.69891   0.42780   0.00000  Uiso   1.00
S1172  S     0.10262   0.94832   0.42011   0.00000  Uiso   1.00
Zn1173 Zn    0.00000   0.75000   0.55104   0.00000  Uiso   1.00
Zn1174 Zn    0.00000   0.75000   0.44896   0.00000  Uiso   1.00
Zn1175 Zn    0.25000   0.50000   0.55104   0.00000  Uiso   1.00
Zn1176 Zn    0.25000   0.50000   0.44896   0.00000  Uiso   1.00
C1177  C     0.56406   0.69386   0.50081   0.00000  Uiso   1.00
C1178  C     0.99292   0.71191   0.64460   0.00000  Uiso   1.00
C1179  C     0.99437   0.71185   0.35899   0.00000  Uiso   1.00
C1180  C     0.50641   0.78820   0.64116   0.00000  Uiso   1.00
C1181  C     0.75612   0.53841   0.35615   0.00000  Uiso   1.00
C1182  C     0.74292   0.96191   0.64460   0.00000  Uiso   1.00
C1183  C     0.74437   0.96185   0.35899   0.00000  Uiso   1.00
C1184  C     0.75641   0.53820   0.64116   0.00000  Uiso   1.00
C1185  C     0.87268   0.65808   0.45922   0.00000  Uiso   1.00
C1186  C     0.62009   0.85442   0.53617   0.00000  Uiso   1.00
C1187  C     0.60895   0.86435   0.45546   0.00000  Uiso   1.00
C1188  C     0.93628   0.80689   0.49948   0.00000  Uiso   1.00
C1189  C     0.87408   0.64963   0.53939   0.00000  Uiso   1.00
C1190  C     0.61311   0.64200   0.54356   0.00000  Uiso   1.00
C1191  C     0.89098   0.86338   0.45887   0.00000  Uiso   1.00
C1192  C     0.88026   0.84982   0.54037   0.00000  Uiso   1.00
C1193  C     0.62529   0.65553   0.46375   0.00000  Uiso   1.00
C1194  C     0.62268   0.90808   0.45922   0.00000  Uiso   1.00
C1195  C     0.87009   0.60442   0.53617   0.00000  Uiso   1.00
C1196  C     0.85895   0.61435   0.45546   0.00000  Uiso   1.00
C1197  C     0.62408   0.89963   0.53939   0.00000  Uiso   1.00
C1198  C     0.86311   0.89200   0.54356   0.00000  Uiso   1.00
C1199  C     0.93517   0.69414   0.50030   0.00000  Uiso   1.00
C1200  C     0.64097   0.61338   0.45887   0.00000  Uiso   1.00
C1201  C     0.63026   0.59982   0.54037   0.00000  Uiso   1.00
C1202  C     0.87529   0.90553   0.46375   0.00000  Uiso   1.00
C1203  C     0.60216   0.83901   0.49589   0.00000  Uiso   1.00
C1204  C     0.89067   0.67102   0.50035   0.00000  Uiso   1.00
C1205  C     0.89832   0.83725   0.49852   0.00000  Uiso   1.00
C1206  C     0.60378   0.66584   0.50356   0.00000  Uiso   1.00
C1207  C     0.85216   0.58901   0.49589   0.00000  Uiso   1.00
C1208  C     0.64067   0.92102   0.50035   0.00000  Uiso   1.00
C1209  C     0.64832   0.58725   0.49852   0.00000  Uiso   1.00
C1210  C     0.56375   0.80763   0.49911   0.00000  Uiso   1.00
C1211  C     0.85378   0.91584   0.50356   0.00000  Uiso   1.00
C1212  C     0.81406   0.94386   0.50081   0.00000  Uiso   1.00
C1213  C     0.68628   0.55689   0.49948   0.00000  Uiso   1.00
C1214  C     0.68517   0.94414   0.50030   0.00000  Uiso   1.00
C1215  C     0.81375   0.55763   0.49911   0.00000  Uiso   1.00
C1216  C     0.50612   0.78841   0.35615   0.00000  Uiso   1.00
H1217  H     0.98497   0.83528   0.39747   0.00000  Uiso   1.00
H1218  H     0.77166   0.60509   0.35849   0.00000  Uiso   1.00
H1219  H     0.75433   0.91663   0.59760   0.00000  Uiso   1.00
H1220  H     0.69826   0.92289   0.61252   0.00000  Uiso   1.00
H1221  H     0.76499   0.90028   0.37449   0.00000  Uiso   1.00
H1222  H     0.70798   0.90725   0.37690   0.00000  Uiso   1.00
H1223  H     0.79558   0.59056   0.62239   0.00000  Uiso   1.00
H1224  H     0.73832   0.60027   0.62360   0.00000  Uiso   1.00
H1225  H     0.86389   0.75133   0.46560   0.00000  Uiso   1.00
H1226  H     0.62688   0.83598   0.62503   0.00000  Uiso   1.00
H1227  H     0.60636   0.78789   0.36255   0.00000  Uiso   1.00
H1228  H     0.52166   0.85509   0.35849   0.00000  Uiso   1.00
H1229  H     0.86092   0.67498   0.62413   0.00000  Uiso   1.00
H1230  H     0.60134   0.73236   0.62070   0.00000  Uiso   1.00
H1231  H     0.93106   0.87168   0.36154   0.00000  Uiso   1.00
H1232  H     0.89591   0.74591   0.60109   0.00000  Uiso   1.00
H1233  H     0.58663   0.68444   0.38673   0.00000  Uiso   1.00
H1234  H     0.61389   0.50133   0.46560   0.00000  Uiso   1.00
H1235  H     0.87689   0.58598   0.62503   0.00000  Uiso   1.00
H1236  H     0.85636   0.53789   0.36255   0.00000  Uiso   1.00
H1237  H     0.61092   0.92498   0.62413   0.00000  Uiso   1.00
H1238  H     0.85134   0.98236   0.62070   0.00000  Uiso   1.00
H1239  H     0.50433   0.66663   0.59760   0.00000  Uiso   1.00
H1240  H     0.68106   0.62168   0.36154   0.00000  Uiso   1.00
H1241  H     0.64591   0.99591   0.60109   0.00000  Uiso   1.00
H1242  H     0.83663   0.93444   0.38673   0.00000  Uiso   1.00
H1243  H     0.94826   0.67289   0.61252   0.00000  Uiso   1.00
H1244  H     0.51499   0.65028   0.37449   0.00000  Uiso   1.00
H1245  H     0.95798   0.65725   0.37690   0.00000  Uiso   1.00
H1246  H     0.54558   0.84056   0.62239   0.00000  Uiso   1.00
H1247  H     0.98832   0.85027   0.62360   0.00000  Uiso   1.00
H1248  H     0.73497   0.58528   0.39747   0.00000  Uiso   1.00
N1249  N     0.50000   0.75000   0.61907   0.00000  Uiso   1.00
N1250  N     0.73196   0.92146   0.62409   0.00000  Uiso   1.00
N1251  N     0.73960   0.92152   0.38468   0.00000  Uiso   1.00
N1252  N     0.76316   0.57780   0.61498   0.00000  Uiso   1.00
N1253  N     0.50000   0.75000   0.38093   0.00000  Uiso   1.00
N1254  N     0.75000   0.50000   0.61907   0.00000  Uiso   1.00
N1255  N     0.75000   0.50000   0.38093   0.00000  Uiso   1.00
N1256  N     0.51439   0.82806   0.37977   0.00000  Uiso   1.00
N1257  N     0.98196   0.67146   0.62409   0.00000  Uiso   1.00
N1258  N     0.98960   0.67152   0.38468   0.00000  Uiso   1.00
N1259  N     0.51316   0.82780   0.61498   0.00000  Uiso   1.00
N1260  N     0.76439   0.57806   0.37977   0.00000  Uiso   1.00
O1261  O     0.54581   0.70419   0.53821   0.00000  Uiso   1.00
O1262  O     0.70420   0.54581   0.46179   0.00000  Uiso   1.00
O1263  O     0.70420   0.54581   0.53821   0.00000  Uiso   1.00
O1264  O     0.79581   0.95419   0.46179   0.00000  Uiso   1.00
O1265  O     0.70420   0.95419   0.46179   0.00000  Uiso   1.00
O1266  O     0.79581   0.54581   0.53821   0.00000  Uiso   1.00
O1267  O     0.79581   0.54581   0.46179   0.00000  Uiso   1.00
O1268  O     0.70420   0.95419   0.53821   0.00000  Uiso   1.00
O1269  O     0.88912   0.71010   0.38606   0.00000  Uiso   1.00
O1270  O     0.81123   0.68084   0.39611   0.00000  Uiso   1.00
O1271  O     0.83717   0.74334   0.44697   0.00000  Uiso   1.00
O1272  O     0.95420   0.79581   0.46179   0.00000  Uiso   1.00
O1273  O     0.66735   0.77982   0.54001   0.00000  Uiso   1.00
O1274  O     0.70696   0.84640   0.56330   0.00000  Uiso   1.00
O1275  O     0.64613   0.81106   0.61717   0.00000  Uiso   1.00
O1276  O     0.62446   0.87019   0.36609   0.00000  Uiso   1.00
O1277  O     0.67788   0.82830   0.41275   0.00000  Uiso   1.00
O1278  O     0.59987   0.79273   0.39463   0.00000  Uiso   1.00
O1279  O     0.81520   0.71738   0.53992   0.00000  Uiso   1.00
O1280  O     0.78289   0.64427   0.55089   0.00000  Uiso   1.00
O1281  O     0.82781   0.67696   0.61730   0.00000  Uiso   1.00
O1282  O     0.58513   0.64971   0.62917   0.00000  Uiso   1.00
O1283  O     0.95420   0.79581   0.53821   0.00000  Uiso   1.00
O1284  O     0.66662   0.66254   0.61268   0.00000  Uiso   1.00
O1285  O     0.61081   0.72349   0.59041   0.00000  Uiso   1.00
O1286  O     0.90045   0.79714   0.39791   0.00000  Uiso   1.00
O1287  O     0.82865   0.83569   0.40083   0.00000  Uiso   1.00
O1288  O     0.89763   0.87546   0.36370   0.00000  Uiso   1.00
O1289  O     0.90407   0.82358   0.62449   0.00000  Uiso   1.00
O1290  O     0.82379   0.81359   0.60334   0.00000  Uiso   1.00
O1291  O     0.88301   0.76000   0.57349   0.00000  Uiso   1.00
O1292  O     0.64663   0.74055   0.45322   0.00000  Uiso   1.00
O1293  O     0.69399   0.68950   0.41334   0.00000  Uiso   1.00
O1294  O     0.54581   0.70419   0.46179   0.00000  Uiso   1.00
O1295  O     0.61269   0.70511   0.38191   0.00000  Uiso   1.00
O1296  O     0.63912   0.96010   0.38606   0.00000  Uiso   1.00
O1297  O     0.56123   0.93084   0.39611   0.00000  Uiso   1.00
O1298  O     0.58717   0.99334   0.44697   0.00000  Uiso   1.00
O1299  O     0.91735   0.52982   0.54001   0.00000  Uiso   1.00
O1300  O     0.95696   0.59640   0.56330   0.00000  Uiso   1.00
O1301  O     0.89613   0.56106   0.61717   0.00000  Uiso   1.00
O1302  O     0.87446   0.62019   0.36609   0.00000  Uiso   1.00
O1303  O     0.92788   0.57830   0.41275   0.00000  Uiso   1.00
O1304  O     0.84987   0.54273   0.39463   0.00000  Uiso   1.00
O1305  O     0.95420   0.70419   0.46179   0.00000  Uiso   1.00
O1306  O     0.56520   0.96738   0.53992   0.00000  Uiso   1.00
O1307  O     0.53289   0.89427   0.55089   0.00000  Uiso   1.00
O1308  O     0.57781   0.92696   0.61730   0.00000  Uiso   1.00
O1309  O     0.83513   0.89971   0.62917   0.00000  Uiso   1.00
O1310  O     0.91662   0.91254   0.61268   0.00000  Uiso   1.00
O1311  O     0.86081   0.97349   0.59041   0.00000  Uiso   1.00
O1312  O     0.65045   0.54714   0.39791   0.00000  Uiso   1.00
O1313  O     0.57865   0.58569   0.40083   0.00000  Uiso   1.00
O1314  O     0.64763   0.62546   0.36370   0.00000  Uiso   1.00
O1315  O     0.65407   0.57358   0.62449   0.00000  Uiso   1.00
O1316  O     0.54581   0.79581   0.53821   0.00000  Uiso   1.00
O1317  O     0.57379   0.56359   0.60334   0.00000  Uiso   1.00
O1318  O     0.63301   0.51000   0.57349   0.00000  Uiso   1.00
O1319  O     0.89663   0.99055   0.45322   0.00000  Uiso   1.00
O1320  O     0.94399   0.93950   0.41334   0.00000  Uiso   1.00
O1321  O     0.86269   0.95511   0.38191   0.00000  Uiso   1.00
O1322  O     0.54581   0.79581   0.46179   0.00000  Uiso   1.00
O1323  O     0.95420   0.70419   0.53821   0.00000  Uiso   1.00
O1324  O     0.79581   0.95419   0.53821   0.00000  Uiso   1.00
S1325  S     0.85262   0.69833   0.42011   0.00000  Uiso   1.00
S1326  S     0.91179   0.57209   0.56368   0.00000  Uiso   1.00
S1327  S     0.87825   0.58909   0.40605   0.00000  Uiso   1.00
S1328  S     0.57363   0.92291   0.56119   0.00000  Uiso   1.00
S1329  S     0.86874   0.91916   0.59554   0.00000  Uiso   1.00
S1330  S     0.62972   0.59085   0.40520   0.00000  Uiso   1.00
S1331  S     0.62240   0.56172   0.58699   0.00000  Uiso   1.00
S1332  S     0.89592   0.94891   0.42780   0.00000  Uiso   1.00
S1333  S     0.66179   0.82209   0.56368   0.00000  Uiso   1.00
S1334  S     0.62825   0.83908   0.40605   0.00000  Uiso   1.00
S1335  S     0.82363   0.67291   0.56119   0.00000  Uiso   1.00
S1336  S     0.61874   0.66917   0.59554   0.00000  Uiso   1.00
S1337  S     0.87972   0.84085   0.40520   0.00000  Uiso   1.00
S1338  S     0.87240   0.81172   0.58699   0.00000  Uiso   1.00
S1339  S     0.64592   0.69891   0.42780   0.00000  Uiso   1.00
S1340  S     0.60262   0.94832   0.42011   0.00000  Uiso   1.00
Zn1341 Zn    0.50000   0.75000   0.55104   0.00000  Uiso   1.00
Zn1342 Zn    0.50000   0.75000   0.44896   0.00000  Uiso   1.00
Zn1343 Zn    0.75000   0.50000   0.55104   0.00000  Uiso   1.00
Zn1344 Zn    0.75000   0.50000   0.44896   0.00000  Uiso   1.00
C1345  C     0.06406   0.19386   0.83414   0.00000  Uiso   1.00
C1346  C     0.49292   0.21191   0.97793   0.00000  Uiso   1.00
C1347  C     0.49437   0.21185   0.69232   0.00000  Uiso   1.00
C1348  C     0.00641   0.28820   0.97449   0.00000  Uiso   1.00
C1349  C     0.25612   0.03841   0.68948   0.00000  Uiso   1.00
C1350  C     0.24292   0.46191   0.97793   0.00000  Uiso   1.00
C1351  C     0.24437   0.46185   0.69232   0.00000  Uiso   1.00
C1352  C     0.25641   0.03820   0.97449   0.00000  Uiso   1.00
C1353  C     0.37268   0.15808   0.79256   0.00000  Uiso   1.00
C1354  C     0.12009   0.35442   0.86951   0.00000  Uiso   1.00
C1355  C     0.10895   0.36435   0.78879   0.00000  Uiso   1.00
C1356  C     0.43628   0.30689   0.83281   0.00000  Uiso   1.00
C1357  C     0.37408   0.14963   0.87272   0.00000  Uiso   1.00
C1358  C     0.11311   0.14200   0.87690   0.00000  Uiso   1.00
C1359  C     0.39098   0.36338   0.79221   0.00000  Uiso   1.00
C1360  C     0.38026   0.34982   0.87370   0.00000  Uiso   1.00
C1361  C     0.12529   0.15553   0.79708   0.00000  Uiso   1.00
C1362  C     0.12268   0.40808   0.79256   0.00000  Uiso   1.00
C1363  C     0.37009   0.10442   0.86951   0.00000  Uiso   1.00
C1364  C     0.35895   0.11435   0.78879   0.00000  Uiso   1.00
C1365  C     0.12408   0.39963   0.87272   0.00000  Uiso   1.00
C1366  C     0.36311   0.39200   0.87690   0.00000  Uiso   1.00
C1367  C     0.43517   0.19414   0.83364   0.00000  Uiso   1.00
C1368  C     0.14097   0.11338   0.79221   0.00000  Uiso   1.00
C1369  C     0.13026   0.09982   0.87370   0.00000  Uiso   1.00
C1370  C     0.37529   0.40553   0.79708   0.00000  Uiso   1.00
C1371  C     0.10216   0.33901   0.82923   0.00000  Uiso   1.00
C1372  C     0.39067   0.17102   0.83368   0.00000  Uiso   1.00
C1373  C     0.39832   0.33725   0.83185   0.00000  Uiso   1.00
C1374  C     0.10378   0.16584   0.83689   0.00000  Uiso   1.00
C1375  C     0.35216   0.08901   0.82923   0.00000  Uiso   1.00
C1376  C     0.14067   0.42102   0.83368   0.00000  Uiso   1.00
C1377  C     0.14832   0.08725   0.83185   0.00000  Uiso   1.00
C1378  C     0.06375   0.30763   0.83244   0.00000  Uiso   1.00
C1379  C     0.35378   0.41584   0.83689   0.00000  Uiso   1.00
C1380  C     0.31406   0.44386   0.83414   0.00000  Uiso   1.00
C1381  C     0.18628   0.05689   0.83281   0.00000  Uiso   1.00
C1382  C     0.18517   0.44414   0.83364   0.00000  Uiso   1.00
C1383  C     0.31375   0.05763   0.83244   0.00000  Uiso   1.00
C1384  C     0.00612   0.28841   0.68948   0.00000  Uiso   1.00
H1385  H     0.48497   0.33528   0.73080   0.00000  Uiso   1.00
H1386  H     0.27166   0.10509   0.69183   0.00000  Uiso   1.00
H1387  H     0.25433   0.41663   0.93094   0.00000  Uiso   1.00
H1388  H     0.19826   0.42289   0.94585   0.00000  Uiso   1.00
H1389  H     0.26499   0.40028   0.70782   0.00000  Uiso   1.00
H1390  H     0.20798   0.40725   0.71023   0.00000  Uiso   1.00
H1391  H     0.29558   0.09056   0.95572   0.00000  Uiso   1.00
H1392  H     0.23832   0.10027   0.95694   0.00000  Uiso   1.00
H1393  H     0.36389   0.25133   0.79893   0.00000  Uiso   1.00
H1394  H     0.12688   0.33598   0.95837   0.00000  Uiso   1.00
H1395  H     0.10636   0.28789   0.69588   0.00000  Uiso   1.00
H1396  H     0.02166   0.35509   0.69183   0.00000  Uiso   1.00
H1397  H     0.36092   0.17498   0.95746   0.00000  Uiso   1.00
H1398  H     0.10134   0.23236   0.95403   0.00000  Uiso   1.00
H1399  H     0.43106   0.37168   0.69487   0.00000  Uiso   1.00
H1400  H     0.39591   0.24591   0.93442   0.00000  Uiso   1.00
H1401  H     0.08663   0.18444   0.72006   0.00000  Uiso   1.00
H1402  H     0.11389   0.00133   0.79893   0.00000  Uiso   1.00
H1403  H     0.37689   0.08598   0.95837   0.00000  Uiso   1.00
H1404  H     0.35636   0.03789   0.69588   0.00000  Uiso   1.00
H1405  H     0.11092   0.42498   0.95746   0.00000  Uiso   1.00
H1406  H     0.35134   0.48236   0.95403   0.00000  Uiso   1.00
H1407  H     0.00433   0.16663   0.93094   0.00000  Uiso   1.00
H1408  H     0.18106   0.12168   0.69487   0.00000  Uiso   1.00
H1409  H     0.14591   0.49591   0.93442   0.00000  Uiso   1.00
H1410  H     0.33663   0.43444   0.72006   0.00000  Uiso   1.00
H1411  H     0.44826   0.17289   0.94585   0.00000  Uiso   1.00
H1412  H     0.01499   0.15028   0.70782   0.00000  Uiso   1.00
H1413  H     0.45798   0.15725   0.71023   0.00000  Uiso   1.00
H1414  H     0.04558   0.34056   0.95572   0.00000  Uiso   1.00
H1415  H     0.48832   0.35027   0.95694   0.00000  Uiso   1.00
H1416  H     0.23497   0.08528   0.73080   0.00000  Uiso   1.00
N1417  N     0.00000   0.25000   0.95240   0.00000  Uiso   1.00
N1418  N     0.23196   0.42146   0.95742   0.00000  Uiso   1.00
N1419  N     0.23960   0.42152   0.71801   0.00000  Uiso   1.00
N1420  N     0.26316   0.07780   0.94832   0.00000  Uiso   1.00
N1421  N     0.00000   0.25000   0.71427   0.00000  Uiso   1.00
N1422  N     0.25000   0.00000   0.95240   0.00000  Uiso   1.00
N1423  N     0.25000   0.00000   0.71427   0.00000  Uiso   1.00
N1424  N     0.01439   0.32806   0.71310   0.00000  Uiso   1.00
N1425  N     0.48196   0.17146   0.95742   0.00000  Uiso   1.00
N1426  N     0.48960   0.17152   0.71801   0.00000  Uiso   1.00
N1427  N     0.01316   0.32780   0.94832   0.00000  Uiso   1.00
N1428  N     0.26439   0.07806   0.71310   0.00000  Uiso   1.00
O1429  O     0.04581   0.20419   0.87154   0.00000  Uiso   1.00
O1430  O     0.20420   0.04581   0.79513   0.00000  Uiso   1.00
O1431  O     0.20420   0.04581   0.87154   0.00000  Uiso   1.00
O1432  O     0.29581   0.45419   0.79513   0.00000  Uiso   1.00
O1433  O     0.20420   0.45419   0.79513   0.00000  Uiso   1.00
O1434  O     0.29581   0.04581   0.87154   0.00000  Uiso   1.00
O1435  O     0.29581   0.04581   0.79513   0.00000  Uiso   1.00
O1436  O     0.20420   0.45419   0.87154   0.00000  Uiso   1.00
O1437  O     0.38912   0.21010   0.71939   0.00000  Uiso   1.00
O1438  O     0.31123   0.18084   0.72944   0.00000  Uiso   1.00
O1439  O     0.33717   0.24334   0.78030   0.00000  Uiso   1.00
O1440  O     0.45420   0.29581   0.79513   0.00000  Uiso   1.00
O1441  O     0.16735   0.27982   0.87334   0.00000  Uiso   1.00
O1442  O     0.20696   0.34640   0.89663   0.00000  Uiso   1.00
O1443  O     0.14613   0.31106   0.95050   0.00000  Uiso   1.00
O1444  O     0.12446   0.37019   0.69942   0.00000  Uiso   1.00
O1445  O     0.17788   0.32830   0.74608   0.00000  Uiso   1.00
O1446  O     0.09987   0.29273   0.72796   0.00000  Uiso   1.00
O1447  O     0.31520   0.21738   0.87326   0.00000  Uiso   1.00
O1448  O     0.28289   0.14427   0.88423   0.00000  Uiso   1.00
O1449  O     0.32781   0.17696   0.95063   0.00000  Uiso   1.00
O1450  O     0.08513   0.14971   0.96250   0.00000  Uiso   1.00
O1451  O     0.45420   0.29581   0.87154   0.00000  Uiso   1.00
O1452  O     0.16662   0.16254   0.94602   0.00000  Uiso   1.00
O1453  O     0.11081   0.22349   0.92375   0.00000  Uiso   1.00
O1454  O     0.40045   0.29714   0.73124   0.00000  Uiso   1.00
O1455  O     0.32865   0.33569   0.73416   0.00000  Uiso   1.00
O1456  O     0.39763   0.37546   0.69703   0.00000  Uiso   1.00
O1457  O     0.40407   0.32358   0.95782   0.00000  Uiso   1.00
O1458  O     0.32379   0.31359   0.93668   0.00000  Uiso   1.00
O1459  O     0.38301   0.26000   0.90683   0.00000  Uiso   1.00
O1460  O     0.14663   0.24055   0.78655   0.00000  Uiso   1.00
O1461  O     0.19399   0.18950   0.74667   0.00000  Uiso   1.00
O1462  O     0.04581   0.20419   0.79513   0.00000  Uiso   1.00
O1463  O     0.11269   0.20511   0.71524   0.00000  Uiso   1.00
O1464  O     0.13912   0.46010   0.71939   0.00000  Uiso   1.00
O1465  O     0.06123   0.43084   0.72944   0.00000  Uiso   1.00
O1466  O     0.08717   0.49334   0.78030   0.00000  Uiso   1.00
O1467  O     0.41735   0.02982   0.87334   0.00000  Uiso   1.00
O1468  O     0.45696   0.09640   0.89664   0.00000  Uiso   1.00
O1469  O     0.39613   0.06106   0.95050   0.00000  Uiso   1.00
O1470  O     0.37446   0.12019   0.69942   0.00000  Uiso   1.00
O1471  O     0.42788   0.07830   0.74608   0.00000  Uiso   1.00
O1472  O     0.34987   0.04273   0.72797   0.00000  Uiso   1.00
O1473  O     0.45420   0.20419   0.79513   0.00000  Uiso   1.00
O1474  O     0.06520   0.46738   0.87326   0.00000  Uiso   1.00
O1475  O     0.03289   0.39427   0.88422   0.00000  Uiso   1.00
O1476  O     0.07781   0.42696   0.95063   0.00000  Uiso   1.00
O1477  O     0.33513   0.39971   0.96250   0.00000  Uiso   1.00
O1478  O     0.41662   0.41254   0.94602   0.00000  Uiso   1.00
O1479  O     0.36081   0.47349   0.92375   0.00000  Uiso   1.00
O1480  O     0.15045   0.04714   0.73124   0.00000  Uiso   1.00
O1481  O     0.07865   0.08569   0.73416   0.00000  Uiso   1.00
O1482  O     0.14763   0.12546   0.69703   0.00000  Uiso   1.00
O1483  O     0.15407   0.07358   0.95782   0.00000  Uiso   1.00
O1484  O     0.04581   0.29581   0.87154   0.00000  Uiso   1.00
O1485  O     0.07379   0.06359   0.93668   0.00000  Uiso   1.00
O1486  O     0.13301   0.01000   0.90683   0.00000  Uiso   1.00
O1487  O     0.39663   0.49055   0.78655   0.00000  Uiso   1.00
O1488  O     0.44399   0.43950   0.74667   0.00000  Uiso   1.00
O1489  O     0.36269   0.45511   0.71524   0.00000  Uiso   1.00
O1490  O     0.04581   0.29581   0.79513   0.00000  Uiso   1.00
O1491  O     0.45420   0.20419   0.87154   0.00000  Uiso   1.00
O1492  O     0.29581   0.45419   0.87154   0.00000  Uiso   1.00
S1493  S     0.35262   0.19833   0.75344   0.00000  Uiso   1.00
S1494  S     0.41179   0.07209   0.89701   0.00000  Uiso   1.00
S1495  S     0.37825   0.08909   0.73938   0.00000  Uiso   1.00
S1496  S     0.07363   0.42291   0.89452   0.00000  Uiso   1.00
S1497  S     0.36874   0.41916   0.92887   0.00000  Uiso   1.00
S1498  S     0.12972   0.09085   0.73853   0.00000  Uiso   1.00
S1499  S     0.12240   0.06172   0.92033   0.00000  Uiso   1.00
S1500  S     0.39592   0.44891   0.76113   0.00000  Uiso   1.00
S1501  S     0.16179   0.32209   0.89701   0.00000  Uiso   1.00
S1502  S     0.12825   0.33908   0.73938   0.00000  Uiso   1.00
S1503  S     0.32363   0.17291   0.89452   0.00000  Uiso   1.00
S1504  S     0.11874   0.16917   0.92887   0.00000  Uiso   1.00
S1505  S     0.37972   0.34085   0.73853   0.00000  Uiso   1.00
S1506  S     0.37240   0.31172   0.92033   0.00000  Uiso   1.00
S1507  S     0.14592   0.19891   0.76113   0.00000  Uiso   1.00
S1508  S     0.10262   0.44832   0.75344   0.00000  Uiso   1.00
Zn1509 Zn    0.00000   0.25000   0.88437   0.00000  Uiso   1.00
Zn1510 Zn    0.00000   0.25000   0.78229   0.00000  Uiso   1.00
Zn1511 Zn    0.25000   0.00000   0.88437   0.00000  Uiso   1.00
Zn1512 Zn    0.25000   0.00000   0.78229   0.00000  Uiso   1.00
C1513  C     0.56406   0.19386   0.83414   0.00000  Uiso   1.00
C1514  C     0.99292   0.21191   0.97793   0.00000  Uiso   1.00
C1515  C     0.99437   0.21185   0.69232   0.00000  Uiso   1.00
C1516  C     0.50641   0.28820   0.97449   0.00000  Uiso   1.00
C1517  C     0.75612   0.03841   0.68948   0.00000  Uiso   1.00
C1518  C     0.74292   0.46191   0.97793   0.00000  Uiso   1.00
C1519  C     0.74437   0.46185   0.69232   0.00000  Uiso   1.00
C1520  C     0.75641   0.03820   0.97449   0.00000  Uiso   1.00
C1521  C     0.87268   0.15808   0.79256   0.00000  Uiso   1.00
C1522  C     0.62009   0.35442   0.86951   0.00000  Uiso   1.00
C1523  C     0.60895   0.36435   0.78879   0.00000  Uiso   1.00
C1524  C     0.93628   0.30689   0.83281   0.00000  Uiso   1.00
C1525  C     0.87408   0.14963   0.87272   0.00000  Uiso   1.00
C1526  C     0.61311   0.14200   0.87690   0.00000  Uiso   1.00
C1527  C     0.89098   0.36338   0.79221   0.00000  Uiso   1.00
C1528  C     0.88026   0.34982   0.87370   0.00000  Uiso   1.00
C1529  C     0.62529   0.15553   0.79708   0.00000  Uiso   1.00
C1530  C     0.62268   0.40808   0.79256   0.00000  Uiso   1.00
C1531  C     0.87009   0.10442   0.86951   0.00000  Uiso   1.00
C1532  C     0.85895   0.11435   0.78879   0.00000  Uiso   1.00
C1533  C     0.62408   0.39963   0.87272   0.00000  Uiso   1.00
C1534  C     0.86311   0.39200   0.87690   0.00000  Uiso   1.00
C1535  C     0.93517   0.19414   0.83364   0.00000  Uiso   1.00
C1536  C     0.64097   0.11338   0.79221   0.00000  Uiso   1.00
C1537  C     0.63026   0.09982   0.87370   0.00000  Uiso   1.00
C1538  C     0.87529   0.40553   0.79708   0.00000  Uiso   1.00
C1539  C     0.60216   0.33901   0.82923   0.00000  Uiso   1.00
C1540  C     0.89067   0.17102   0.83368   0.00000  Uiso   1.00
C1541  C     0.89832   0.33725   0.83185   0.00000  Uiso   1.00
C1542  C     0.60378   0.16584   0.83689   0.00000  Uiso   1.00
C1543  C     0.85216   0.08901   0.82923   0.00000  Uiso   1.00
C1544  C     0.64067   0.42102   0.83368   0.00000  Uiso   1.00
C1545  C     0.64832   0.08725   0.83185   0.00000  Uiso   1.00
C1546  C     0.56375   0.30763   0.83244   0.00000  Uiso   1.00
C1547  C     0.85378   0.41584   0.83689   0.00000  Uiso   1.00
C1548  C     0.81406   0.44386   0.83414   0.00000  Uiso   1.00
C1549  C     0.68628   0.05689   0.83281   0.00000  Uiso   1.00
C1550  C     0.68517   0.44414   0.83364   0.00000  Uiso   1.00
C1551  C     0.81375   0.05763   0.83244   0.00000  Uiso   1.00
C1552  C     0.50612   0.28841   0.68948   0.00000  Uiso   1.00
H1553  H     0.98497   0.33528   0.73080   0.00000  Uiso   1.00
H1554  H     0.77166   0.10509   0.69183   0.00000  Uiso   1.00
H1555  H     0.75433   0.41663   0.93094   0.00000  Uiso   1.00
H1556  H     0.69826   0.42289   0.94585   0.00000  Uiso   1.00
H1557  H     0.76499   0.40028   0.70782   0.00000  Uiso   1.00
H1558  H     0.70798   0.40725   0.71023   0.00000  Uiso   1.00
H1559  H     0.79558   0.09056   0.95572   0.00000  Uiso   1.00
H1560  H     0.73832   0.10027   0.95694   0.00000  Uiso   1.00
H1561  H     0.86389   0.25133   0.79893   0.00000  Uiso   1.00
H1562  H     0.62688   0.33598   0.95837   0.00000  Uiso   1.00
H1563  H     0.60636   0.28789   0.69588   0.00000  Uiso   1.00
H1564  H     0.52166   0.35509   0.69183   0.00000  Uiso   1.00
H1565  H     0.86092   0.17498   0.95746   0.00000  Uiso   1.00
H1566  H     0.60134   0.23236   0.95403   0.00000  Uiso   1.00
H1567  H     0.93106   0.37168   0.69487   0.00000  Uiso   1.00
H1568  H     0.89591   0.24591   0.93442   0.00000  Uiso   1.00
H1569  H     0.58663   0.18444   0.72006   0.00000  Uiso   1.00
H1570  H     0.61389   0.00133   0.79893   0.00000  Uiso   1.00
H1571  H     0.87689   0.08598   0.95837   0.00000  Uiso   1.00
H1572  H     0.85636   0.03789   0.69588   0.00000  Uiso   1.00
H1573  H     0.61092   0.42498   0.95746   0.00000  Uiso   1.00
H1574  H     0.85134   0.48236   0.95403   0.00000  Uiso   1.00
H1575  H     0.50433   0.16663   0.93094   0.00000  Uiso   1.00
H1576  H     0.68106   0.12168   0.69487   0.00000  Uiso   1.00
H1577  H     0.64591   0.49591   0.93442   0.00000  Uiso   1.00
H1578  H     0.83663   0.43444   0.72006   0.00000  Uiso   1.00
H1579  H     0.94826   0.17289   0.94585   0.00000  Uiso   1.00
H1580  H     0.51499   0.15028   0.70782   0.00000  Uiso   1.00
H1581  H     0.95798   0.15725   0.71023   0.00000  Uiso   1.00
H1582  H     0.54558   0.34056   0.95572   0.00000  Uiso   1.00
H1583  H     0.98832   0.35027   0.95694   0.00000  Uiso   1.00
H1584  H     0.73497   0.08528   0.73080   0.00000  Uiso   1.00
N1585  N     0.50000   0.25000   0.95240   0.00000  Uiso   1.00
N1586  N     0.73196   0.42146   0.95742   0.00000  Uiso   1.00
N1587  N     0.73960   0.42152   0.71801   0.00000  Uiso   1.00
N1588  N     0.76316   0.07780   0.94832   0.00000  Uiso   1.00
N1589  N     0.50000   0.25000   0.71427   0.00000  Uiso   1.00
N1590  N     0.75000   0.00000   0.95240   0.00000  Uiso   1.00
N1591  N     0.75000   0.00000   0.71427   0.00000  Uiso   1.00
N1592  N     0.51439   0.32806   0.71310   0.00000  Uiso   1.00
N1593  N     0.98196   0.17146   0.95742   0.00000  Uiso   1.00
N1594  N     0.98960   0.17152   0.71801   0.00000  Uiso   1.00
N1595  N     0.51316   0.32780   0.94832   0.00000  Uiso   1.00
N1596  N     0.76439   0.07806   0.71310   0.00000  Uiso   1.00
O1597  O     0.54581   0.20419   0.87154   0.00000  Uiso   1.00
O1598  O     0.70420   0.04581   0.79513   0.00000  Uiso   1.00
O1599  O     0.70420   0.04581   0.87154   0.00000  Uiso   1.00
O1600  O     0.79581   0.45419   0.79513   0.00000  Uiso   1.00
O1601  O     0.70420   0.45419   0.79513   0.00000  Uiso   1.00
O1602  O     0.79581   0.04581   0.87154   0.00000  Uiso   1.00
O1603  O     0.79581   0.04581   0.79513   0.00000  Uiso   1.00
O1604  O     0.70420   0.45419   0.87154   0.00000  Uiso   1.00
O1605  O     0.88912   0.21010   0.71939   0.00000  Uiso   1.00
O1606  O     0.81123   0.18084   0.72944   0.00000  Uiso   1.00
O1607  O     0.83717   0.24334   0.78030   0.00000  Uiso   1.00
O1608  O     0.95420   0.29581   0.79513   0.00000  Uiso   1.00
O1609  O     0.66735   0.27982   0.87334   0.00000  Uiso   1.00
O1610  O     0.70696   0.34640   0.89663   0.00000  Uiso   1.00
O1611  O     0.64613   0.31106   0.95050   0.00000  Uiso   1.00
O1612  O     0.62446   0.37019   0.69942   0.00000  Uiso   1.00
O1613  O     0.67788   0.32830   0.74608   0.00000  Uiso   1.00
O1614  O     0.59987   0.29273   0.72796   0.00000  Uiso   1.00
O1615  O     0.81520   0.21738   0.87326   0.00000  Uiso   1.00
O1616  O     0.78289   0.14427   0.88423   0.00000  Uiso   1.00
O1617  O     0.82781   0.17696   0.95063   0.00000  Uiso   1.00
O1618  O     0.58513   0.14971   0.96250   0.00000  Uiso   1.00
O1619  O     0.95420   0.29581   0.87154   0.00000  Uiso   1.00
O1620  O     0.66662   0.16254   0.94602   0.00000  Uiso   1.00
O1621  O     0.61081   0.22349   0.92375   0.00000  Uiso   1.00
O1622  O     0.90045   0.29714   0.73124   0.00000  Uiso   1.00
O1623  O     0.82865   0.33569   0.73416   0.00000  Uiso   1.00
O1624  O     0.89763   0.37546   0.69703   0.00000  Uiso   1.00
O1625  O     0.90407   0.32358   0.95782   0.00000  Uiso   1.00
O1626  O     0.82379   0.31359   0.93668   0.00000  Uiso   1.00
O1627  O     0.88301   0.26000   0.90683   0.00000  Uiso   1.00
O1628  O     0.64663   0.24055   0.78655   0.00000  Uiso   1.00
O1629  O     0.69399   0.18950   0.74667   0.00000  Uiso   1.00
O1630  O     0.54581   0.20419   0.79513   0.00000  Uiso   1.00
O1631  O     0.61269   0.20511   0.71524   0.00000  Uiso   1.00
O1632  O     0.63912   0.46010   0.71939   0.00000  Uiso   1.00
O1633  O     0.56123   0.43084   0.72944   0.00000  Uiso   1.00
O1634  O     0.58717   0.49334   0.78030   0.00000  Uiso   1.00
O1635  O     0.91735   0.02982   0.87334   0.00000  Uiso   1.00
O1636  O     0.95696   0.09640   0.89664   0.00000  Uiso   1.00
O1637  O     0.89613   0.06106   0.95050   0.00000  Uiso   1.00
O1638  O     0.87446   0.12019   0.69942   0.00000  Uiso   1.00
O1639  O     0.92788   0.07830   0.74608   0.00000  Uiso   1.00
O1640  O     0.84987   0.04273   0.72797   0.00000  Uiso   1.00
O1641  O     0.95420   0.20419   0.79513   0.00000  Uiso   1.00
O1642  O     0.56520   0.46738   0.87326   0.00000  Uiso   1.00
O1643  O     0.53289   0.39427   0.88422   0.00000  Uiso   1.00
O1644  O     0.57781   0.42696   0.95063   0.00000  Uiso   1.00
O1645  O     0.83513   0.39971   0.96250   0.00000  Uiso   1.00
O1646  O     0.91662   0.41254   0.94602   0.00000  Uiso   1.00
O1647  O     0.86081   0.47349   0.92375   0.00000  Uiso   1.00
O1648  O     0.65045   0.04714   0.73124   0.00000  Uiso   1.00
O1649  O     0.57865   0.08569   0.73416   0.00000  Uiso   1.00
O1650  O     0.64763   0.12546   0.69703   0.00000  Uiso   1.00
O1651  O     0.65407   0.07358   0.95782   0.00000  Uiso   1.00
O1652  O     0.54581   0.29581   0.87154   0.00000  Uiso   1.00
O1653  O     0.57379   0.06359   0.93668   0.00000  Uiso   1.00
O1654  O     0.63301   0.01000   0.90683   0.00000  Uiso   1.00
O1655  O     0.89663   0.49055   0.78655   0.00000  Uiso   1.00
O1656  O     0.94399   0.43950   0.74667   0.00000  Uiso   1.00
O1657  O     0.86269   0.45511   0.71524   0.00000  Uiso   1.00
O1658  O     0.54581   0.29581   0.79513   0.00000  Uiso   1.00
O1659  O     0.95420   0.20419   0.87154   0.00000  Uiso   1.00
O1660  O     0.79581   0.45419   0.87154   0.00000  Uiso   1.00
S1661  S     0.85262   0.19833   0.75344   0.00000  Uiso   1.00
S1662  S     0.91179   0.07209   0.89701   0.00000  Uiso   1.00
S1663  S     0.87825   0.08909   0.73938   0.00000  Uiso   1.00
S1664  S     0.57363   0.42291   0.89452   0.00000  Uiso   1.00
S1665  S     0.86874   0.41916   0.92887   0.00000  Uiso   1.00
S1666  S     0.62972   0.09085   0.73853   0.00000  Uiso   1.00
S1667  S     0.62240   0.06172   0.92033   0.00000  Uiso   1.00
S1668  S     0.89592   0.44891   0.76113   0.00000  Uiso   1.00
S1669  S     0.66179   0.32209   0.89701   0.00000  Uiso   1.00
S1670  S     0.62825   0.33908   0.73938   0.00000  Uiso   1.00
S1671  S     0.82363   0.17291   0.89452   0.00000  Uiso   1.00
S1672  S     0.61874   0.16917   0.92887   0.00000  Uiso   1.00
S1673  S     0.87972   0.34085   0.73853   0.00000  Uiso   1.00
S1674  S     0.87240   0.31172   0.92033   0.00000  Uiso   1.00
S1675  S     0.64592   0.19891   0.76113   0.00000  Uiso   1.00
S1676  S     0.60262   0.44832   0.75344   0.00000  Uiso   1.00
Zn1677 Zn    0.50000   0.25000   0.88437   0.00000  Uiso   1.00
Zn1678 Zn    0.50000   0.25000   0.78229   0.00000  Uiso   1.00
Zn1679 Zn    0.75000   0.00000   0.88437   0.00000  Uiso   1.00
Zn1680 Zn    0.75000   0.00000   0.78229   0.00000  Uiso   1.00
C1681  C     0.06406   0.69386   0.83414   0.00000  Uiso   1.00
C1682  C     0.49292   0.71191   0.97793   0.00000  Uiso   1.00
C1683  C     0.49437   0.71185   0.69232   0.00000  Uiso   1.00
C1684  C     0.00641   0.78820   0.97449   0.00000  Uiso   1.00
C1685  C     0.25612   0.53841   0.68948   0.00000  Uiso   1.00
C1686  C     0.24292   0.96191   0.97793   0.00000  Uiso   1.00
C1687  C     0.24437   0.96185   0.69232   0.00000  Uiso   1.00
C1688  C     0.25641   0.53820   0.97449   0.00000  Uiso   1.00
C1689  C     0.37268   0.65808   0.79256   0.00000  Uiso   1.00
C1690  C     0.12009   0.85442   0.86951   0.00000  Uiso   1.00
C1691  C     0.10895   0.86435   0.78879   0.00000  Uiso   1.00
C1692  C     0.43628   0.80689   0.83281   0.00000  Uiso   1.00
C1693  C     0.37408   0.64963   0.87272   0.00000  Uiso   1.00
C1694  C     0.11311   0.64200   0.87690   0.00000  Uiso   1.00
C1695  C     0.39098   0.86338   0.79221   0.00000  Uiso   1.00
C1696  C     0.38026   0.84982   0.87370   0.00000  Uiso   1.00
C1697  C     0.12529   0.65553   0.79708   0.00000  Uiso   1.00
C1698  C     0.12268   0.90808   0.79256   0.00000  Uiso   1.00
C1699  C     0.37009   0.60442   0.86951   0.00000  Uiso   1.00
C1700  C     0.35895   0.61435   0.78879   0.00000  Uiso   1.00
C1701  C     0.12408   0.89963   0.87272   0.00000  Uiso   1.00
C1702  C     0.36311   0.89200   0.87690   0.00000  Uiso   1.00
C1703  C     0.43517   0.69414   0.83364   0.00000  Uiso   1.00
C1704  C     0.14097   0.61338   0.79221   0.00000  Uiso   1.00
C1705  C     0.13026   0.59982   0.87370   0.00000  Uiso   1.00
C1706  C     0.37529   0.90553   0.79708   0.00000  Uiso   1.00
C1707  C     0.10216   0.83901   0.82923   0.00000  Uiso   1.00
C1708  C     0.39067   0.67102   0.83368   0.00000  Uiso   1.00
C1709  C     0.39832   0.83725   0.83185   0.00000  Uiso   1.00
C1710  C     0.10378   0.66584   0.83689   0.00000  Uiso   1.00
C1711  C     0.35216   0.58901   0.82923   0.00000  Uiso   1.00
C1712  C     0.14067   0.92102   0.83368   0.00000  Uiso   1.00
C1713  C     0.14832   0.58725   0.83185   0.00000  Uiso   1.00
C1714  C     0.06375   0.80763   0.83244   0.00000  Uiso   1.00
C1715  C     0.35378   0.91584   0.83689   0.00000  Uiso   1.00
C1716  C     0.31406   0.94386   0.83414   0.00000  Uiso   1.00
C1717  C     0.18628   0.55689   0.83281   0.00000  Uiso   1.00
C1718  C     0.18517   0.94414   0.83364   0.00000  Uiso   1.00
C1719  C     0.31375   0.55763   0.83244   0.00000  Uiso   1.00
C1720  C     0.00612   0.78841   0.68948   0.00000  Uiso   1.00
H1721  H     0.48497   0.83528   0.73080   0.00000  Uiso   1.00
H1722  H     0.27166   0.60509   0.69183   0.00000  Uiso   1.00
H1723  H     0.25433   0.91663   0.93094   0.00000  Uiso   1.00
H1724  H     0.19826   0.92289   0.94585   0.00000  Uiso   1.00
H1725  H     0.26499   0.90028   0.70782   0.00000  Uiso   1.00
H1726  H     0.20798   0.90725   0.71023   0.00000  Uiso   1.00
H1727  H     0.29558   0.59056   0.95572   0.00000  Uiso   1.00
H1728  H     0.23832   0.60027   0.95694   0.00000  Uiso   1.00
H1729  H     0.36389   0.75133   0.79893   0.00000  Uiso   1.00
H1730  H     0.12688   0.83598   0.95837   0.00000  Uiso   1.00
H1731  H     0.10636   0.78789   0.69588   0.00000  Uiso   1.00
H1732  H     0.02166   0.85509   0.69183   0.00000  Uiso   1.00
H1733  H     0.36092   0.67498   0.95746   0.00000  Uiso   1.00
H1734  H     0.10134   0.73236   0.95403   0.00000  Uiso   1.00
H1735  H     0.43106   0.87168   0.69487   0.00000  Uiso   1.00
H1736  H     0.39591   0.74591   0.93442   0.00000  Uiso   1.00
H1737  H     0.08663   0.68444   0.72006   0.00000  Uiso   1.00
H1738  H     0.11389   0.50133   0.79893   0.00000  Uiso   1.00
H1739  H     0.37689   0.58598   0.95837   0.00000  Uiso   1.00
H1740  H     0.35636   0.53789   0.69588   0.00000  Uiso   1.00
H1741  H     0.11092   0.92498   0.95746   0.00000  Uiso   1.00
H1742  H     0.35134   0.98236   0.95403   0.00000  Uiso   1.00
H1743  H     0.00433   0.66663   0.93094   0.00000  Uiso   1.00
H1744  H     0.18106   0.62168   0.69487   0.00000  Uiso   1.00
H1745  H     0.14591   0.99591   0.93442   0.00000  Uiso   1.00
H1746  H     0.33663   0.93444   0.72006   0.00000  Uiso   1.00
H1747  H     0.44826   0.67289   0.94585   0.00000  Uiso   1.00
H1748  H     0.01499   0.65028   0.70782   0.00000  Uiso   1.00
H1749  H     0.45798   0.65725   0.71023   0.00000  Uiso   1.00
H1750  H     0.04558   0.84056   0.95572   0.00000  Uiso   1.00
H1751  H     0.48832   0.85027   0.95694   0.00000  Uiso   1.00
H1752  H     0.23497   0.58528   0.73080   0.00000  Uiso   1.00
N1753  N     0.00000   0.75000   0.95240   0.00000  Uiso   1.00
N1754  N     0.23196   0.92146   0.95742   0.00000  Uiso   1.00
N1755  N     0.23960   0.92152   0.71801   0.00000  Uiso   1.00
N1756  N     0.26316   0.57780   0.94832   0.00000  Uiso   1.00
N1757  N     0.00000   0.75000   0.71427   0.00000  Uiso   1.00
N1758  N     0.25000   0.50000   0.95240   0.00000  Uiso   1.00
N1759  N     0.25000   0.50000   0.71427   0.00000  Uiso   1.00
N1760  N     0.01439   0.82806   0.71310   0.00000  Uiso   1.00
N1761  N     0.48196   0.67146   0.95742   0.00000  Uiso   1.00
N1762  N     0.48960   0.67152   0.71801   0.00000  Uiso   1.00
N1763  N     0.01316   0.82780   0.94832   0.00000  Uiso   1.00
N1764  N     0.26439   0.57806   0.71310   0.00000  Uiso   1.00
O1765  O     0.04581   0.70419   0.87154   0.00000  Uiso   1.00
O1766  O     0.20420   0.54581   0.79513   0.00000  Uiso   1.00
O1767  O     0.20420   0.54581   0.87154   0.00000  Uiso   1.00
O1768  O     0.29581   0.95419   0.79513   0.00000  Uiso   1.00
O1769  O     0.20420   0.95419   0.79513   0.00000  Uiso   1.00
O1770  O     0.29581   0.54581   0.87154   0.00000  Uiso   1.00
O1771  O     0.29581   0.54581   0.79513   0.00000  Uiso   1.00
O1772  O     0.20420   0.95419   0.87154   0.00000  Uiso   1.00
O1773  O     0.38912   0.71010   0.71939   0.00000  Uiso   1.00
O1774  O     0.31123   0.68084   0.72944   0.00000  Uiso   1.00
O1775  O     0.33717   0.74334   0.78030   0.00000  Uiso   1.00
O1776  O     0.45420   0.79581   0.79513   0.00000  Uiso   1.00
O1777  O     0.16735   0.77982   0.87334   0.00000  Uiso   1.00
O1778  O     0.20696   0.84640   0.89663   0.00000  Uiso   1.00
O1779  O     0.14613   0.81106   0.95050   0.00000  Uiso   1.00
O1780  O     0.12446   0.87019   0.69942   0.00000  Uiso   1.00
O1781  O     0.17788   0.82830   0.74608   0.00000  Uiso   1.00
O1782  O     0.09987   0.79273   0.72796   0.00000  Uiso   1.00
O1783  O     0.31520   0.71738   0.87326   0.00000  Uiso   1.00
O1784  O     0.28289   0.64427   0.88423   0.00000  Uiso   1.00
O1785  O     0.32781   0.67696   0.95063   0.00000  Uiso   1.00
O1786  O     0.08513   0.64971   0.96250   0.00000  Uiso   1.00
O1787  O     0.45420   0.79581   0.87154   0.00000  Uiso   1.00
O1788  O     0.16662   0.66254   0.94602   0.00000  Uiso   1.00
O1789  O     0.11081   0.72349   0.92375   0.00000  Uiso   1.00
O1790  O     0.40045   0.79714   0.73124   0.00000  Uiso   1.00
O1791  O     0.32865   0.83569   0.73416   0.00000  Uiso   1.00
O1792  O     0.39763   0.87546   0.69703   0.00000  Uiso   1.00
O1793  O     0.40407   0.82358   0.95782   0.00000  Uiso   1.00
O1794  O     0.32379   0.81359   0.93668   0.00000  Uiso   1.00
O1795  O     0.38301   0.76000   0.90683   0.00000  Uiso   1.00
O1796  O     0.14663   0.74055   0.78655   0.00000  Uiso   1.00
O1797  O     0.19399   0.68950   0.74667   0.00000  Uiso   1.00
O1798  O     0.04581   0.70419   0.79513   0.00000  Uiso   1.00
O1799  O     0.11269   0.70511   0.71524   0.00000  Uiso   1.00
O1800  O     0.13912   0.96010   0.71939   0.00000  Uiso   1.00
O1801  O     0.06123   0.93084   0.72944   0.00000  Uiso   1.00
O1802  O     0.08717   0.99334   0.78030   0.00000  Uiso   1.00
O1803  O     0.41735   0.52982   0.87334   0.00000  Uiso   1.00
O1804  O     0.45696   0.59640   0.89664   0.00000  Uiso   1.00
O1805  O     0.39613   0.56106   0.95050   0.00000  Uiso   1.00
O1806  O     0.37446   0.62019   0.69942   0.00000  Uiso   1.00
O1807  O     0.42788   0.57830   0.74608   0.00000  Uiso   1.00
O1808  O     0.34987   0.54273   0.72797   0.00000  Uiso   1.00
O1809  O     0.45420   0.70419   0.79513   0.00000  Uiso   1.00
O1810  O     0.06520   0.96738   0.87326   0.00000  Uiso   1.00
O1811  O     0.03289   0.89427   0.88422   0.00000  Uiso   1.00
O1812  O     0.07781   0.92696   0.95063   0.00000  Uiso   1.00
O1813  O     0.33513   0.89971   0.96250   0.00000  Uiso   1.00
O1814  O     0.41662   0.91254   0.94602   0.00000  Uiso   1.00
O1815  O     0.36081   0.97349   0.92375   0.00000  Uiso   1.00
O1816  O     0.15045   0.54714   0.73124   0.00000  Uiso   1.00
O1817  O     0.07865   0.58569   0.73416   0.00000  Uiso   1.00
O1818  O     0.14763   0.62546   0.69703   0.00000  Uiso   1.00
O1819  O     0.15407   0.57358   0.95782   0.00000  Uiso   1.00
O1820  O     0.04581   0.79581   0.87154   0.00000  Uiso   1.00
O1821  O     0.07379   0.56359   0.93668   0.00000  Uiso   1.00
O1822  O     0.13301   0.51000   0.90683   0.00000  Uiso   1.00
O1823  O     0.39663   0.99055   0.78655   0.00000  Uiso   1.00
O1824  O     0.44399   0.93950   0.74667   0.00000  Uiso   1.00
O1825  O     0.36269   0.95511   0.71524   0.00000  Uiso   1.00
O1826  O     0.04581   0.79581   0.79513   0.00000  Uiso   1.00
O1827  O     0.45420   0.70419   0.87154   0.00000  Uiso   1.00
O1828  O     0.29581   0.95419   0.87154   0.00000  Uiso   1.00
S1829  S     0.35262   0.69833   0.75344   0.00000  Uiso   1.00
S1830  S     0.41179   0.57209   0.89701   0.00000  Uiso   1.00
S1831  S     0.37825   0.58909   0.73938   0.00000  Uiso   1.00
S1832  S     0.07363   0.92291   0.89452   0.00000  Uiso   1.00
S1833  S     0.36874   0.91916   0.92887   0.00000  Uiso   1.00
S1834  S     0.12972   0.59085   0.73853   0.00000  Uiso   1.00
S1835  S     0.12240   0.56172   0.92033   0.00000  Uiso   1.00
S1836  S     0.39592   0.94891   0.76113   0.00000  Uiso   1.00
S1837  S     0.16179   0.82209   0.89701   0.00000  Uiso   1.00
S1838  S     0.12825   0.83908   0.73938   0.00000  Uiso   1.00
S1839  S     0.32363   0.67291   0.89452   0.00000  Uiso   1.00
S1840  S     0.11874   0.66917   0.92887   0.00000  Uiso   1.00
S1841  S     0.37972   0.84085   0.73853   0.00000  Uiso   1.00
S1842  S     0.37240   0.81172   0.92033   0.00000  Uiso   1.00
S1843  S     0.14592   0.69891   0.76113   0.00000  Uiso   1.00
S1844  S     0.10262   0.94832   0.75344   0.00000  Uiso   1.00
Zn1845 Zn    0.00000   0.75000   0.88437   0.00000  Uiso   1.00
Zn1846 Zn    0.00000   0.75000   0.78229   0.00000  Uiso   1.00
Zn1847 Zn    0.25000   0.50000   0.88437   0.00000  Uiso   1.00
Zn1848 Zn    0.25000   0.50000   0.78229   0.00000  Uiso   1.00
C1849  C     0.56406   0.69386   0.83414   0.00000  Uiso   1.00
C1850  C     0.99292   0.71191   0.97793   0.00000  Uiso   1.00
C1851  C     0.99437   0.71185   0.69232   0.00000  Uiso   1.00
C1852  C     0.50641   0.78820   0.97449   0.00000  Uiso   1.00
C1853  C     0.75612   0.53841   0.68948   0.00000  Uiso   1.00
C1854  C     0.74292   0.96191   0.97793   0.00000  Uiso   1.00
C1855  C     0.74437   0.96185   0.69232   0.00000  Uiso   1.00
C1856  C     0.75641   0.53820   0.97449   0.00000  Uiso   1.00
C1857  C     0.87268   0.65808   0.79256   0.00000  Uiso   1.00
C1858  C     0.62009   0.85442   0.86951   0.00000  Uiso   1.00
C1859  C     0.60895   0.86435   0.78879   0.00000  Uiso   1.00
C1860  C     0.93628   0.80689   0.83281   0.00000  Uiso   1.00
C1861  C     0.87408   0.64963   0.87272   0.00000  Uiso   1.00
C1862  C     0.61311   0.64200   0.87690   0.00000  Uiso   1.00
C1863  C     0.89098   0.86338   0.79221   0.00000  Uiso   1.00
C1864  C     0.88026   0.84982   0.87370   0.00000  Uiso   1.00
C1865  C     0.62529   0.65553   0.79708   0.00000  Uiso   1.00
C1866  C     0.62268   0.90808   0.79256   0.00000  Uiso   1.00
C1867  C     0.87009   0.60442   0.86951   0.00000  Uiso   1.00
C1868  C     0.85895   0.61435   0.78879   0.00000  Uiso   1.00
C1869  C     0.62408   0.89963   0.87272   0.00000  Uiso   1.00
C1870  C     0.86311   0.89200   0.87690   0.00000  Uiso   1.00
C1871  C     0.93517   0.69414   0.83364   0.00000  Uiso   1.00
C1872  C     0.64097   0.61338   0.79221   0.00000  Uiso   1.00
C1873  C     0.63026   0.59982   0.87370   0.00000  Uiso   1.00
C1874  C     0.87529   0.90553   0.79708   0.00000  Uiso   1.00
C1875  C     0.60216   0.83901   0.82923   0.00000  Uiso   1.00
C1876  C     0.89067   0.67102   0.83368   0.00000  Uiso   1.00
C1877  C     0.89832   0.83725   0.83185   0.00000  Uiso   1.00
C1878  C     0.60378   0.66584   0.83689   0.00000  Uiso   1.00
C1879  C     0.85216   0.58901   0.82923   0.00000  Uiso   1.00
C1880  C     0.64067   0.92102   0.83368   0.00000  Uiso   1.00
C1881  C     0.64832   0.58725   0.83185   0.00000  Uiso   1.00
C1882  C     0.56375   0.80763   0.83244   0.00000  Uiso   1.00
C1883  C     0.85378   0.91584   0.83689   0.00000  Uiso   1.00
C1884  C     0.81406   0.94386   0.83414   0.00000  Uiso   1.00
C1885  C     0.68628   0.55689   0.83281   0.00000  Uiso   1.00
C1886  C     0.68517   0.94414   0.83364   0.00000  Uiso   1.00
C1887  C     0.81375   0.55763   0.83244   0.00000  Uiso   1.00
C1888  C     0.50612   0.78841   0.68948   0.00000  Uiso   1.00
H1889  H     0.98497   0.83528   0.73080   0.00000  Uiso   1.00
H1890  H     0.77166   0.60509   0.69183   0.00000  Uiso   1.00
H1891  H     0.75433   0.91663   0.93094   0.00000  Uiso   1.00
H1892  H     0.69826   0.92289   0.94585   0.00000  Uiso   1.00
H1893  H     0.76499   0.90028   0.70782   0.00000  Uiso   1.00
H1894  H     0.70798   0.90725   0.71023   0.00000  Uiso   1.00
H1895  H     0.79558   0.59056   0.95572   0.00000  Uiso   1.00
H1896  H     0.73832   0.60027   0.95694   0.00000  Uiso   1.00
H1897  H     0.86389   0.75133   0.79893   0.00000  Uiso   1.00
H1898  H     0.62688   0.83598   0.95837   0.00000  Uiso   1.00
H1899  H     0.60636   0.78789   0.69588   0.00000  Uiso   1.00
H1900  H     0.52166   0.85509   0.69183   0.00000  Uiso   1.00
H1901  H     0.86092   0.67498   0.95746   0.00000  Uiso   1.00
H1902  H     0.60134   0.73236   0.95403   0.00000  Uiso   1.00
H1903  H     0.93106   0.87168   0.69487   0.00000  Uiso   1.00
H1904  H     0.89591   0.74591   0.93442   0.00000  Uiso   1.00
H1905  H     0.58663   0.68444   0.72006   0.00000  Uiso   1.00
H1906  H     0.61389   0.50133   0.79893   0.00000  Uiso   1.00
H1907  H     0.87689   0.58598   0.95837   0.00000  Uiso   1.00
H1908  H     0.85636   0.53789   0.69588   0.00000  Uiso   1.00
H1909  H     0.61092   0.92498   0.95746   0.00000  Uiso   1.00
H1910  H     0.85134   0.98236   0.95403   0.00000  Uiso   1.00
H1911  H     0.50433   0.66663   0.93094   0.00000  Uiso   1.00
H1912  H     0.68106   0.62168   0.69487   0.00000  Uiso   1.00
H1913  H     0.64591   0.99591   0.93442   0.00000  Uiso   1.00
H1914  H     0.83663   0.93444   0.72006   0.00000  Uiso   1.00
H1915  H     0.94826   0.67289   0.94585   0.00000  Uiso   1.00
H1916  H     0.51499   0.65028   0.70782   0.00000  Uiso   1.00
H1917  H     0.95798   0.65725   0.71023   0.00000  Uiso   1.00
H1918  H     0.54558   0.84056   0.95572   0.00000  Uiso   1.00
H1919  H     0.98832   0.85027   0.95694   0.00000  Uiso   1.00
H1920  H     0.73497   0.58528   0.73080   0.00000  Uiso   1.00
N1921  N     0.50000   0.75000   0.95240   0.00000  Uiso   1.00
N1922  N     0.73196   0.92146   0.95742   0.00000  Uiso   1.00
N1923  N     0.73960   0.92152   0.71801   0.00000  Uiso   1.00
N1924  N     0.76316   0.57780   0.94832   0.00000  Uiso   1.00
N1925  N     0.50000   0.75000   0.71427   0.00000  Uiso   1.00
N1926  N     0.75000   0.50000   0.95240   0.00000  Uiso   1.00
N1927  N     0.75000   0.50000   0.71427   0.00000  Uiso   1.00
N1928  N     0.51439   0.82806   0.71310   0.00000  Uiso   1.00
N1929  N     0.98196   0.67146   0.95742   0.00000  Uiso   1.00
N1930  N     0.98960   0.67152   0.71801   0.00000  Uiso   1.00
N1931  N     0.51316   0.82780   0.94832   0.00000  Uiso   1.00
N1932  N     0.76439   0.57806   0.71310   0.00000  Uiso   1.00
O1933  O     0.54581   0.70419   0.87154   0.00000  Uiso   1.00
O1934  O     0.70420   0.54581   0.79513   0.00000  Uiso   1.00
O1935  O     0.70420   0.54581   0.87154   0.00000  Uiso   1.00
O1936  O     0.79581   0.95419   0.79513   0.00000  Uiso   1.00
O1937  O     0.70420   0.95419   0.79513   0.00000  Uiso   1.00
O1938  O     0.79581   0.54581   0.87154   0.00000  Uiso   1.00
O1939  O     0.79581   0.54581   0.79513   0.00000  Uiso   1.00
O1940  O     0.70420   0.95419   0.87154   0.00000  Uiso   1.00
O1941  O     0.88912   0.71010   0.71939   0.00000  Uiso   1.00
O1942  O     0.81123   0.68084   0.72944   0.00000  Uiso   1.00
O1943  O     0.83717   0.74334   0.78030   0.00000  Uiso   1.00
O1944  O     0.95420   0.79581   0.79513   0.00000  Uiso   1.00
O1945  O     0.66735   0.77982   0.87334   0.00000  Uiso   1.00
O1946  O     0.70696   0.84640   0.89663   0.00000  Uiso   1.00
O1947  O     0.64613   0.81106   0.95050   0.00000  Uiso   1.00
O1948  O     0.62446   0.87019   0.69942   0.00000  Uiso   1.00
O1949  O     0.67788   0.82830   0.74608   0.00000  Uiso   1.00
O1950  O     0.59987   0.79273   0.72796   0.00000  Uiso   1.00
O1951  O     0.81520   0.71738   0.87326   0.00000  Uiso   1.00
O1952  O     0.78289   0.64427   0.88423   0.00000  Uiso   1.00
O1953  O     0.82781   0.67696   0.95063   0.00000  Uiso   1.00
O1954  O     0.58513   0.64971   0.96250   0.00000  Uiso   1.00
O1955  O     0.95420   0.79581   0.87154   0.00000  Uiso   1.00
O1956  O     0.66662   0.66254   0.94602   0.00000  Uiso   1.00
O1957  O     0.61081   0.72349   0.92375   0.00000  Uiso   1.00
O1958  O     0.90045   0.79714   0.73124   0.00000  Uiso   1.00
O1959  O     0.82865   0.83569   0.73416   0.00000  Uiso   1.00
O1960  O     0.89763   0.87546   0.69703   0.00000  Uiso   1.00
O1961  O     0.90407   0.82358   0.95782   0.00000  Uiso   1.00
O1962  O     0.82379   0.81359   0.93668   0.00000  Uiso   1.00
O1963  O     0.88301   0.76000   0.90683   0.00000  Uiso   1.00
O1964  O     0.64663   0.74055   0.78655   0.00000  Uiso   1.00
O1965  O     0.69399   0.68950   0.74667   0.00000  Uiso   1.00
O1966  O     0.54581   0.70419   0.79513   0.00000  Uiso   1.00
O1967  O     0.61269   0.70511   0.71524   0.00000  Uiso   1.00
O1968  O     0.63912   0.96010   0.71939   0.00000  Uiso   1.00
O1969  O     0.56123   0.93084   0.72944   0.00000  Uiso   1.00
O1970  O     0.58717   0.99334   0.78030   0.00000  Uiso   1.00
O1971  O     0.91735   0.52982   0.87334   0.00000  Uiso   1.00
O1972  O     0.95696   0.59640   0.89664   0.00000  Uiso   1.00
O1973  O     0.89613   0.56106   0.95050   0.00000  Uiso   1.00
O1974  O     0.87446   0.62019   0.69942   0.00000  Uiso   1.00
O1975  O     0.92788   0.57830   0.74608   0.00000  Uiso   1.00
O1976  O     0.84987   0.54273   0.72797   0.00000  Uiso   1.00
O1977  O     0.95420   0.70419   0.79513   0.00000  Uiso   1.00
O1978  O     0.56520   0.96738   0.87326   0.00000  Uiso   1.00
O1979  O     0.53289   0.89427   0.88422   0.00000  Uiso   1.00
O1980  O     0.57781   0.92696   0.95063   0.00000  Uiso   1.00
O1981  O     0.83513   0.89971   0.96250   0.00000  Uiso   1.00
O1982  O     0.91662   0.91254   0.94602   0.00000  Uiso   1.00
O1983  O     0.86081   0.97349   0.92375   0.00000  Uiso   1.00
O1984  O     0.65045   0.54714   0.73124   0.00000  Uiso   1.00
O1985  O     0.57865   0.58569   0.73416   0.00000  Uiso   1.00
O1986  O     0.64763   0.62546   0.69703   0.00000  Uiso   1.00
O1987  O     0.65407   0.57358   0.95782   0.00000  Uiso   1.00
O1988  O     0.54581   0.79581   0.87154   0.00000  Uiso   1.00
O1989  O     0.57379   0.56359   0.93668   0.00000  Uiso   1.00
O1990  O     0.63301   0.51000   0.90683   0.00000  Uiso   1.00
O1991  O     0.89663   0.99055   0.78655   0.00000  Uiso   1.00
O1992  O     0.94399   0.93950   0.74667   0.00000  Uiso   1.00
O1993  O     0.86269   0.95511   0.71524   0.00000  Uiso   1.00
O1994  O     0.54581   0.79581   0.79513   0.00000  Uiso   1.00
O1995  O     0.95420   0.70419   0.87154   0.00000  Uiso   1.00
O1996  O     0.79581   0.95419   0.87154   0.00000  Uiso   1.00
S1997  S     0.85262   0.69833   0.75344   0.00000  Uiso   1.00
S1998  S     0.91179   0.57209   0.89701   0.00000  Uiso   1.00
S1999  S     0.87825   0.58909   0.73938   0.00000  Uiso   1.00
S2000  S     0.57363   0.92291   0.89452   0.00000  Uiso   1.00
S2001  S     0.86874   0.91916   0.92887   0.00000  Uiso   1.00
S2002  S     0.62972   0.59085   0.73853   0.00000  Uiso   1.00
S2003  S     0.62240   0.56172   0.92033   0.00000  Uiso   1.00
S2004  S     0.89592   0.94891   0.76113   0.00000  Uiso   1.00
S2005  S     0.66179   0.82209   0.89701   0.00000  Uiso   1.00
S2006  S     0.62825   0.83908   0.73938   0.00000  Uiso   1.00
S2007  S     0.82363   0.67291   0.89452   0.00000  Uiso   1.00
S2008  S     0.61874   0.66917   0.92887   0.00000  Uiso   1.00
S2009  S     0.87972   0.84085   0.73853   0.00000  Uiso   1.00
S2010  S     0.87240   0.81172   0.92033   0.00000  Uiso   1.00
S2011  S     0.64592   0.69891   0.76113   0.00000  Uiso   1.00
S2012  S     0.60262   0.94832   0.75344   0.00000  Uiso   1.00
Zn2013 Zn    0.50000   0.75000   0.88437   0.00000  Uiso   1.00
Zn2014 Zn    0.50000   0.75000   0.78229   0.00000  Uiso   1.00
Zn2015 Zn    0.75000   0.50000   0.88437   0.00000  Uiso   1.00
Zn2016 Zn    0.75000   0.50000   0.78229   0.00000  Uiso   1.00
loop_
_geom_bond_atom_site_label_1
_geom_bond_atom_site_label_2
_geom_bond_distance
_geom_bond_site_symmetry_2
_ccdc_geom_bond_type
C1     O85     1.285   .     A
C1     C30     1.453   .     S
C1     O118    1.308   .     A
C2     N81     1.428   .     S
C2     C675    1.420   .     S
C2     N241    1.379   .     S
C3     N82     1.431   .     S
C3     N245    1.362   .     A
C3     C1346   1.420   1_554 S
C4     N73     1.369   .     A
C4     N83     1.426   .     S
C4     C712    1.438   .     S
C5     N79     1.372   .     A
C5     N84     1.438   .     S
C5     C1352   1.438   1_554 S
C6     N74     1.428   .     S
C6     C679    1.420   .     S
C6     N414    1.379   .     S
C7     N75     1.431   .     S
C7     C1350   1.420   1_554 S
C7     N415    1.362   .     S
C8     N76     1.426   .     S
C8     N78     1.369   .     A
C8     C677    1.438   .     S
C9     S149    1.769   .     S
C9     C20     1.395   .     A
C9     C28     1.398   .     A
C10    C27     1.401   .     A
C10    C21     1.390   .     A
C10    S157    1.763   .     S
C11    C18     1.395   .     A
C11    C27     1.419   .     A
C11    S158    1.779   .     S
C12    C29     1.456   .     S
C12    O107    1.301   .     A
C12    O96     1.295   .     A
C13    C28     1.395   .     A
C13    C19     1.390   .     A
C13    S159    1.778   .     S
C14    C30     1.402   .     A
C14    S160    1.786   .     S
C14    C25     1.395   .     A
C15    C29     1.419   .     A
C15    C26     1.385   .     A
C15    S161    1.788   .     S
C16    S162    1.791   .     S
C16    C29     1.420   .     A
C16    C22     1.395   .     A
C17    S163    1.771   .     S
C17    C30     1.389   .     A
C17    C24     1.385   .     A
C18    S164    1.769   .     S
C18    C32     1.398   .     A
C19    C31     1.401   .     A
C19    S150    1.763   .     S
C20    S151    1.779   .     S
C20    C31     1.419   .     A
C21    S152    1.778   .     S
C21    C32     1.395   .     A
C22    C35     1.402   .     A
C22    S153    1.786   .     S
C23    O129    1.298   .     A
C23    O147    1.301   .     A
C23    C28     1.468   .     S
C24    S154    1.788   .     S
C24    C33     1.419   .     A
C25    S155    1.791   .     S
C25    C33     1.420   .     A
C26    S156    1.771   .     S
C26    C35     1.389   .     A
C27    C34     1.463   .     S
C31    C39     1.463   .     S
C32    C38     1.468   .     S
C33    C37     1.456   .     S
C34    O146    1.288   .     A
C34    O140    1.312   .     A
C35    C36     1.453   .     S
C36    O88     1.308   .     A
C36    O148    1.285   .     A
C37    O86     1.295   .     A
C37    O87     1.301   .     A
C38    O89     1.298   .     A
C38    O92     1.301   .     A
C39    O90     1.312   .     A
C39    O91     1.288   .     A
C40    N80     1.438   .     S
C40    C1348   1.438   1_554 S
C40    N77     1.372   .     S
H41    N248    1.038   .     S
H42    N84     1.041   .     S
H43    N74     1.040   .     S
H44    N74     1.043   .     S
H45    N75     1.045   .     S
H46    N75     1.043   .     S
H47    N76     1.044   .     S
H48    N76     1.044   .     S
H49    O95     0.989   .     S
H50    O99     0.988   .     S
H51    O102    0.990   .     S
H52    N80     1.041   .     S
H53    O105    0.990   .     S
H54    O109    0.990   .     S
H55    O112    0.987   .     S
H56    O115    0.990   .     S
H57    O119    0.988   .     S
H58    O458    0.989   1_545 S
H59    O125    0.988   .     S
H60    O128    0.990   .     S
H61    O132    0.990   .     S
H62    O135    0.990   .     S
H63    N249    1.040   1_455 S
H64    O138    0.987   .     S
H65    O478    0.990   .     S
H66    O145    0.988   .     S
H67    N81     1.043   .     S
H68    N250    1.045   1_455 S
H69    N82     1.043   .     S
H70    N83     1.044   .     S
H71    N251    1.044   .     S
H72    N84     1.038   .     S
N73    Zn165   2.024   .     S
N73    C170    1.379   1_455 S
N77    C171    1.362   1_455 A
N77    Zn166   2.024   .     S
N78    Zn167   2.024   .     S
N78    C342    1.379   1_545 S
N79    Zn168   2.024   .     S
N79    C343    1.362   1_545 S
N80    H209    1.038   1_455 S
N81    H231    1.040   .     S
N82    H236    1.045   .     S
N83    H239    1.044   1_455 S
O85    Zn165   1.997   .     S
O86    Zn168   1.997   .     S
O87    Zn167   1.978   .     S
O88    Zn504   1.978   .     S
O89    Zn504   1.947   .     S
O90    Zn167   1.947   .     S
O91    Zn168   1.966   .     S
O92    Zn503   1.966   .     S
O93    S149    1.501   .     D
O94    S149    1.503   .     D
O95    S149    1.681   .     S
O96    Zn334   1.997   .     S
O97    S157    1.502   .     D
O98    S157    1.502   .     D
O99    S157    1.677   .     S
O100   S158    1.500   .     D
O101   S158    1.503   .     D
O102   S158    1.673   .     S
O103   S159    1.501   .     D
O104   S159    1.502   .     D
O105   S159    1.682   .     S
O106   S160    1.502   .     D
O107   Zn333   1.978   .     S
O108   S160    1.502   .     D
O109   S160    1.680   .     S
O110   S161    1.497   .     D
O111   S161    1.502   .     D
O112   S161    1.675   .     S
O113   S162    1.499   .     D
O114   S162    1.503   .     D
O115   S162    1.676   .     S
O116   S163    1.501   .     D
O117   S163    1.503   .     D
O118   Zn166   1.978   .     S
O119   S163    1.681   .     S
O120   S164    1.501   .     D
O121   S164    1.503   .     D
O122   S164    1.681   .     S
O122   H394    0.989   .     S
O123   S150    1.502   .     D
O124   S150    1.502   .     D
O125   S150    1.677   .     S
O126   S151    1.500   .     D
O127   S151    1.503   .     D
O128   S151    1.673   .     S
O129   Zn334   1.947   .     S
O130   S152    1.501   .     D
O131   S152    1.502   .     D
O132   S152    1.682   .     S
O133   S153    1.502   .     D
O134   S153    1.502   .     D
O135   S153    1.680   .     S
O136   S154    1.497   .     D
O137   S154    1.502   .     D
O138   S154    1.675   .     S
O139   S155    1.499   .     D
O140   Zn165   1.947   .     S
O141   S155    1.503   .     D
O142   S155    1.676   .     S
O142   H401    0.990   1_545 S
O143   S156    1.501   .     D
O144   S156    1.503   .     D
O145   S156    1.682   .     S
O146   Zn166   1.966   .     S
O147   Zn333   1.966   .     S
O148   Zn503   1.997   .     S
Zn165  O315    1.966   1_455 S
Zn165  O275    1.978   1_455 S
Zn166  O297    1.947   1_455 S
Zn166  O264    1.997   1_455 S
Zn167  O428    1.966   1_545 S
Zn167  O484    1.997   1_545 S
Zn168  O425    1.947   1_545 S
Zn168  O424    1.978   1_545 S
C169   O253    1.285   .     A
C169   C198    1.453   .     S
C169   O286    1.308   .     A
C170   N249    1.428   .     S
C170   C843    1.420   .     S
C170   N73     1.379   1_655 S
C171   N250    1.431   .     S
C171   N77     1.362   1_655 A
C171   C1514   1.420   1_554 S
C172   N241    1.369   .     A
C172   N251    1.426   .     S
C172   C880    1.438   .     S
C173   N247    1.372   .     A
C173   N252    1.438   .     S
C173   C1520   1.438   1_554 S
C174   N242    1.428   .     S
C174   C847    1.420   .     S
C174   N582    1.379   .     S
C175   N243    1.431   .     S
C175   C1518   1.420   1_554 S
C175   N583    1.362   .     S
C176   N244    1.426   .     S
C176   N246    1.369   .     A
C176   C845    1.438   .     S
C177   S317    1.769   .     S
C177   C188    1.395   .     A
C177   C196    1.398   .     A
C178   C195    1.401   .     A
C178   C189    1.390   .     A
C178   S325    1.763   .     S
C179   C186    1.395   .     A
C179   C195    1.419   .     A
C179   S326    1.779   .     S
C180   C197    1.456   .     S
C180   O275    1.301   .     A
C180   O264    1.295   .     A
C181   C196    1.395   .     A
C181   C187    1.390   .     A
C181   S327    1.778   .     S
C182   C198    1.402   .     A
C182   S328    1.786   .     S
C182   C193    1.395   .     A
C183   C197    1.419   .     A
C183   C194    1.385   .     A
C183   S329    1.788   .     S
C184   S330    1.791   .     S
C184   C197    1.420   .     A
C184   C190    1.395   .     A
C185   S331    1.771   .     S
C185   C198    1.389   .     A
C185   C192    1.385   .     A
C186   S332    1.769   .     S
C186   C200    1.398   .     A
C187   C199    1.401   .     A
C187   S318    1.763   .     S
C188   S319    1.779   .     S
C188   C199    1.419   .     A
C189   S320    1.778   .     S
C189   C200    1.395   .     A
C190   C203    1.402   .     A
C190   S321    1.786   .     S
C191   O297    1.298   .     A
C191   O315    1.301   .     A
C191   C196    1.468   .     S
C192   S322    1.788   .     S
C192   C201    1.419   .     A
C193   S323    1.791   .     S
C193   C201    1.420   .     A
C194   S324    1.771   .     S
C194   C203    1.389   .     A
C195   C202    1.463   .     S
C199   C207    1.463   .     S
C200   C206    1.468   .     S
C201   C205    1.456   .     S
C202   O314    1.288   .     A
C202   O308    1.312   .     A
C203   C204    1.453   .     S
C204   O256    1.308   .     A
C204   O316    1.285   .     A
C205   O254    1.295   .     A
C205   O255    1.301   .     A
C206   O257    1.298   .     A
C206   O260    1.301   .     A
C207   O258    1.312   .     A
C207   O259    1.288   .     A
C208   N248    1.438   .     S
C208   C1516   1.438   1_554 S
C208   N245    1.372   .     S
H209   N80     1.038   1_655 S
H210   N252    1.041   .     S
H211   N242    1.040   .     S
H212   N242    1.043   .     S
H213   N243    1.045   .     S
H214   N243    1.043   .     S
H215   N244    1.044   .     S
H216   N244    1.044   .     S
H217   O263    0.989   .     S
H218   O267    0.988   .     S
H219   O270    0.990   .     S
H220   N248    1.041   .     S
H221   O273    0.990   .     S
H222   O277    0.990   .     S
H223   O280    0.987   .     S
H224   O283    0.990   .     S
H225   O287    0.988   .     S
H226   O626    0.989   1_545 S
H227   O293    0.988   .     S
H228   O296    0.990   .     S
H229   O300    0.990   .     S
H230   O303    0.990   .     S
H232   O306    0.987   .     S
H233   O646    0.990   .     S
H234   O313    0.988   .     S
H235   N249    1.043   .     S
H237   N250    1.043   .     S
H238   N251    1.044   .     S
H239   N83     1.044   1_655 S
H240   N252    1.038   .     S
N241   Zn333   2.024   .     S
N245   Zn334   2.024   .     S
N246   Zn335   2.024   .     S
N246   C510    1.379   1_545 S
N247   Zn336   2.024   .     S
N247   C511    1.362   1_545 S
N249   H63     1.040   1_655 S
N250   H68     1.045   1_655 S
O253   Zn333   1.997   .     S
O254   Zn336   1.997   .     S
O255   Zn335   1.978   .     S
O256   Zn672   1.978   .     S
O257   Zn672   1.947   .     S
O258   Zn335   1.947   .     S
O259   Zn336   1.966   .     S
O260   Zn671   1.966   .     S
O261   S317    1.501   .     D
O262   S317    1.503   .     D
O263   S317    1.681   .     S
O264   Zn166   1.997   1_655 S
O265   S325    1.502   .     D
O266   S325    1.502   .     D
O267   S325    1.677   .     S
O268   S326    1.500   .     D
O269   S326    1.503   .     D
O270   S326    1.673   .     S
O271   S327    1.501   .     D
O272   S327    1.502   .     D
O273   S327    1.682   .     S
O274   S328    1.502   .     D
O275   Zn165   1.978   1_655 S
O276   S328    1.502   .     D
O277   S328    1.680   .     S
O278   S329    1.497   .     D
O279   S329    1.502   .     D
O280   S329    1.675   .     S
O281   S330    1.499   .     D
O282   S330    1.503   .     D
O283   S330    1.676   .     S
O284   S331    1.501   .     D
O285   S331    1.503   .     D
O286   Zn334   1.978   .     S
O287   S331    1.681   .     S
O288   S332    1.501   .     D
O289   S332    1.503   .     D
O290   S332    1.681   .     S
O290   H562    0.989   .     S
O291   S318    1.502   .     D
O292   S318    1.502   .     D
O293   S318    1.677   .     S
O294   S319    1.500   .     D
O295   S319    1.503   .     D
O296   S319    1.673   .     S
O297   Zn166   1.947   1_655 S
O298   S320    1.501   .     D
O299   S320    1.502   .     D
O300   S320    1.682   .     S
O301   S321    1.502   .     D
O302   S321    1.502   .     D
O303   S321    1.680   .     S
O304   S322    1.497   .     D
O305   S322    1.502   .     D
O306   S322    1.675   .     S
O307   S323    1.499   .     D
O308   Zn333   1.947   .     S
O309   S323    1.503   .     D
O310   S323    1.676   .     S
O310   H569    0.990   1_545 S
O311   S324    1.501   .     D
O312   S324    1.503   .     D
O313   S324    1.682   .     S
O314   Zn334   1.966   .     S
O315   Zn165   1.966   1_655 S
O316   Zn671   1.997   .     S
Zn335  O596    1.966   1_545 S
Zn335  O652    1.997   1_545 S
Zn336  O593    1.947   1_545 S
Zn336  O592    1.978   1_545 S
C337   O421    1.285   .     A
C337   C366    1.453   .     S
C337   O454    1.308   .     A
C338   N417    1.428   .     S
C338   C1011   1.420   .     S
C338   N577    1.379   .     S
C339   N418    1.431   .     S
C339   N581    1.362   .     A
C339   C1682   1.420   1_554 S
C340   N409    1.369   .     A
C340   N419    1.426   .     S
C340   C1048   1.438   .     S
C341   N415    1.372   .     A
C341   N420    1.438   .     S
C341   C1688   1.438   1_554 S
C342   N410    1.428   .     S
C342   C1015   1.420   .     S
C342   N78     1.379   1_565 S
C343   N411    1.431   .     S
C343   C1686   1.420   1_554 S
C343   N79     1.362   1_565 S
C344   N412    1.426   .     S
C344   N414    1.369   .     A
C344   C1013   1.438   .     S
C345   S485    1.769   .     S
C345   C356    1.395   .     A
C345   C364    1.398   .     A
C346   C363    1.401   .     A
C346   C357    1.390   .     A
C346   S493    1.763   .     S
C347   C354    1.395   .     A
C347   C363    1.419   .     A
C347   S494    1.779   .     S
C348   C365    1.456   .     S
C348   O443    1.301   .     A
C348   O432    1.295   .     A
C349   C364    1.395   .     A
C349   C355    1.390   .     A
C349   S495    1.778   .     S
C350   C366    1.402   .     A
C350   S496    1.786   .     S
C350   C361    1.395   .     A
C351   C365    1.419   .     A
C351   C362    1.385   .     A
C351   S497    1.788   .     S
C352   S498    1.791   .     S
C352   C365    1.420   .     A
C352   C358    1.395   .     A
C353   S499    1.771   .     S
C353   C366    1.389   .     A
C353   C360    1.385   .     A
C354   S500    1.769   .     S
C354   C368    1.398   .     A
C355   C367    1.401   .     A
C355   S486    1.763   .     S
C356   S487    1.779   .     S
C356   C367    1.419   .     A
C357   S488    1.778   .     S
C357   C368    1.395   .     A
C358   C371    1.402   .     A
C358   S489    1.786   .     S
C359   O465    1.298   .     A
C359   O483    1.301   .     A
C359   C364    1.468   .     S
C360   S490    1.788   .     S
C360   C369    1.419   .     A
C361   S491    1.791   .     S
C361   C369    1.420   .     A
C362   S492    1.771   .     S
C362   C371    1.389   .     A
C363   C370    1.463   .     S
C367   C375    1.463   .     S
C368   C374    1.468   .     S
C369   C373    1.456   .     S
C370   O482    1.288   .     A
C370   O476    1.312   .     A
C371   C372    1.453   .     S
C372   O424    1.308   .     A
C372   O484    1.285   .     A
C373   O422    1.295   .     A
C373   O423    1.301   .     A
C374   O425    1.298   .     A
C374   O428    1.301   .     A
C375   O426    1.312   .     A
C375   O427    1.288   .     A
C376   N416    1.438   .     S
C376   C1684   1.438   1_554 S
C376   N413    1.372   .     S
H377   N584    1.038   .     S
H378   N420    1.041   .     S
H379   N410    1.040   .     S
H380   N410    1.043   .     S
H381   N411    1.045   .     S
H382   N411    1.043   .     S
H383   N412    1.044   .     S
H384   N412    1.044   .     S
H385   O431    0.989   .     S
H386   O435    0.988   .     S
H387   O438    0.990   .     S
H388   N416    1.041   .     S
H389   O441    0.990   .     S
H390   O445    0.990   .     S
H391   O448    0.987   .     S
H392   O451    0.990   .     S
H393   O455    0.988   .     S
H395   O461    0.988   .     S
H396   O464    0.990   .     S
H397   O468    0.990   .     S
H398   O471    0.990   .     S
H399   N585    1.040   1_455 S
H400   O474    0.987   .     S
H401   O142    0.990   1_565 S
H402   O481    0.988   .     S
H403   N417    1.043   .     S
H404   N586    1.045   1_455 S
H405   N418    1.043   .     S
H406   N419    1.044   .     S
H407   N587    1.044   .     S
H408   N420    1.038   .     S
N409   Zn501   2.024   .     S
N409   C506    1.379   1_455 S
N413   C507    1.362   1_455 A
N413   Zn502   2.024   .     S
N414   Zn503   2.024   .     S
N415   Zn504   2.024   .     S
N416   H545    1.038   1_455 S
N417   H567    1.040   .     S
N418   H572    1.045   .     S
N419   H575    1.044   1_455 S
O421   Zn501   1.997   .     S
O422   Zn504   1.997   .     S
O423   Zn503   1.978   .     S
O424   Zn168   1.978   1_565 S
O425   Zn168   1.947   1_565 S
O426   Zn503   1.947   .     S
O427   Zn504   1.966   .     S
O428   Zn167   1.966   1_565 S
O429   S485    1.501   .     D
O430   S485    1.503   .     D
O431   S485    1.681   .     S
O432   Zn670   1.997   .     S
O433   S493    1.502   .     D
O434   S493    1.502   .     D
O435   S493    1.677   .     S
O436   S494    1.500   .     D
O437   S494    1.503   .     D
O438   S494    1.673   .     S
O439   S495    1.501   .     D
O440   S495    1.502   .     D
O441   S495    1.682   .     S
O442   S496    1.502   .     D
O443   Zn669   1.978   .     S
O444   S496    1.502   .     D
O445   S496    1.680   .     S
O446   S497    1.497   .     D
O447   S497    1.502   .     D
O448   S497    1.675   .     S
O449   S498    1.499   .     D
O450   S498    1.503   .     D
O451   S498    1.676   .     S
O452   S499    1.501   .     D
O453   S499    1.503   .     D
O454   Zn502   1.978   .     S
O455   S499    1.681   .     S
O456   S500    1.501   .     D
O457   S500    1.503   .     D
O458   S500    1.681   .     S
O458   H58     0.989   1_565 S
O459   S486    1.502   .     D
O460   S486    1.502   .     D
O461   S486    1.677   .     S
O462   S487    1.500   .     D
O463   S487    1.503   .     D
O464   S487    1.673   .     S
O465   Zn670   1.947   .     S
O466   S488    1.501   .     D
O467   S488    1.502   .     D
O468   S488    1.682   .     S
O469   S489    1.502   .     D
O470   S489    1.502   .     D
O471   S489    1.680   .     S
O472   S490    1.497   .     D
O473   S490    1.502   .     D
O474   S490    1.675   .     S
O475   S491    1.499   .     D
O476   Zn501   1.947   .     S
O477   S491    1.503   .     D
O478   S491    1.676   .     S
O479   S492    1.501   .     D
O480   S492    1.503   .     D
O481   S492    1.682   .     S
O482   Zn502   1.966   .     S
O483   Zn669   1.966   .     S
O484   Zn167   1.997   1_565 S
Zn501  O651    1.966   1_455 S
Zn501  O611    1.978   1_455 S
Zn502  O633    1.947   1_455 S
Zn502  O600    1.997   1_455 S
C505   O589    1.285   .     A
C505   C534    1.453   .     S
C505   O622    1.308   .     A
C506   N585    1.428   .     S
C506   C1179   1.420   .     S
C506   N409    1.379   1_655 S
C507   N586    1.431   .     S
C507   N413    1.362   1_655 A
C507   C1850   1.420   1_554 S
C508   N577    1.369   .     A
C508   N587    1.426   .     S
C508   C1216   1.438   .     S
C509   N583    1.372   .     A
C509   N588    1.438   .     S
C509   C1856   1.438   1_554 S
C510   N578    1.428   .     S
C510   C1183   1.420   .     S
C510   N246    1.379   1_565 S
C511   N579    1.431   .     S
C511   C1854   1.420   1_554 S
C511   N247    1.362   1_565 S
C512   N580    1.426   .     S
C512   N582    1.369   .     A
C512   C1181   1.438   .     S
C513   S653    1.769   .     S
C513   C524    1.395   .     A
C513   C532    1.398   .     A
C514   C531    1.401   .     A
C514   C525    1.390   .     A
C514   S661    1.763   .     S
C515   C522    1.395   .     A
C515   C531    1.419   .     A
C515   S662    1.779   .     S
C516   C533    1.456   .     S
C516   O611    1.301   .     A
C516   O600    1.295   .     A
C517   C532    1.395   .     A
C517   C523    1.390   .     A
C517   S663    1.778   .     S
C518   C534    1.402   .     A
C518   S664    1.786   .     S
C518   C529    1.395   .     A
C519   C533    1.419   .     A
C519   C530    1.385   .     A
C519   S665    1.788   .     S
C520   S666    1.791   .     S
C520   C533    1.420   .     A
C520   C526    1.395   .     A
C521   S667    1.771   .     S
C521   C534    1.389   .     A
C521   C528    1.385   .     A
C522   S668    1.769   .     S
C522   C536    1.398   .     A
C523   C535    1.401   .     A
C523   S654    1.763   .     S
C524   S655    1.779   .     S
C524   C535    1.419   .     A
C525   S656    1.778   .     S
C525   C536    1.395   .     A
C526   C539    1.402   .     A
C526   S657    1.786   .     S
C527   O633    1.298   .     A
C527   O651    1.301   .     A
C527   C532    1.468   .     S
C528   S658    1.788   .     S
C528   C537    1.419   .     A
C529   S659    1.791   .     S
C529   C537    1.420   .     A
C530   S660    1.771   .     S
C530   C539    1.389   .     A
C531   C538    1.463   .     S
C535   C543    1.463   .     S
C536   C542    1.468   .     S
C537   C541    1.456   .     S
C538   O650    1.288   .     A
C538   O644    1.312   .     A
C539   C540    1.453   .     S
C540   O592    1.308   .     A
C540   O652    1.285   .     A
C541   O590    1.295   .     A
C541   O591    1.301   .     A
C542   O593    1.298   .     A
C542   O596    1.301   .     A
C543   O594    1.312   .     A
C543   O595    1.288   .     A
C544   N584    1.438   .     S
C544   C1852   1.438   1_554 S
C544   N581    1.372   .     S
H545   N416    1.038   1_655 S
H546   N588    1.041   .     S
H547   N578    1.040   .     S
H548   N578    1.043   .     S
H549   N579    1.045   .     S
H550   N579    1.043   .     S
H551   N580    1.044   .     S
H552   N580    1.044   .     S
H553   O599    0.989   .     S
H554   O603    0.988   .     S
H555   O606    0.990   .     S
H556   N584    1.041   .     S
H557   O609    0.990   .     S
H558   O613    0.990   .     S
H559   O616    0.987   .     S
H560   O619    0.990   .     S
H561   O623    0.988   .     S
H563   O629    0.988   .     S
H564   O632    0.990   .     S
H565   O636    0.990   .     S
H566   O639    0.990   .     S
H568   O642    0.987   .     S
H569   O310    0.990   1_565 S
H570   O649    0.988   .     S
H571   N585    1.043   .     S
H573   N586    1.043   .     S
H574   N587    1.044   .     S
H575   N419    1.044   1_655 S
H576   N588    1.038   .     S
N577   Zn669   2.024   .     S
N581   Zn670   2.024   .     S
N582   Zn671   2.024   .     S
N583   Zn672   2.024   .     S
N585   H399    1.040   1_655 S
N586   H404    1.045   1_655 S
O589   Zn669   1.997   .     S
O590   Zn672   1.997   .     S
O591   Zn671   1.978   .     S
O592   Zn336   1.978   1_565 S
O593   Zn336   1.947   1_565 S
O594   Zn671   1.947   .     S
O595   Zn672   1.966   .     S
O596   Zn335   1.966   1_565 S
O597   S653    1.501   .     D
O598   S653    1.503   .     D
O599   S653    1.681   .     S
O600   Zn502   1.997   1_655 S
O601   S661    1.502   .     D
O602   S661    1.502   .     D
O603   S661    1.677   .     S
O604   S662    1.500   .     D
O605   S662    1.503   .     D
O606   S662    1.673   .     S
O607   S663    1.501   .     D
O608   S663    1.502   .     D
O609   S663    1.682   .     S
O610   S664    1.502   .     D
O611   Zn501   1.978   1_655 S
O612   S664    1.502   .     D
O613   S664    1.680   .     S
O614   S665    1.497   .     D
O615   S665    1.502   .     D
O616   S665    1.675   .     S
O617   S666    1.499   .     D
O618   S666    1.503   .     D
O619   S666    1.676   .     S
O620   S667    1.501   .     D
O621   S667    1.503   .     D
O622   Zn670   1.978   .     S
O623   S667    1.681   .     S
O624   S668    1.501   .     D
O625   S668    1.503   .     D
O626   S668    1.681   .     S
O626   H226    0.989   1_565 S
O627   S654    1.502   .     D
O628   S654    1.502   .     D
O629   S654    1.677   .     S
O630   S655    1.500   .     D
O631   S655    1.503   .     D
O632   S655    1.673   .     S
O633   Zn502   1.947   1_655 S
O634   S656    1.501   .     D
O635   S656    1.502   .     D
O636   S656    1.682   .     S
O637   S657    1.502   .     D
O638   S657    1.502   .     D
O639   S657    1.680   .     S
O640   S658    1.497   .     D
O641   S658    1.502   .     D
O642   S658    1.675   .     S
O643   S659    1.499   .     D
O644   Zn669   1.947   .     S
O645   S659    1.503   .     D
O646   S659    1.676   .     S
O647   S660    1.501   .     D
O648   S660    1.503   .     D
O649   S660    1.682   .     S
O650   Zn670   1.966   .     S
O651   Zn501   1.966   1_655 S
O652   Zn335   1.997   1_565 S
C673   O757    1.285   .     A
C673   C702    1.453   .     S
C673   O790    1.308   .     A
C674   N753    1.428   .     S
C674   C1347   1.420   .     S
C674   N913    1.379   .     S
C675   N754    1.431   .     S
C675   N917    1.362   .     A
C676   N745    1.369   .     A
C676   N755    1.426   .     S
C676   C1384   1.438   .     S
C677   N751    1.372   .     A
C677   N756    1.438   .     S
C678   N746    1.428   .     S
C678   C1351   1.420   .     S
C678   N1086   1.379   .     S
C679   N747    1.431   .     S
C679   N1087   1.362   .     S
C680   N748    1.426   .     S
C680   N750    1.369   .     A
C680   C1349   1.438   .     S
C681   S821    1.769   .     S
C681   C692    1.395   .     A
C681   C700    1.398   .     A
C682   C699    1.401   .     A
C682   C693    1.390   .     A
C682   S829    1.763   .     S
C683   C690    1.395   .     A
C683   C699    1.419   .     A
C683   S830    1.779   .     S
C684   C701    1.456   .     S
C684   O779    1.301   .     A
C684   O768    1.295   .     A
C685   C700    1.395   .     A
C685   C691    1.390   .     A
C685   S831    1.778   .     S
C686   C702    1.402   .     A
C686   S832    1.786   .     S
C686   C697    1.395   .     A
C687   C701    1.419   .     A
C687   C698    1.385   .     A
C687   S833    1.788   .     S
C688   S834    1.791   .     S
C688   C701    1.420   .     A
C688   C694    1.395   .     A
C689   S835    1.771   .     S
C689   C702    1.389   .     A
C689   C696    1.385   .     A
C690   S836    1.769   .     S
C690   C704    1.398   .     A
C691   C703    1.401   .     A
C691   S822    1.763   .     S
C692   S823    1.779   .     S
C692   C703    1.419   .     A
C693   S824    1.778   .     S
C693   C704    1.395   .     A
C694   C707    1.402   .     A
C694   S825    1.786   .     S
C695   O801    1.298   .     A
C695   O819    1.301   .     A
C695   C700    1.468   .     S
C696   S826    1.788   .     S
C696   C705    1.419   .     A
C697   S827    1.791   .     S
C697   C705    1.420   .     A
C698   S828    1.771   .     S
C698   C707    1.389   .     A
C699   C706    1.463   .     S
C703   C711    1.463   .     S
C704   C710    1.468   .     S
C705   C709    1.456   .     S
C706   O818    1.288   .     A
C706   O812    1.312   .     A
C707   C708    1.453   .     S
C708   O760    1.308   .     A
C708   O820    1.285   .     A
C709   O758    1.295   .     A
C709   O759    1.301   .     A
C710   O761    1.298   .     A
C710   O764    1.301   .     A
C711   O762    1.312   .     A
C711   O763    1.288   .     A
C712   N752    1.438   .     S
C712   N749    1.372   .     S
H713   N920    1.038   .     S
H714   N756    1.041   .     S
H715   N746    1.040   .     S
H716   N746    1.043   .     S
H717   N747    1.045   .     S
H718   N747    1.043   .     S
H719   N748    1.044   .     S
H720   N748    1.044   .     S
H721   O767    0.989   .     S
H722   O771    0.988   .     S
H723   O774    0.990   .     S
H724   N752    1.041   .     S
H725   O777    0.990   .     S
H726   O781    0.990   .     S
H727   O784    0.987   .     S
H728   O787    0.990   .     S
H729   O791    0.988   .     S
H730   O1130   0.989   1_545 S
H731   O797    0.988   .     S
H732   O800    0.990   .     S
H733   O804    0.990   .     S
H734   O807    0.990   .     S
H735   N921    1.040   1_455 S
H736   O810    0.987   .     S
H737   O1150   0.990   .     S
H738   O817    0.988   .     S
H739   N753    1.043   .     S
H740   N922    1.045   1_455 S
H741   N754    1.043   .     S
H742   N755    1.044   .     S
H743   N923    1.044   .     S
H744   N756    1.038   .     S
N745   Zn837   2.024   .     S
N745   C842    1.379   1_455 S
N749   C843    1.362   1_455 A
N749   Zn838   2.024   .     S
N750   Zn839   2.024   .     S
N750   C1014   1.379   1_545 S
N751   Zn840   2.024   .     S
N751   C1015   1.362   1_545 S
N752   H881    1.038   1_455 S
N753   H903    1.040   .     S
N754   H908    1.045   .     S
N755   H911    1.044   1_455 S
O757   Zn837   1.997   .     S
O758   Zn840   1.997   .     S
O759   Zn839   1.978   .     S
O760   Zn1176  1.978   .     S
O761   Zn1176  1.947   .     S
O762   Zn839   1.947   .     S
O763   Zn840   1.966   .     S
O764   Zn1175  1.966   .     S
O765   S821    1.501   .     D
O766   S821    1.503   .     D
O767   S821    1.681   .     S
O768   Zn1006  1.997   .     S
O769   S829    1.502   .     D
O770   S829    1.502   .     D
O771   S829    1.677   .     S
O772   S830    1.500   .     D
O773   S830    1.503   .     D
O774   S830    1.673   .     S
O775   S831    1.501   .     D
O776   S831    1.502   .     D
O777   S831    1.682   .     S
O778   S832    1.502   .     D
O779   Zn1005  1.978   .     S
O780   S832    1.502   .     D
O781   S832    1.680   .     S
O782   S833    1.497   .     D
O783   S833    1.502   .     D
O784   S833    1.675   .     S
O785   S834    1.499   .     D
O786   S834    1.503   .     D
O787   S834    1.676   .     S
O788   S835    1.501   .     D
O789   S835    1.503   .     D
O790   Zn838   1.978   .     S
O791   S835    1.681   .     S
O792   S836    1.501   .     D
O793   S836    1.503   .     D
O794   S836    1.681   .     S
O794   H1066   0.989   .     S
O795   S822    1.502   .     D
O796   S822    1.502   .     D
O797   S822    1.677   .     S
O798   S823    1.500   .     D
O799   S823    1.503   .     D
O800   S823    1.673   .     S
O801   Zn1006  1.947   .     S
O802   S824    1.501   .     D
O803   S824    1.502   .     D
O804   S824    1.682   .     S
O805   S825    1.502   .     D
O806   S825    1.502   .     D
O807   S825    1.680   .     S
O808   S826    1.497   .     D
O809   S826    1.502   .     D
O810   S826    1.675   .     S
O811   S827    1.499   .     D
O812   Zn837   1.947   .     S
O813   S827    1.503   .     D
O814   S827    1.676   .     S
O814   H1073   0.990   1_545 S
O815   S828    1.501   .     D
O816   S828    1.503   .     D
O817   S828    1.682   .     S
O818   Zn838   1.966   .     S
O819   Zn1005  1.966   .     S
O820   Zn1175  1.997   .     S
Zn837  O987    1.966   1_455 S
Zn837  O947    1.978   1_455 S
Zn838  O969    1.947   1_455 S
Zn838  O936    1.997   1_455 S
Zn839  O1100   1.966   1_545 S
Zn839  O1156   1.997   1_545 S
Zn840  O1097   1.947   1_545 S
Zn840  O1096   1.978   1_545 S
C841   O925    1.285   .     A
C841   C870    1.453   .     S
C841   O958    1.308   .     A
C842   N921    1.428   .     S
C842   C1515   1.420   .     S
C842   N745    1.379   1_655 S
C843   N922    1.431   .     S
C843   N749    1.362   1_655 A
C844   N913    1.369   .     A
C844   N923    1.426   .     S
C844   C1552   1.438   .     S
C845   N919    1.372   .     A
C845   N924    1.438   .     S
C846   N914    1.428   .     S
C846   C1519   1.420   .     S
C846   N1254   1.379   .     S
C847   N915    1.431   .     S
C847   N1255   1.362   .     S
C848   N916    1.426   .     S
C848   N918    1.369   .     A
C848   C1517   1.438   .     S
C849   S989    1.769   .     S
C849   C860    1.395   .     A
C849   C868    1.398   .     A
C850   C867    1.401   .     A
C850   C861    1.390   .     A
C850   S997    1.763   .     S
C851   C858    1.395   .     A
C851   C867    1.419   .     A
C851   S998    1.779   .     S
C852   C869    1.456   .     S
C852   O947    1.301   .     A
C852   O936    1.295   .     A
C853   C868    1.395   .     A
C853   C859    1.390   .     A
C853   S999    1.778   .     S
C854   C870    1.402   .     A
C854   S1000   1.786   .     S
C854   C865    1.395   .     A
C855   C869    1.419   .     A
C855   C866    1.385   .     A
C855   S1001   1.788   .     S
C856   S1002   1.791   .     S
C856   C869    1.420   .     A
C856   C862    1.395   .     A
C857   S1003   1.771   .     S
C857   C870    1.389   .     A
C857   C864    1.385   .     A
C858   S1004   1.769   .     S
C858   C872    1.398   .     A
C859   C871    1.401   .     A
C859   S990    1.763   .     S
C860   S991    1.779   .     S
C860   C871    1.419   .     A
C861   S992    1.778   .     S
C861   C872    1.395   .     A
C862   C875    1.402   .     A
C862   S993    1.786   .     S
C863   O969    1.298   .     A
C863   O987    1.301   .     A
C863   C868    1.468   .     S
C864   S994    1.788   .     S
C864   C873    1.419   .     A
C865   S995    1.791   .     S
C865   C873    1.420   .     A
C866   S996    1.771   .     S
C866   C875    1.389   .     A
C867   C874    1.463   .     S
C871   C879    1.463   .     S
C872   C878    1.468   .     S
C873   C877    1.456   .     S
C874   O986    1.288   .     A
C874   O980    1.312   .     A
C875   C876    1.453   .     S
C876   O928    1.308   .     A
C876   O988    1.285   .     A
C877   O926    1.295   .     A
C877   O927    1.301   .     A
C878   O929    1.298   .     A
C878   O932    1.301   .     A
C879   O930    1.312   .     A
C879   O931    1.288   .     A
C880   N920    1.438   .     S
C880   N917    1.372   .     S
H881   N752    1.038   1_655 S
H882   N924    1.041   .     S
H883   N914    1.040   .     S
H884   N914    1.043   .     S
H885   N915    1.045   .     S
H886   N915    1.043   .     S
H887   N916    1.044   .     S
H888   N916    1.044   .     S
H889   O935    0.989   .     S
H890   O939    0.988   .     S
H891   O942    0.990   .     S
H892   N920    1.041   .     S
H893   O945    0.990   .     S
H894   O949    0.990   .     S
H895   O952    0.987   .     S
H896   O955    0.990   .     S
H897   O959    0.988   .     S
H898   O1298   0.989   1_545 S
H899   O965    0.988   .     S
H900   O968    0.990   .     S
H901   O972    0.990   .     S
H902   O975    0.990   .     S
H904   O978    0.987   .     S
H905   O1318   0.990   .     S
H906   O985    0.988   .     S
H907   N921    1.043   .     S
H909   N922    1.043   .     S
H910   N923    1.044   .     S
H911   N755    1.044   1_655 S
H912   N924    1.038   .     S
N913   Zn1005  2.024   .     S
N917   Zn1006  2.024   .     S
N918   Zn1007  2.024   .     S
N918   C1182   1.379   1_545 S
N919   Zn1008  2.024   .     S
N919   C1183   1.362   1_545 S
N921   H735    1.040   1_655 S
N922   H740    1.045   1_655 S
O925   Zn1005  1.997   .     S
O926   Zn1008  1.997   .     S
O927   Zn1007  1.978   .     S
O928   Zn1344  1.978   .     S
O929   Zn1344  1.947   .     S
O930   Zn1007  1.947   .     S
O931   Zn1008  1.966   .     S
O932   Zn1343  1.966   .     S
O933   S989    1.501   .     D
O934   S989    1.503   .     D
O935   S989    1.681   .     S
O936   Zn838   1.997   1_655 S
O937   S997    1.502   .     D
O938   S997    1.502   .     D
O939   S997    1.677   .     S
O940   S998    1.500   .     D
O941   S998    1.503   .     D
O942   S998    1.673   .     S
O943   S999    1.501   .     D
O944   S999    1.502   .     D
O945   S999    1.682   .     S
O946   S1000   1.502   .     D
O947   Zn837   1.978   1_655 S
O948   S1000   1.502   .     D
O949   S1000   1.680   .     S
O950   S1001   1.497   .     D
O951   S1001   1.502   .     D
O952   S1001   1.675   .     S
O953   S1002   1.499   .     D
O954   S1002   1.503   .     D
O955   S1002   1.676   .     S
O956   S1003   1.501   .     D
O957   S1003   1.503   .     D
O958   Zn1006  1.978   .     S
O959   S1003   1.681   .     S
O960   S1004   1.501   .     D
O961   S1004   1.503   .     D
O962   S1004   1.681   .     S
O962   H1234   0.989   .     S
O963   S990    1.502   .     D
O964   S990    1.502   .     D
O965   S990    1.677   .     S
O966   S991    1.500   .     D
O967   S991    1.503   .     D
O968   S991    1.673   .     S
O969   Zn838   1.947   1_655 S
O970   S992    1.501   .     D
O971   S992    1.502   .     D
O972   S992    1.682   .     S
O973   S993    1.502   .     D
O974   S993    1.502   .     D
O975   S993    1.680   .     S
O976   S994    1.497   .     D
O977   S994    1.502   .     D
O978   S994    1.675   .     S
O979   S995    1.499   .     D
O980   Zn1005  1.947   .     S
O981   S995    1.503   .     D
O982   S995    1.676   .     S
O982   H1241   0.990   1_545 S
O983   S996    1.501   .     D
O984   S996    1.503   .     D
O985   S996    1.682   .     S
O986   Zn1006  1.966   .     S
O987   Zn837   1.966   1_655 S
O988   Zn1343  1.997   .     S
Zn1007 O1268   1.966   1_545 S
Zn1007 O1324   1.997   1_545 S
Zn1008 O1265   1.947   1_545 S
Zn1008 O1264   1.978   1_545 S
C1009  O1093   1.285   .     A
C1009  C1038   1.453   .     S
C1009  O1126   1.308   .     A
C1010  N1089   1.428   .     S
C1010  C1683   1.420   .     S
C1010  N1249   1.379   .     S
C1011  N1090   1.431   .     S
C1011  N1253   1.362   .     A
C1012  N1081   1.369   .     A
C1012  N1091   1.426   .     S
C1012  C1720   1.438   .     S
C1013  N1087   1.372   .     A
C1013  N1092   1.438   .     S
C1014  N1082   1.428   .     S
C1014  C1687   1.420   .     S
C1014  N750    1.379   1_565 S
C1015  N1083   1.431   .     S
C1015  N751    1.362   1_565 S
C1016  N1084   1.426   .     S
C1016  N1086   1.369   .     A
C1016  C1685   1.438   .     S
C1017  S1157   1.769   .     S
C1017  C1028   1.395   .     A
C1017  C1036   1.398   .     A
C1018  C1035   1.401   .     A
C1018  C1029   1.390   .     A
C1018  S1165   1.763   .     S
C1019  C1026   1.395   .     A
C1019  C1035   1.419   .     A
C1019  S1166   1.779   .     S
C1020  C1037   1.456   .     S
C1020  O1115   1.301   .     A
C1020  O1104   1.295   .     A
C1021  C1036   1.395   .     A
C1021  C1027   1.390   .     A
C1021  S1167   1.778   .     S
C1022  C1038   1.402   .     A
C1022  S1168   1.786   .     S
C1022  C1033   1.395   .     A
C1023  C1037   1.419   .     A
C1023  C1034   1.385   .     A
C1023  S1169   1.788   .     S
C1024  S1170   1.791   .     S
C1024  C1037   1.420   .     A
C1024  C1030   1.395   .     A
C1025  S1171   1.771   .     S
C1025  C1038   1.389   .     A
C1025  C1032   1.385   .     A
C1026  S1172   1.769   .     S
C1026  C1040   1.398   .     A
C1027  C1039   1.401   .     A
C1027  S1158   1.763   .     S
C1028  S1159   1.779   .     S
C1028  C1039   1.419   .     A
C1029  S1160   1.778   .     S
C1029  C1040   1.395   .     A
C1030  C1043   1.402   .     A
C1030  S1161   1.786   .     S
C1031  O1137   1.298   .     A
C1031  O1155   1.301   .     A
C1031  C1036   1.468   .     S
C1032  S1162   1.788   .     S
C1032  C1041   1.419   .     A
C1033  S1163   1.791   .     S
C1033  C1041   1.420   .     A
C1034  S1164   1.771   .     S
C1034  C1043   1.389   .     A
C1035  C1042   1.463   .     S
C1039  C1047   1.463   .     S
C1040  C1046   1.468   .     S
C1041  C1045   1.456   .     S
C1042  O1154   1.288   .     A
C1042  O1148   1.312   .     A
C1043  C1044   1.453   .     S
C1044  O1096   1.308   .     A
C1044  O1156   1.285   .     A
C1045  O1094   1.295   .     A
C1045  O1095   1.301   .     A
C1046  O1097   1.298   .     A
C1046  O1100   1.301   .     A
C1047  O1098   1.312   .     A
C1047  O1099   1.288   .     A
C1048  N1088   1.438   .     S
C1048  N1085   1.372   .     S
H1049  N1256   1.038   .     S
H1050  N1092   1.041   .     S
H1051  N1082   1.040   .     S
H1052  N1082   1.043   .     S
H1053  N1083   1.045   .     S
H1054  N1083   1.043   .     S
H1055  N1084   1.044   .     S
H1056  N1084   1.044   .     S
H1057  O1103   0.989   .     S
H1058  O1107   0.988   .     S
H1059  O1110   0.990   .     S
H1060  N1088   1.041   .     S
H1061  O1113   0.990   .     S
H1062  O1117   0.990   .     S
H1063  O1120   0.987   .     S
H1064  O1123   0.990   .     S
H1065  O1127   0.988   .     S
H1067  O1133   0.988   .     S
H1068  O1136   0.990   .     S
H1069  O1140   0.990   .     S
H1070  O1143   0.990   .     S
H1071  N1257   1.040   1_455 S
H1072  O1146   0.987   .     S
H1073  O814    0.990   1_565 S
H1074  O1153   0.988   .     S
H1075  N1089   1.043   .     S
H1076  N1258   1.045   1_455 S
H1077  N1090   1.043   .     S
H1078  N1091   1.044   .     S
H1079  N1259   1.044   .     S
H1080  N1092   1.038   .     S
N1081  Zn1173  2.024   .     S
N1081  C1178   1.379   1_455 S
N1085  C1179   1.362   1_455 A
N1085  Zn1174  2.024   .     S
N1086  Zn1175  2.024   .     S
N1087  Zn1176  2.024   .     S
N1088  H1217   1.038   1_455 S
N1089  H1239   1.040   .     S
N1090  H1244   1.045   .     S
N1091  H1247   1.044   1_455 S
O1093  Zn1173  1.997   .     S
O1094  Zn1176  1.997   .     S
O1095  Zn1175  1.978   .     S
O1096  Zn840   1.978   1_565 S
O1097  Zn840   1.947   1_565 S
O1098  Zn1175  1.947   .     S
O1099  Zn1176  1.966   .     S
O1100  Zn839   1.966   1_565 S
O1101  S1157   1.501   .     D
O1102  S1157   1.503   .     D
O1103  S1157   1.681   .     S
O1104  Zn1342  1.997   .     S
O1105  S1165   1.502   .     D
O1106  S1165   1.502   .     D
O1107  S1165   1.677   .     S
O1108  S1166   1.500   .     D
O1109  S1166   1.503   .     D
O1110  S1166   1.673   .     S
O1111  S1167   1.501   .     D
O1112  S1167   1.502   .     D
O1113  S1167   1.682   .     S
O1114  S1168   1.502   .     D
O1115  Zn1341  1.978   .     S
O1116  S1168   1.502   .     D
O1117  S1168   1.680   .     S
O1118  S1169   1.497   .     D
O1119  S1169   1.502   .     D
O1120  S1169   1.675   .     S
O1121  S1170   1.499   .     D
O1122  S1170   1.503   .     D
O1123  S1170   1.676   .     S
O1124  S1171   1.501   .     D
O1125  S1171   1.503   .     D
O1126  Zn1174  1.978   .     S
O1127  S1171   1.681   .     S
O1128  S1172   1.501   .     D
O1129  S1172   1.503   .     D
O1130  S1172   1.681   .     S
O1130  H730    0.989   1_565 S
O1131  S1158   1.502   .     D
O1132  S1158   1.502   .     D
O1133  S1158   1.677   .     S
O1134  S1159   1.500   .     D
O1135  S1159   1.503   .     D
O1136  S1159   1.673   .     S
O1137  Zn1342  1.947   .     S
O1138  S1160   1.501   .     D
O1139  S1160   1.502   .     D
O1140  S1160   1.682   .     S
O1141  S1161   1.502   .     D
O1142  S1161   1.502   .     D
O1143  S1161   1.680   .     S
O1144  S1162   1.497   .     D
O1145  S1162   1.502   .     D
O1146  S1162   1.675   .     S
O1147  S1163   1.499   .     D
O1148  Zn1173  1.947   .     S
O1149  S1163   1.503   .     D
O1150  S1163   1.676   .     S
O1151  S1164   1.501   .     D
O1152  S1164   1.503   .     D
O1153  S1164   1.682   .     S
O1154  Zn1174  1.966   .     S
O1155  Zn1341  1.966   .     S
O1156  Zn839   1.997   1_565 S
Zn1173 O1323   1.966   1_455 S
Zn1173 O1283   1.978   1_455 S
Zn1174 O1305   1.947   1_455 S
Zn1174 O1272   1.997   1_455 S
C1177  O1261   1.285   .     A
C1177  C1206   1.453   .     S
C1177  O1294   1.308   .     A
C1178  N1257   1.428   .     S
C1178  C1851   1.420   .     S
C1178  N1081   1.379   1_655 S
C1179  N1258   1.431   .     S
C1179  N1085   1.362   1_655 A
C1180  N1249   1.369   .     A
C1180  N1259   1.426   .     S
C1180  C1888   1.438   .     S
C1181  N1255   1.372   .     A
C1181  N1260   1.438   .     S
C1182  N1250   1.428   .     S
C1182  C1855   1.420   .     S
C1182  N918    1.379   1_565 S
C1183  N1251   1.431   .     S
C1183  N919    1.362   1_565 S
C1184  N1252   1.426   .     S
C1184  N1254   1.369   .     A
C1184  C1853   1.438   .     S
C1185  S1325   1.769   .     S
C1185  C1196   1.395   .     A
C1185  C1204   1.398   .     A
C1186  C1203   1.401   .     A
C1186  C1197   1.390   .     A
C1186  S1333   1.763   .     S
C1187  C1194   1.395   .     A
C1187  C1203   1.419   .     A
C1187  S1334   1.779   .     S
C1188  C1205   1.456   .     S
C1188  O1283   1.301   .     A
C1188  O1272   1.295   .     A
C1189  C1204   1.395   .     A
C1189  C1195   1.390   .     A
C1189  S1335   1.778   .     S
C1190  C1206   1.402   .     A
C1190  S1336   1.786   .     S
C1190  C1201   1.395   .     A
C1191  C1205   1.419   .     A
C1191  C1202   1.385   .     A
C1191  S1337   1.788   .     S
C1192  S1338   1.791   .     S
C1192  C1205   1.420   .     A
C1192  C1198   1.395   .     A
C1193  S1339   1.771   .     S
C1193  C1206   1.389   .     A
C1193  C1200   1.385   .     A
C1194  S1340   1.769   .     S
C1194  C1208   1.398   .     A
C1195  C1207   1.401   .     A
C1195  S1326   1.763   .     S
C1196  S1327   1.779   .     S
C1196  C1207   1.419   .     A
C1197  S1328   1.778   .     S
C1197  C1208   1.395   .     A
C1198  C1211   1.402   .     A
C1198  S1329   1.786   .     S
C1199  O1305   1.298   .     A
C1199  O1323   1.301   .     A
C1199  C1204   1.468   .     S
C1200  S1330   1.788   .     S
C1200  C1209   1.419   .     A
C1201  S1331   1.791   .     S
C1201  C1209   1.420   .     A
C1202  S1332   1.771   .     S
C1202  C1211   1.389   .     A
C1203  C1210   1.463   .     S
C1207  C1215   1.463   .     S
C1208  C1214   1.468   .     S
C1209  C1213   1.456   .     S
C1210  O1322   1.288   .     A
C1210  O1316   1.312   .     A
C1211  C1212   1.453   .     S
C1212  O1264   1.308   .     A
C1212  O1324   1.285   .     A
C1213  O1262   1.295   .     A
C1213  O1263   1.301   .     A
C1214  O1265   1.298   .     A
C1214  O1268   1.301   .     A
C1215  O1266   1.312   .     A
C1215  O1267   1.288   .     A
C1216  N1256   1.438   .     S
C1216  N1253   1.372   .     S
H1217  N1088   1.038   1_655 S
H1218  N1260   1.041   .     S
H1219  N1250   1.040   .     S
H1220  N1250   1.043   .     S
H1221  N1251   1.045   .     S
H1222  N1251   1.043   .     S
H1223  N1252   1.044   .     S
H1224  N1252   1.044   .     S
H1225  O1271   0.989   .     S
H1226  O1275   0.988   .     S
H1227  O1278   0.990   .     S
H1228  N1256   1.041   .     S
H1229  O1281   0.990   .     S
H1230  O1285   0.990   .     S
H1231  O1288   0.987   .     S
H1232  O1291   0.990   .     S
H1233  O1295   0.988   .     S
H1235  O1301   0.988   .     S
H1236  O1304   0.990   .     S
H1237  O1308   0.990   .     S
H1238  O1311   0.990   .     S
H1240  O1314   0.987   .     S
H1241  O982    0.990   1_565 S
H1242  O1321   0.988   .     S
H1243  N1257   1.043   .     S
H1245  N1258   1.043   .     S
H1246  N1259   1.044   .     S
H1247  N1091   1.044   1_655 S
H1248  N1260   1.038   .     S
N1249  Zn1341  2.024   .     S
N1253  Zn1342  2.024   .     S
N1254  Zn1343  2.024   .     S
N1255  Zn1344  2.024   .     S
N1257  H1071   1.040   1_655 S
N1258  H1076   1.045   1_655 S
O1261  Zn1341  1.997   .     S
O1262  Zn1344  1.997   .     S
O1263  Zn1343  1.978   .     S
O1264  Zn1008  1.978   1_565 S
O1265  Zn1008  1.947   1_565 S
O1266  Zn1343  1.947   .     S
O1267  Zn1344  1.966   .     S
O1268  Zn1007  1.966   1_565 S
O1269  S1325   1.501   .     D
O1270  S1325   1.503   .     D
O1271  S1325   1.681   .     S
O1272  Zn1174  1.997   1_655 S
O1273  S1333   1.502   .     D
O1274  S1333   1.502   .     D
O1275  S1333   1.677   .     S
O1276  S1334   1.500   .     D
O1277  S1334   1.503   .     D
O1278  S1334   1.673   .     S
O1279  S1335   1.501   .     D
O1280  S1335   1.502   .     D
O1281  S1335   1.682   .     S
O1282  S1336   1.502   .     D
O1283  Zn1173  1.978   1_655 S
O1284  S1336   1.502   .     D
O1285  S1336   1.680   .     S
O1286  S1337   1.497   .     D
O1287  S1337   1.502   .     D
O1288  S1337   1.675   .     S
O1289  S1338   1.499   .     D
O1290  S1338   1.503   .     D
O1291  S1338   1.676   .     S
O1292  S1339   1.501   .     D
O1293  S1339   1.503   .     D
O1294  Zn1342  1.978   .     S
O1295  S1339   1.681   .     S
O1296  S1340   1.501   .     D
O1297  S1340   1.503   .     D
O1298  S1340   1.681   .     S
O1298  H898    0.989   1_565 S
O1299  S1326   1.502   .     D
O1300  S1326   1.502   .     D
O1301  S1326   1.677   .     S
O1302  S1327   1.500   .     D
O1303  S1327   1.503   .     D
O1304  S1327   1.673   .     S
O1305  Zn1174  1.947   1_655 S
O1306  S1328   1.501   .     D
O1307  S1328   1.502   .     D
O1308  S1328   1.682   .     S
O1309  S1329   1.502   .     D
O1310  S1329   1.502   .     D
O1311  S1329   1.680   .     S
O1312  S1330   1.497   .     D
O1313  S1330   1.502   .     D
O1314  S1330   1.675   .     S
O1315  S1331   1.499   .     D
O1316  Zn1341  1.947   .     S
O1317  S1331   1.503   .     D
O1318  S1331   1.676   .     S
O1319  S1332   1.501   .     D
O1320  S1332   1.503   .     D
O1321  S1332   1.682   .     S
O1322  Zn1342  1.966   .     S
O1323  Zn1173  1.966   1_655 S
O1324  Zn1007  1.997   1_565 S
C1345  O1429   1.285   .     A
C1345  C1374   1.453   .     S
C1345  O1462   1.308   .     A
C1346  N1425   1.428   .     S
C1346  C3      1.420   1_556 S
C1346  N1585   1.379   .     S
C1347  N1426   1.431   .     S
C1347  N1589   1.362   .     A
C1348  N1417   1.369   .     A
C1348  N1427   1.426   .     S
C1348  C40     1.438   1_556 S
C1349  N1423   1.372   .     A
C1349  N1428   1.438   .     S
C1350  N1418   1.428   .     S
C1350  C7      1.420   1_556 S
C1350  N1758   1.379   .     S
C1351  N1419   1.431   .     S
C1351  N1759   1.362   .     S
C1352  N1420   1.426   .     S
C1352  N1422   1.369   .     A
C1352  C5      1.438   1_556 S
C1353  S1493   1.769   .     S
C1353  C1364   1.395   .     A
C1353  C1372   1.398   .     A
C1354  C1371   1.401   .     A
C1354  C1365   1.390   .     A
C1354  S1501   1.763   .     S
C1355  C1362   1.395   .     A
C1355  C1371   1.419   .     A
C1355  S1502   1.779   .     S
C1356  C1373   1.456   .     S
C1356  O1451   1.301   .     A
C1356  O1440   1.295   .     A
C1357  C1372   1.395   .     A
C1357  C1363   1.390   .     A
C1357  S1503   1.778   .     S
C1358  C1374   1.402   .     A
C1358  S1504   1.786   .     S
C1358  C1369   1.395   .     A
C1359  C1373   1.419   .     A
C1359  C1370   1.385   .     A
C1359  S1505   1.788   .     S
C1360  S1506   1.791   .     S
C1360  C1373   1.420   .     A
C1360  C1366   1.395   .     A
C1361  S1507   1.771   .     S
C1361  C1374   1.389   .     A
C1361  C1368   1.385   .     A
C1362  S1508   1.769   .     S
C1362  C1376   1.398   .     A
C1363  C1375   1.401   .     A
C1363  S1494   1.763   .     S
C1364  S1495   1.779   .     S
C1364  C1375   1.419   .     A
C1365  S1496   1.778   .     S
C1365  C1376   1.395   .     A
C1366  C1379   1.402   .     A
C1366  S1497   1.786   .     S
C1367  O1473   1.298   .     A
C1367  O1491   1.301   .     A
C1367  C1372   1.468   .     S
C1368  S1498   1.788   .     S
C1368  C1377   1.419   .     A
C1369  S1499   1.791   .     S
C1369  C1377   1.420   .     A
C1370  S1500   1.771   .     S
C1370  C1379   1.389   .     A
C1371  C1378   1.463   .     S
C1375  C1383   1.463   .     S
C1376  C1382   1.468   .     S
C1377  C1381   1.456   .     S
C1378  O1490   1.288   .     A
C1378  O1484   1.312   .     A
C1379  C1380   1.453   .     S
C1380  O1432   1.308   .     A
C1380  O1492   1.285   .     A
C1381  O1430   1.295   .     A
C1381  O1431   1.301   .     A
C1382  O1433   1.298   .     A
C1382  O1436   1.301   .     A
C1383  O1434   1.312   .     A
C1383  O1435   1.288   .     A
C1384  N1424   1.438   .     S
C1384  N1421   1.372   .     S
H1385  N1592   1.038   .     S
H1386  N1428   1.041   .     S
H1387  N1418   1.040   .     S
H1388  N1418   1.043   .     S
H1389  N1419   1.045   .     S
H1390  N1419   1.043   .     S
H1391  N1420   1.044   .     S
H1392  N1420   1.044   .     S
H1393  O1439   0.989   .     S
H1394  O1443   0.988   .     S
H1395  O1446   0.990   .     S
H1396  N1424   1.041   .     S
H1397  O1449   0.990   .     S
H1398  O1453   0.990   .     S
H1399  O1456   0.987   .     S
H1400  O1459   0.990   .     S
H1401  O1463   0.988   .     S
H1402  O1802   0.989   1_545 S
H1403  O1469   0.988   .     S
H1404  O1472   0.990   .     S
H1405  O1476   0.990   .     S
H1406  O1479   0.990   .     S
H1407  N1593   1.040   1_455 S
H1408  O1482   0.987   .     S
H1409  O1822   0.990   .     S
H1410  O1489   0.988   .     S
H1411  N1425   1.043   .     S
H1412  N1594   1.045   1_455 S
H1413  N1426   1.043   .     S
H1414  N1427   1.044   .     S
H1415  N1595   1.044   .     S
H1416  N1428   1.038   .     S
N1417  Zn1509  2.024   .     S
N1417  C1514   1.379   1_455 S
N1421  C1515   1.362   1_455 A
N1421  Zn1510  2.024   .     S
N1422  Zn1511  2.024   .     S
N1422  C1686   1.379   1_545 S
N1423  Zn1512  2.024   .     S
N1423  C1687   1.362   1_545 S
N1424  H1553   1.038   1_455 S
N1425  H1575   1.040   .     S
N1426  H1580   1.045   .     S
N1427  H1583   1.044   1_455 S
O1429  Zn1509  1.997   .     S
O1430  Zn1512  1.997   .     S
O1431  Zn1511  1.978   .     S
O1432  Zn1848  1.978   .     S
O1433  Zn1848  1.947   .     S
O1434  Zn1511  1.947   .     S
O1435  Zn1512  1.966   .     S
O1436  Zn1847  1.966   .     S
O1437  S1493   1.501   .     D
O1438  S1493   1.503   .     D
O1439  S1493   1.681   .     S
O1440  Zn1678  1.997   .     S
O1441  S1501   1.502   .     D
O1442  S1501   1.502   .     D
O1443  S1501   1.677   .     S
O1444  S1502   1.500   .     D
O1445  S1502   1.503   .     D
O1446  S1502   1.673   .     S
O1447  S1503   1.501   .     D
O1448  S1503   1.502   .     D
O1449  S1503   1.682   .     S
O1450  S1504   1.502   .     D
O1451  Zn1677  1.978   .     S
O1452  S1504   1.502   .     D
O1453  S1504   1.680   .     S
O1454  S1505   1.497   .     D
O1455  S1505   1.502   .     D
O1456  S1505   1.675   .     S
O1457  S1506   1.499   .     D
O1458  S1506   1.503   .     D
O1459  S1506   1.676   .     S
O1460  S1507   1.501   .     D
O1461  S1507   1.503   .     D
O1462  Zn1510  1.978   .     S
O1463  S1507   1.681   .     S
O1464  S1508   1.501   .     D
O1465  S1508   1.503   .     D
O1466  S1508   1.681   .     S
O1466  H1738   0.989   .     S
O1467  S1494   1.502   .     D
O1468  S1494   1.502   .     D
O1469  S1494   1.677   .     S
O1470  S1495   1.500   .     D
O1471  S1495   1.503   .     D
O1472  S1495   1.673   .     S
O1473  Zn1678  1.947   .     S
O1474  S1496   1.501   .     D
O1475  S1496   1.502   .     D
O1476  S1496   1.682   .     S
O1477  S1497   1.502   .     D
O1478  S1497   1.502   .     D
O1479  S1497   1.680   .     S
O1480  S1498   1.497   .     D
O1481  S1498   1.502   .     D
O1482  S1498   1.675   .     S
O1483  S1499   1.499   .     D
O1484  Zn1509  1.947   .     S
O1485  S1499   1.503   .     D
O1486  S1499   1.676   .     S
O1486  H1745   0.990   1_545 S
O1487  S1500   1.501   .     D
O1488  S1500   1.503   .     D
O1489  S1500   1.682   .     S
O1490  Zn1510  1.966   .     S
O1491  Zn1677  1.966   .     S
O1492  Zn1847  1.997   .     S
Zn1509 O1659   1.966   1_455 S
Zn1509 O1619   1.978   1_455 S
Zn1510 O1641   1.947   1_455 S
Zn1510 O1608   1.997   1_455 S
Zn1511 O1772   1.966   1_545 S
Zn1511 O1828   1.997   1_545 S
Zn1512 O1769   1.947   1_545 S
Zn1512 O1768   1.978   1_545 S
C1513  O1597   1.285   .     A
C1513  C1542   1.453   .     S
C1513  O1630   1.308   .     A
C1514  N1593   1.428   .     S
C1514  C171    1.420   1_556 S
C1514  N1417   1.379   1_655 S
C1515  N1594   1.431   .     S
C1515  N1421   1.362   1_655 A
C1516  N1585   1.369   .     A
C1516  N1595   1.426   .     S
C1516  C208    1.438   1_556 S
C1517  N1591   1.372   .     A
C1517  N1596   1.438   .     S
C1518  N1586   1.428   .     S
C1518  C175    1.420   1_556 S
C1518  N1926   1.379   .     S
C1519  N1587   1.431   .     S
C1519  N1927   1.362   .     S
C1520  N1588   1.426   .     S
C1520  N1590   1.369   .     A
C1520  C173    1.438   1_556 S
C1521  S1661   1.769   .     S
C1521  C1532   1.395   .     A
C1521  C1540   1.398   .     A
C1522  C1539   1.401   .     A
C1522  C1533   1.390   .     A
C1522  S1669   1.763   .     S
C1523  C1530   1.395   .     A
C1523  C1539   1.419   .     A
C1523  S1670   1.779   .     S
C1524  C1541   1.456   .     S
C1524  O1619   1.301   .     A
C1524  O1608   1.295   .     A
C1525  C1540   1.395   .     A
C1525  C1531   1.390   .     A
C1525  S1671   1.778   .     S
C1526  C1542   1.402   .     A
C1526  S1672   1.786   .     S
C1526  C1537   1.395   .     A
C1527  C1541   1.419   .     A
C1527  C1538   1.385   .     A
C1527  S1673   1.788   .     S
C1528  S1674   1.791   .     S
C1528  C1541   1.420   .     A
C1528  C1534   1.395   .     A
C1529  S1675   1.771   .     S
C1529  C1542   1.389   .     A
C1529  C1536   1.385   .     A
C1530  S1676   1.769   .     S
C1530  C1544   1.398   .     A
C1531  C1543   1.401   .     A
C1531  S1662   1.763   .     S
C1532  S1663   1.779   .     S
C1532  C1543   1.419   .     A
C1533  S1664   1.778   .     S
C1533  C1544   1.395   .     A
C1534  C1547   1.402   .     A
C1534  S1665   1.786   .     S
C1535  O1641   1.298   .     A
C1535  O1659   1.301   .     A
C1535  C1540   1.468   .     S
C1536  S1666   1.788   .     S
C1536  C1545   1.419   .     A
C1537  S1667   1.791   .     S
C1537  C1545   1.420   .     A
C1538  S1668   1.771   .     S
C1538  C1547   1.389   .     A
C1539  C1546   1.463   .     S
C1543  C1551   1.463   .     S
C1544  C1550   1.468   .     S
C1545  C1549   1.456   .     S
C1546  O1658   1.288   .     A
C1546  O1652   1.312   .     A
C1547  C1548   1.453   .     S
C1548  O1600   1.308   .     A
C1548  O1660   1.285   .     A
C1549  O1598   1.295   .     A
C1549  O1599   1.301   .     A
C1550  O1601   1.298   .     A
C1550  O1604   1.301   .     A
C1551  O1602   1.312   .     A
C1551  O1603   1.288   .     A
C1552  N1592   1.438   .     S
C1552  N1589   1.372   .     S
H1553  N1424   1.038   1_655 S
H1554  N1596   1.041   .     S
H1555  N1586   1.040   .     S
H1556  N1586   1.043   .     S
H1557  N1587   1.045   .     S
H1558  N1587   1.043   .     S
H1559  N1588   1.044   .     S
H1560  N1588   1.044   .     S
H1561  O1607   0.989   .     S
H1562  O1611   0.988   .     S
H1563  O1614   0.990   .     S
H1564  N1592   1.041   .     S
H1565  O1617   0.990   .     S
H1566  O1621   0.990   .     S
H1567  O1624   0.987   .     S
H1568  O1627   0.990   .     S
H1569  O1631   0.988   .     S
H1570  O1970   0.989   1_545 S
H1571  O1637   0.988   .     S
H1572  O1640   0.990   .     S
H1573  O1644   0.990   .     S
H1574  O1647   0.990   .     S
H1576  O1650   0.987   .     S
H1577  O1990   0.990   .     S
H1578  O1657   0.988   .     S
H1579  N1593   1.043   .     S
H1581  N1594   1.043   .     S
H1582  N1595   1.044   .     S
H1583  N1427   1.044   1_655 S
H1584  N1596   1.038   .     S
N1585  Zn1677  2.024   .     S
N1589  Zn1678  2.024   .     S
N1590  Zn1679  2.024   .     S
N1590  C1854   1.379   1_545 S
N1591  Zn1680  2.024   .     S
N1591  C1855   1.362   1_545 S
N1593  H1407   1.040   1_655 S
N1594  H1412   1.045   1_655 S
O1597  Zn1677  1.997   .     S
O1598  Zn1680  1.997   .     S
O1599  Zn1679  1.978   .     S
O1600  Zn2016  1.978   .     S
O1601  Zn2016  1.947   .     S
O1602  Zn1679  1.947   .     S
O1603  Zn1680  1.966   .     S
O1604  Zn2015  1.966   .     S
O1605  S1661   1.501   .     D
O1606  S1661   1.503   .     D
O1607  S1661   1.681   .     S
O1608  Zn1510  1.997   1_655 S
O1609  S1669   1.502   .     D
O1610  S1669   1.502   .     D
O1611  S1669   1.677   .     S
O1612  S1670   1.500   .     D
O1613  S1670   1.503   .     D
O1614  S1670   1.673   .     S
O1615  S1671   1.501   .     D
O1616  S1671   1.502   .     D
O1617  S1671   1.682   .     S
O1618  S1672   1.502   .     D
O1619  Zn1509  1.978   1_655 S
O1620  S1672   1.502   .     D
O1621  S1672   1.680   .     S
O1622  S1673   1.497   .     D
O1623  S1673   1.502   .     D
O1624  S1673   1.675   .     S
O1625  S1674   1.499   .     D
O1626  S1674   1.503   .     D
O1627  S1674   1.676   .     S
O1628  S1675   1.501   .     D
O1629  S1675   1.503   .     D
O1630  Zn1678  1.978   .     S
O1631  S1675   1.681   .     S
O1632  S1676   1.501   .     D
O1633  S1676   1.503   .     D
O1634  S1676   1.681   .     S
O1634  H1906   0.989   .     S
O1635  S1662   1.502   .     D
O1636  S1662   1.502   .     D
O1637  S1662   1.677   .     S
O1638  S1663   1.500   .     D
O1639  S1663   1.503   .     D
O1640  S1663   1.673   .     S
O1641  Zn1510  1.947   1_655 S
O1642  S1664   1.501   .     D
O1643  S1664   1.502   .     D
O1644  S1664   1.682   .     S
O1645  S1665   1.502   .     D
O1646  S1665   1.502   .     D
O1647  S1665   1.680   .     S
O1648  S1666   1.497   .     D
O1649  S1666   1.502   .     D
O1650  S1666   1.675   .     S
O1651  S1667   1.499   .     D
O1652  Zn1677  1.947   .     S
O1653  S1667   1.503   .     D
O1654  S1667   1.676   .     S
O1654  H1913   0.990   1_545 S
O1655  S1668   1.501   .     D
O1656  S1668   1.503   .     D
O1657  S1668   1.682   .     S
O1658  Zn1678  1.966   .     S
O1659  Zn1509  1.966   1_655 S
O1660  Zn2015  1.997   .     S
Zn1679 O1940   1.966   1_545 S
Zn1679 O1996   1.997   1_545 S
Zn1680 O1937   1.947   1_545 S
Zn1680 O1936   1.978   1_545 S
C1681  O1765   1.285   .     A
C1681  C1710   1.453   .     S
C1681  O1798   1.308   .     A
C1682  N1761   1.428   .     S
C1682  C339    1.420   1_556 S
C1682  N1921   1.379   .     S
C1683  N1762   1.431   .     S
C1683  N1925   1.362   .     A
C1684  N1753   1.369   .     A
C1684  N1763   1.426   .     S
C1684  C376    1.438   1_556 S
C1685  N1759   1.372   .     A
C1685  N1764   1.438   .     S
C1686  N1754   1.428   .     S
C1686  C343    1.420   1_556 S
C1686  N1422   1.379   1_565 S
C1687  N1755   1.431   .     S
C1687  N1423   1.362   1_565 S
C1688  N1756   1.426   .     S
C1688  N1758   1.369   .     A
C1688  C341    1.438   1_556 S
C1689  S1829   1.769   .     S
C1689  C1700   1.395   .     A
C1689  C1708   1.398   .     A
C1690  C1707   1.401   .     A
C1690  C1701   1.390   .     A
C1690  S1837   1.763   .     S
C1691  C1698   1.395   .     A
C1691  C1707   1.419   .     A
C1691  S1838   1.779   .     S
C1692  C1709   1.456   .     S
C1692  O1787   1.301   .     A
C1692  O1776   1.295   .     A
C1693  C1708   1.395   .     A
C1693  C1699   1.390   .     A
C1693  S1839   1.778   .     S
C1694  C1710   1.402   .     A
C1694  S1840   1.786   .     S
C1694  C1705   1.395   .     A
C1695  C1709   1.419   .     A
C1695  C1706   1.385   .     A
C1695  S1841   1.788   .     S
C1696  S1842   1.791   .     S
C1696  C1709   1.420   .     A
C1696  C1702   1.395   .     A
C1697  S1843   1.771   .     S
C1697  C1710   1.389   .     A
C1697  C1704   1.385   .     A
C1698  S1844   1.769   .     S
C1698  C1712   1.398   .     A
C1699  C1711   1.401   .     A
C1699  S1830   1.763   .     S
C1700  S1831   1.779   .     S
C1700  C1711   1.419   .     A
C1701  S1832   1.778   .     S
C1701  C1712   1.395   .     A
C1702  C1715   1.402   .     A
C1702  S1833   1.786   .     S
C1703  O1809   1.298   .     A
C1703  O1827   1.301   .     A
C1703  C1708   1.468   .     S
C1704  S1834   1.788   .     S
C1704  C1713   1.419   .     A
C1705  S1835   1.791   .     S
C1705  C1713   1.420   .     A
C1706  S1836   1.771   .     S
C1706  C1715   1.389   .     A
C1707  C1714   1.463   .     S
C1711  C1719   1.463   .     S
C1712  C1718   1.468   .     S
C1713  C1717   1.456   .     S
C1714  O1826   1.288   .     A
C1714  O1820   1.312   .     A
C1715  C1716   1.453   .     S
C1716  O1768   1.308   .     A
C1716  O1828   1.285   .     A
C1717  O1766   1.295   .     A
C1717  O1767   1.301   .     A
C1718  O1769   1.298   .     A
C1718  O1772   1.301   .     A
C1719  O1770   1.312   .     A
C1719  O1771   1.288   .     A
C1720  N1760   1.438   .     S
C1720  N1757   1.372   .     S
H1721  N1928   1.038   .     S
H1722  N1764   1.041   .     S
H1723  N1754   1.040   .     S
H1724  N1754   1.043   .     S
H1725  N1755   1.045   .     S
H1726  N1755   1.043   .     S
H1727  N1756   1.044   .     S
H1728  N1756   1.044   .     S
H1729  O1775   0.989   .     S
H1730  O1779   0.988   .     S
H1731  O1782   0.990   .     S
H1732  N1760   1.041   .     S
H1733  O1785   0.990   .     S
H1734  O1789   0.990   .     S
H1735  O1792   0.987   .     S
H1736  O1795   0.990   .     S
H1737  O1799   0.988   .     S
H1739  O1805   0.988   .     S
H1740  O1808   0.990   .     S
H1741  O1812   0.990   .     S
H1742  O1815   0.990   .     S
H1743  N1929   1.040   1_455 S
H1744  O1818   0.987   .     S
H1745  O1486   0.990   1_565 S
H1746  O1825   0.988   .     S
H1747  N1761   1.043   .     S
H1748  N1930   1.045   1_455 S
H1749  N1762   1.043   .     S
H1750  N1763   1.044   .     S
H1751  N1931   1.044   .     S
H1752  N1764   1.038   .     S
N1753  Zn1845  2.024   .     S
N1753  C1850   1.379   1_455 S
N1757  C1851   1.362   1_455 A
N1757  Zn1846  2.024   .     S
N1758  Zn1847  2.024   .     S
N1759  Zn1848  2.024   .     S
N1760  H1889   1.038   1_455 S
N1761  H1911   1.040   .     S
N1762  H1916   1.045   .     S
N1763  H1919   1.044   1_455 S
O1765  Zn1845  1.997   .     S
O1766  Zn1848  1.997   .     S
O1767  Zn1847  1.978   .     S
O1768  Zn1512  1.978   1_565 S
O1769  Zn1512  1.947   1_565 S
O1770  Zn1847  1.947   .     S
O1771  Zn1848  1.966   .     S
O1772  Zn1511  1.966   1_565 S
O1773  S1829   1.501   .     D
O1774  S1829   1.503   .     D
O1775  S1829   1.681   .     S
O1776  Zn2014  1.997   .     S
O1777  S1837   1.502   .     D
O1778  S1837   1.502   .     D
O1779  S1837   1.677   .     S
O1780  S1838   1.500   .     D
O1781  S1838   1.503   .     D
O1782  S1838   1.673   .     S
O1783  S1839   1.501   .     D
O1784  S1839   1.502   .     D
O1785  S1839   1.682   .     S
O1786  S1840   1.502   .     D
O1787  Zn2013  1.978   .     S
O1788  S1840   1.502   .     D
O1789  S1840   1.680   .     S
O1790  S1841   1.497   .     D
O1791  S1841   1.502   .     D
O1792  S1841   1.675   .     S
O1793  S1842   1.499   .     D
O1794  S1842   1.503   .     D
O1795  S1842   1.676   .     S
O1796  S1843   1.501   .     D
O1797  S1843   1.503   .     D
O1798  Zn1846  1.978   .     S
O1799  S1843   1.681   .     S
O1800  S1844   1.501   .     D
O1801  S1844   1.503   .     D
O1802  S1844   1.681   .     S
O1802  H1402   0.989   1_565 S
O1803  S1830   1.502   .     D
O1804  S1830   1.502   .     D
O1805  S1830   1.677   .     S
O1806  S1831   1.500   .     D
O1807  S1831   1.503   .     D
O1808  S1831   1.673   .     S
O1809  Zn2014  1.947   .     S
O1810  S1832   1.501   .     D
O1811  S1832   1.502   .     D
O1812  S1832   1.682   .     S
O1813  S1833   1.502   .     D
O1814  S1833   1.502   .     D
O1815  S1833   1.680   .     S
O1816  S1834   1.497   .     D
O1817  S1834   1.502   .     D
O1818  S1834   1.675   .     S
O1819  S1835   1.499   .     D
O1820  Zn1845  1.947   .     S
O1821  S1835   1.503   .     D
O1822  S1835   1.676   .     S
O1823  S1836   1.501   .     D
O1824  S1836   1.503   .     D
O1825  S1836   1.682   .     S
O1826  Zn1846  1.966   .     S
O1827  Zn2013  1.966   .     S
O1828  Zn1511  1.997   1_565 S
Zn1845 O1995   1.966   1_455 S
Zn1845 O1955   1.978   1_455 S
Zn1846 O1977   1.947   1_455 S
Zn1846 O1944   1.997   1_455 S
C1849  O1933   1.285   .     A
C1849  C1878   1.453   .     S
C1849  O1966   1.308   .     A
C1850  N1929   1.428   .     S
C1850  C507    1.420   1_556 S
C1850  N1753   1.379   1_655 S
C1851  N1930   1.431   .     S
C1851  N1757   1.362   1_655 A
C1852  N1921   1.369   .     A
C1852  N1931   1.426   .     S
C1852  C544    1.438   1_556 S
C1853  N1927   1.372   .     A
C1853  N1932   1.438   .     S
C1854  N1922   1.428   .     S
C1854  C511    1.420   1_556 S
C1854  N1590   1.379   1_565 S
C1855  N1923   1.431   .     S
C1855  N1591   1.362   1_565 S
C1856  N1924   1.426   .     S
C1856  N1926   1.369   .     A
C1856  C509    1.438   1_556 S
C1857  S1997   1.769   .     S
C1857  C1868   1.395   .     A
C1857  C1876   1.398   .     A
C1858  C1875   1.401   .     A
C1858  C1869   1.390   .     A
C1858  S2005   1.763   .     S
C1859  C1866   1.395   .     A
C1859  C1875   1.419   .     A
C1859  S2006   1.779   .     S
C1860  C1877   1.456   .     S
C1860  O1955   1.301   .     A
C1860  O1944   1.295   .     A
C1861  C1876   1.395   .     A
C1861  C1867   1.390   .     A
C1861  S2007   1.778   .     S
C1862  C1878   1.402   .     A
C1862  S2008   1.786   .     S
C1862  C1873   1.395   .     A
C1863  C1877   1.419   .     A
C1863  C1874   1.385   .     A
C1863  S2009   1.788   .     S
C1864  S2010   1.791   .     S
C1864  C1877   1.420   .     A
C1864  C1870   1.395   .     A
C1865  S2011   1.771   .     S
C1865  C1878   1.389   .     A
C1865  C1872   1.385   .     A
C1866  S2012   1.769   .     S
C1866  C1880   1.398   .     A
C1867  C1879   1.401   .     A
C1867  S1998   1.763   .     S
C1868  S1999   1.779   .     S
C1868  C1879   1.419   .     A
C1869  S2000   1.778   .     S
C1869  C1880   1.395   .     A
C1870  C1883   1.402   .     A
C1870  S2001   1.786   .     S
C1871  O1977   1.298   .     A
C1871  O1995   1.301   .     A
C1871  C1876   1.468   .     S
C1872  S2002   1.788   .     S
C1872  C1881   1.419   .     A
C1873  S2003   1.791   .     S
C1873  C1881   1.420   .     A
C1874  S2004   1.771   .     S
C1874  C1883   1.389   .     A
C1875  C1882   1.463   .     S
C1879  C1887   1.463   .     S
C1880  C1886   1.468   .     S
C1881  C1885   1.456   .     S
C1882  O1994   1.288   .     A
C1882  O1988   1.312   .     A
C1883  C1884   1.453   .     S
C1884  O1936   1.308   .     A
C1884  O1996   1.285   .     A
C1885  O1934   1.295   .     A
C1885  O1935   1.301   .     A
C1886  O1937   1.298   .     A
C1886  O1940   1.301   .     A
C1887  O1938   1.312   .     A
C1887  O1939   1.288   .     A
C1888  N1928   1.438   .     S
C1888  N1925   1.372   .     S
H1889  N1760   1.038   1_655 S
H1890  N1932   1.041   .     S
H1891  N1922   1.040   .     S
H1892  N1922   1.043   .     S
H1893  N1923   1.045   .     S
H1894  N1923   1.043   .     S
H1895  N1924   1.044   .     S
H1896  N1924   1.044   .     S
H1897  O1943   0.989   .     S
H1898  O1947   0.988   .     S
H1899  O1950   0.990   .     S
H1900  N1928   1.041   .     S
H1901  O1953   0.990   .     S
H1902  O1957   0.990   .     S
H1903  O1960   0.987   .     S
H1904  O1963   0.990   .     S
H1905  O1967   0.988   .     S
H1907  O1973   0.988   .     S
H1908  O1976   0.990   .     S
H1909  O1980   0.990   .     S
H1910  O1983   0.990   .     S
H1912  O1986   0.987   .     S
H1913  O1654   0.990   1_565 S
H1914  O1993   0.988   .     S
H1915  N1929   1.043   .     S
H1917  N1930   1.043   .     S
H1918  N1931   1.044   .     S
H1919  N1763   1.044   1_655 S
H1920  N1932   1.038   .     S
N1921  Zn2013  2.024   .     S
N1925  Zn2014  2.024   .     S
N1926  Zn2015  2.024   .     S
N1927  Zn2016  2.024   .     S
N1929  H1743   1.040   1_655 S
N1930  H1748   1.045   1_655 S
O1933  Zn2013  1.997   .     S
O1934  Zn2016  1.997   .     S
O1935  Zn2015  1.978   .     S
O1936  Zn1680  1.978   1_565 S
O1937  Zn1680  1.947   1_565 S
O1938  Zn2015  1.947   .     S
O1939  Zn2016  1.966   .     S
O1940  Zn1679  1.966   1_565 S
O1941  S1997   1.501   .     D
O1942  S1997   1.503   .     D
O1943  S1997   1.681   .     S
O1944  Zn1846  1.997   1_655 S
O1945  S2005   1.502   .     D
O1946  S2005   1.502   .     D
O1947  S2005   1.677   .     S
O1948  S2006   1.500   .     D
O1949  S2006   1.503   .     D
O1950  S2006   1.673   .     S
O1951  S2007   1.501   .     D
O1952  S2007   1.502   .     D
O1953  S2007   1.682   .     S
O1954  S2008   1.502   .     D
O1955  Zn1845  1.978   1_655 S
O1956  S2008   1.502   .     D
O1957  S2008   1.680   .     S
O1958  S2009   1.497   .     D
O1959  S2009   1.502   .     D
O1960  S2009   1.675   .     S
O1961  S2010   1.499   .     D
O1962  S2010   1.503   .     D
O1963  S2010   1.676   .     S
O1964  S2011   1.501   .     D
O1965  S2011   1.503   .     D
O1966  Zn2014  1.978   .     S
O1967  S2011   1.681   .     S
O1968  S2012   1.501   .     D
O1969  S2012   1.503   .     D
O1970  S2012   1.681   .     S
O1970  H1570   0.989   1_565 S
O1971  S1998   1.502   .     D
O1972  S1998   1.502   .     D
O1973  S1998   1.677   .     S
O1974  S1999   1.500   .     D
O1975  S1999   1.503   .     D
O1976  S1999   1.673   .     S
O1977  Zn1846  1.947   1_655 S
O1978  S2000   1.501   .     D
O1979  S2000   1.502   .     D
O1980  S2000   1.682   .     S
O1981  S2001   1.502   .     D
O1982  S2001   1.502   .     D
O1983  S2001   1.680   .     S
O1984  S2002   1.497   .     D
O1985  S2002   1.502   .     D
O1986  S2002   1.675   .     S
O1987  S2003   1.499   .     D
O1988  Zn2013  1.947   .     S
O1989  S2003   1.503   .     D
O1990  S2003   1.676   .     S
O1991  S2004   1.501   .     D
O1992  S2004   1.503   .     D
O1993  S2004   1.682   .     S
O1994  Zn2014  1.966   .     S
O1995  Zn1845  1.966   1_655 S
O1996  Zn1679  1.997   1_565 S
