data_str_m3_o2_o5_pcu_sym.19
_audit_creation_date              2020-01-03
_audit_creation_method            'Materials Studio'
_symmetry_space_group_name_H-M    'P1'
_symmetry_Int_Tables_number       1
_symmetry_cell_setting            triclinic
loop_
_symmetry_equiv_pos_as_xyz
  x,y,z
_cell_length_a                    30.1385
_cell_length_b                    28.4339
_cell_length_c                    26.7344
_cell_angle_alpha                 90.1132
_cell_angle_beta                  90.5157
_cell_angle_gamma                 89.3229
loop_
_atom_site_label
_atom_site_type_symbol
_atom_site_fract_x
_atom_site_fract_y
_atom_site_fract_z
_atom_site_U_iso_or_equiv
_atom_site_adp_type
_atom_site_occupancy
C1     C     0.16386   0.25025   0.16760   0.00000  Uiso   1.00
C2     C     0.22541   0.44745   0.13125   0.00000  Uiso   1.00
C3     C     0.25000   0.24999   0.07288   0.00000  Uiso   1.00
C4     C     0.25013   0.25005   0.26046   0.00000  Uiso   1.00
C5     C     0.25055   0.02614   0.16626   0.00000  Uiso   1.00
C6     C     0.25075   0.47290   0.16614   0.00000  Uiso   1.00
C7     C     0.25013   0.25008   0.02179   0.00000  Uiso   1.00
C8     C     0.25017   0.25016   0.31154   0.00000  Uiso   1.00
C9     C     0.04875   0.27953   0.12653   0.00000  Uiso   1.00
C10    C     0.45284   0.20635   0.14195   0.00000  Uiso   1.00
C11    C     0.45412   0.28993   0.16324   0.00000  Uiso   1.00
C12    C     0.33621   0.24972   0.16441   0.00000  Uiso   1.00
C13    C     0.04622   0.21458   0.18616   0.00000  Uiso   1.00
C14    C     0.09284   0.28652   0.14021   0.00000  Uiso   1.00
C15    C     0.40697   0.20620   0.14823   0.00000  Uiso   1.00
C16    C     0.40797   0.29157   0.16115   0.00000  Uiso   1.00
C17    C     0.09244   0.21312   0.18773   0.00000  Uiso   1.00
C18    C     0.11580   0.25037   0.16584   0.00000  Uiso   1.00
C19    C     0.38429   0.24906   0.15828   0.00000  Uiso   1.00
C20    C     0.02456   0.24599   0.15330   0.00000  Uiso   1.00
C21    C     0.47638   0.24754   0.15242   0.00000  Uiso   1.00
C22    C     0.18818   0.12572   0.06718   0.00000  Uiso   1.00
C23    C     0.24086   0.10165   0.12348   0.00000  Uiso   1.00
C24    C     0.18211   0.13323   0.01124   0.00000  Uiso   1.00
C25    C     0.30178   0.38560   0.28283   0.00000  Uiso   1.00
C26    C     0.34776   0.40203   0.29848   0.00000  Uiso   1.00
C27    C     0.30049   0.10515   0.28517   0.00000  Uiso   1.00
C28    C     0.32114   0.14217   0.31901   0.00000  Uiso   1.00
C29    C     0.21091   0.38497   0.04644   0.00000  Uiso   1.00
C30    C     0.16866   0.40258   0.02065   0.00000  Uiso   1.00
C31    C     0.01456   0.28853   0.05040   0.00000  Uiso   1.00
C32    C     0.49220   0.32415   0.01612   0.00000  Uiso   1.00
C33    C     0.47811   0.15874   0.07934   0.00000  Uiso   1.00
C34    C     0.27494   0.39694   0.20152   0.00000  Uiso   1.00
C35    C     0.49379   0.10885   0.06812   0.00000  Uiso   1.00
C36    C     0.47662   0.34345   0.22219   0.00000  Uiso   1.00
C37    C     0.47906   0.39665   0.22700   0.00000  Uiso   1.00
C38    C     0.01492   0.20709   0.26331   0.00000  Uiso   1.00
C39    C     0.46867   0.19516   0.28136   0.00000  Uiso   1.00
C40    C     0.09202   0.36444   0.16027   0.00000  Uiso   1.00
C41    C     0.12246   0.40602   0.16760   0.00000  Uiso   1.00
C42    C     0.38808   0.13430   0.17930   0.00000  Uiso   1.00
C43    C     0.37384   0.08548   0.16280   0.00000  Uiso   1.00
C44    C     0.39006   0.35882   0.11895   0.00000  Uiso   1.00
C45    C     0.26014   0.10176   0.20987   0.00000  Uiso   1.00
C46    C     0.36289   0.40416   0.12068   0.00000  Uiso   1.00
C47    C     0.11181   0.13552   0.19253   0.00000  Uiso   1.00
C48    C     0.13692   0.09892   0.22334   0.00000  Uiso   1.00
C49    C     0.22688   0.39769   0.13047   0.00000  Uiso   1.00
C50    C     0.24266   0.05208   0.12254   0.00000  Uiso   1.00
C51    C     0.27664   0.44680   0.20057   0.00000  Uiso   1.00
C52    C     0.25823   0.05176   0.21024   0.00000  Uiso   1.00
H53    H     0.23803   0.03435   0.08705   0.00000  Uiso   1.00
H54    H     0.29328   0.35499   0.30649   0.00000  Uiso   1.00
H55    H     0.27653   0.41344   0.29117   0.00000  Uiso   1.00
H56    H     0.35821   0.43191   0.27486   0.00000  Uiso   1.00
H57    H     0.34722   0.41358   0.00477   0.00000  Uiso   1.00
H58    H     0.37224   0.37277   0.29450   0.00000  Uiso   1.00
H59    H     0.32770   0.08782   0.26380   0.00000  Uiso   1.00
H60    H     0.28413   0.07893   0.30944   0.00000  Uiso   1.00
H61    H     0.34685   0.12560   0.01015   0.00000  Uiso   1.00
H62    H     0.33678   0.16992   0.29617   0.00000  Uiso   1.00
H63    H     0.29527   0.15848   0.00958   0.00000  Uiso   1.00
H64    H     0.29896   0.46488   0.22571   0.00000  Uiso   1.00
H65    H     0.22240   0.35295   0.02636   0.00000  Uiso   1.00
H66    H     0.23758   0.41151   0.04207   0.00000  Uiso   1.00
H67    H     0.15652   0.43536   0.03879   0.00000  Uiso   1.00
H68    H     0.17545   0.40998   0.31402   0.00000  Uiso   1.00
H69    H     0.14252   0.37546   0.02287   0.00000  Uiso   1.00
H70    H     0.48954   0.26140   0.05829   0.00000  Uiso   1.00
H71    H     0.04330   0.27221   0.03067   0.00000  Uiso   1.00
H72    H     0.01708   0.34883   0.00119   0.00000  Uiso   1.00
H73    H     0.47582   0.30517   0.31831   0.00000  Uiso   1.00
H74    H     0.46640   0.34433   0.03667   0.00000  Uiso   1.00
H75    H     0.26213   0.03285   0.24503   0.00000  Uiso   1.00
H76    H     0.00307   0.18314   0.06407   0.00000  Uiso   1.00
H77    H     0.44546   0.16445   0.06019   0.00000  Uiso   1.00
H78    H     0.49701   0.10396   0.02709   0.00000  Uiso   1.00
H79    H     0.02659   0.10215   0.08618   0.00000  Uiso   1.00
H80    H     0.46950   0.08324   0.08253   0.00000  Uiso   1.00
H81    H     0.00624   0.32765   0.24086   0.00000  Uiso   1.00
H82    H     0.44607   0.33200   0.24183   0.00000  Uiso   1.00
H83    H     0.47904   0.40682   0.26712   0.00000  Uiso   1.00
H84    H     0.44990   0.41330   0.20815   0.00000  Uiso   1.00
H85    H     0.00989   0.40962   0.20961   0.00000  Uiso   1.00
H86    H     0.20400   0.46581   0.10497   0.00000  Uiso   1.00
H87    H     0.01731   0.24622   0.26240   0.00000  Uiso   1.00
H88    H     0.03980   0.19352   0.29078   0.00000  Uiso   1.00
H89    H     0.46546   0.15651   0.28556   0.00000  Uiso   1.00
H90    H     0.46247   0.21238   0.31791   0.00000  Uiso   1.00
H91    H     0.44333   0.20812   0.25416   0.00000  Uiso   1.00
H92    H     0.08334   0.35146   0.19835   0.00000  Uiso   1.00
H93    H     0.06138   0.37760   0.14132   0.00000  Uiso   1.00
H94    H     0.13123   0.42108   0.13080   0.00000  Uiso   1.00
H95    H     0.10527   0.43367   0.18983   0.00000  Uiso   1.00
H96    H     0.15277   0.39470   0.18836   0.00000  Uiso   1.00
H97    H     0.17200   0.15558   0.08697   0.00000  Uiso   1.00
H98    H     0.36620   0.14653   0.21003   0.00000  Uiso   1.00
H99    H     0.42263   0.13129   0.19419   0.00000  Uiso   1.00
H100   H     0.33933   0.08676   0.14806   0.00000  Uiso   1.00
H101   H     0.39611   0.07225   0.13292   0.00000  Uiso   1.00
H102   H     0.37562   0.06082   0.19492   0.00000  Uiso   1.00
H103   H     0.37768   0.33709   0.08709   0.00000  Uiso   1.00
H104   H     0.42503   0.36858   0.11189   0.00000  Uiso   1.00
H105   H     0.36898   0.42303   0.15647   0.00000  Uiso   1.00
H106   H     0.37236   0.42743   0.08937   0.00000  Uiso   1.00
H107   H     0.32714   0.39614   0.11677   0.00000  Uiso   1.00
H108   H     0.17100   0.09248   0.07711   0.00000  Uiso   1.00
H109   H     0.12710   0.13703   0.15491   0.00000  Uiso   1.00
H110   H     0.07694   0.12362   0.18831   0.00000  Uiso   1.00
H111   H     0.17101   0.11122   0.23134   0.00000  Uiso   1.00
H112   H     0.11958   0.09299   0.25920   0.00000  Uiso   1.00
H113   H     0.13883   0.06519   0.20242   0.00000  Uiso   1.00
H114   H     0.19663   0.10299   0.32380   0.00000  Uiso   1.00
H115   H     0.14621   0.13629   0.00202   0.00000  Uiso   1.00
H116   H     0.19871   0.16595   0.33282   0.00000  Uiso   1.00
N117   N     0.25000   0.12623   0.16667   0.00000  Uiso   1.00
N118   N     0.25000   0.37376   0.16667   0.00000  Uiso   1.00
O119   O     0.18453   0.28974   0.16667   0.00000  Uiso   1.00
O120   O     0.30260   0.37031   0.23242   0.00000  Uiso   1.00
O121   O     0.26861   0.12700   0.25342   0.00000  Uiso   1.00
O122   O     0.20161   0.37234   0.09652   0.00000  Uiso   1.00
O123   O     0.02843   0.31155   0.09444   0.00000  Uiso   1.00
O124   O     0.47504   0.16456   0.13155   0.00000  Uiso   1.00
O125   O     0.47742   0.33103   0.17112   0.00000  Uiso   1.00
O126   O     0.02213   0.18509   0.21652   0.00000  Uiso   1.00
O127   O     0.11289   0.32920   0.13055   0.00000  Uiso   1.00
O128   O     0.38412   0.16523   0.13811   0.00000  Uiso   1.00
O129   O     0.38627   0.33469   0.16496   0.00000  Uiso   1.00
O130   O     0.31547   0.21026   0.16666   0.00000  Uiso   1.00
O131   O     0.11430   0.17969   0.21679   0.00000  Uiso   1.00
O132   O     0.31547   0.28974   0.16666   0.00000  Uiso   1.00
O133   O     0.18453   0.21026   0.16667   0.00000  Uiso   1.00
O134   O     0.25000   0.28973   0.09511   0.00000  Uiso   1.00
O135   O     0.25000   0.21027   0.23822   0.00000  Uiso   1.00
O136   O     0.25000   0.28973   0.23822   0.00000  Uiso   1.00
O137   O     0.25000   0.21027   0.09511   0.00000  Uiso   1.00
O138   O     0.23399   0.12489   0.07887   0.00000  Uiso   1.00
Zn139  Zn    0.25000   0.30307   0.16667   0.00000  Uiso   1.00
Zn140  Zn    0.25000   0.19693   0.16667   0.00000  Uiso   1.00
C141   C     0.66386   0.25025   0.16760   0.00000  Uiso   1.00
C142   C     0.72541   0.44745   0.13125   0.00000  Uiso   1.00
C143   C     0.75000   0.24999   0.07288   0.00000  Uiso   1.00
C144   C     0.75013   0.25005   0.26046   0.00000  Uiso   1.00
C145   C     0.75055   0.02614   0.16626   0.00000  Uiso   1.00
C146   C     0.75075   0.47290   0.16614   0.00000  Uiso   1.00
C147   C     0.75013   0.25008   0.02179   0.00000  Uiso   1.00
C148   C     0.75017   0.25016   0.31154   0.00000  Uiso   1.00
C149   C     0.54875   0.27953   0.12653   0.00000  Uiso   1.00
C150   C     0.95284   0.20635   0.14195   0.00000  Uiso   1.00
C151   C     0.95412   0.28993   0.16324   0.00000  Uiso   1.00
C152   C     0.83621   0.24972   0.16441   0.00000  Uiso   1.00
C153   C     0.54622   0.21458   0.18616   0.00000  Uiso   1.00
C154   C     0.59284   0.28652   0.14021   0.00000  Uiso   1.00
C155   C     0.90697   0.20620   0.14823   0.00000  Uiso   1.00
C156   C     0.90797   0.29157   0.16115   0.00000  Uiso   1.00
C157   C     0.59244   0.21312   0.18773   0.00000  Uiso   1.00
C158   C     0.61580   0.25037   0.16584   0.00000  Uiso   1.00
C159   C     0.88429   0.24906   0.15828   0.00000  Uiso   1.00
C160   C     0.52456   0.24599   0.15330   0.00000  Uiso   1.00
C161   C     0.97638   0.24754   0.15242   0.00000  Uiso   1.00
C162   C     0.68818   0.12572   0.06718   0.00000  Uiso   1.00
C163   C     0.74086   0.10165   0.12348   0.00000  Uiso   1.00
C164   C     0.68211   0.13323   0.01124   0.00000  Uiso   1.00
C165   C     0.80178   0.38560   0.28283   0.00000  Uiso   1.00
C166   C     0.84776   0.40203   0.29848   0.00000  Uiso   1.00
C167   C     0.80049   0.10515   0.28517   0.00000  Uiso   1.00
C168   C     0.82114   0.14217   0.31901   0.00000  Uiso   1.00
C169   C     0.71091   0.38497   0.04644   0.00000  Uiso   1.00
C170   C     0.66866   0.40258   0.02065   0.00000  Uiso   1.00
C171   C     0.51456   0.28853   0.05040   0.00000  Uiso   1.00
C172   C     0.99220   0.32415   0.01612   0.00000  Uiso   1.00
C173   C     0.97811   0.15874   0.07934   0.00000  Uiso   1.00
C174   C     0.77494   0.39694   0.20152   0.00000  Uiso   1.00
C175   C     0.99379   0.10885   0.06812   0.00000  Uiso   1.00
C176   C     0.97662   0.34345   0.22219   0.00000  Uiso   1.00
C177   C     0.97906   0.39665   0.22700   0.00000  Uiso   1.00
C178   C     0.51492   0.20709   0.26331   0.00000  Uiso   1.00
C179   C     0.96867   0.19516   0.28136   0.00000  Uiso   1.00
C180   C     0.59202   0.36444   0.16027   0.00000  Uiso   1.00
C181   C     0.62246   0.40602   0.16760   0.00000  Uiso   1.00
C182   C     0.88808   0.13430   0.17930   0.00000  Uiso   1.00
C183   C     0.87384   0.08548   0.16280   0.00000  Uiso   1.00
C184   C     0.89006   0.35882   0.11895   0.00000  Uiso   1.00
C185   C     0.76014   0.10176   0.20987   0.00000  Uiso   1.00
C186   C     0.86289   0.40416   0.12068   0.00000  Uiso   1.00
C187   C     0.61181   0.13552   0.19253   0.00000  Uiso   1.00
C188   C     0.63692   0.09892   0.22334   0.00000  Uiso   1.00
C189   C     0.72688   0.39769   0.13047   0.00000  Uiso   1.00
C190   C     0.74266   0.05208   0.12254   0.00000  Uiso   1.00
C191   C     0.77664   0.44680   0.20057   0.00000  Uiso   1.00
C192   C     0.75823   0.05176   0.21024   0.00000  Uiso   1.00
H193   H     0.73803   0.03435   0.08705   0.00000  Uiso   1.00
H194   H     0.79328   0.35499   0.30649   0.00000  Uiso   1.00
H195   H     0.77653   0.41344   0.29117   0.00000  Uiso   1.00
H196   H     0.85821   0.43191   0.27486   0.00000  Uiso   1.00
H197   H     0.84722   0.41358   0.00477   0.00000  Uiso   1.00
H198   H     0.87224   0.37277   0.29450   0.00000  Uiso   1.00
H199   H     0.82770   0.08782   0.26380   0.00000  Uiso   1.00
H200   H     0.78413   0.07893   0.30944   0.00000  Uiso   1.00
H201   H     0.84685   0.12560   0.01015   0.00000  Uiso   1.00
H202   H     0.83678   0.16992   0.29617   0.00000  Uiso   1.00
H203   H     0.79527   0.15848   0.00958   0.00000  Uiso   1.00
H204   H     0.79896   0.46488   0.22571   0.00000  Uiso   1.00
H205   H     0.72240   0.35295   0.02636   0.00000  Uiso   1.00
H206   H     0.73758   0.41151   0.04207   0.00000  Uiso   1.00
H207   H     0.65652   0.43536   0.03879   0.00000  Uiso   1.00
H208   H     0.67545   0.40998   0.31402   0.00000  Uiso   1.00
H209   H     0.64252   0.37546   0.02287   0.00000  Uiso   1.00
H210   H     0.98954   0.26140   0.05829   0.00000  Uiso   1.00
H211   H     0.54330   0.27221   0.03067   0.00000  Uiso   1.00
H212   H     0.51708   0.34883   0.00119   0.00000  Uiso   1.00
H213   H     0.97582   0.30517   0.31831   0.00000  Uiso   1.00
H214   H     0.96640   0.34433   0.03667   0.00000  Uiso   1.00
H215   H     0.76213   0.03285   0.24503   0.00000  Uiso   1.00
H216   H     0.50307   0.18314   0.06407   0.00000  Uiso   1.00
H217   H     0.94546   0.16445   0.06019   0.00000  Uiso   1.00
H218   H     0.99701   0.10396   0.02709   0.00000  Uiso   1.00
H219   H     0.52659   0.10215   0.08618   0.00000  Uiso   1.00
H220   H     0.96950   0.08324   0.08253   0.00000  Uiso   1.00
H221   H     0.50624   0.32765   0.24086   0.00000  Uiso   1.00
H222   H     0.94607   0.33200   0.24183   0.00000  Uiso   1.00
H223   H     0.97904   0.40682   0.26712   0.00000  Uiso   1.00
H224   H     0.94990   0.41330   0.20815   0.00000  Uiso   1.00
H225   H     0.50989   0.40962   0.20961   0.00000  Uiso   1.00
H226   H     0.70400   0.46581   0.10497   0.00000  Uiso   1.00
H227   H     0.51731   0.24622   0.26240   0.00000  Uiso   1.00
H228   H     0.53980   0.19352   0.29078   0.00000  Uiso   1.00
H229   H     0.96546   0.15651   0.28556   0.00000  Uiso   1.00
H230   H     0.96247   0.21238   0.31791   0.00000  Uiso   1.00
H231   H     0.94333   0.20812   0.25416   0.00000  Uiso   1.00
H232   H     0.58334   0.35146   0.19835   0.00000  Uiso   1.00
H233   H     0.56138   0.37760   0.14132   0.00000  Uiso   1.00
H234   H     0.63123   0.42108   0.13080   0.00000  Uiso   1.00
H235   H     0.60527   0.43367   0.18983   0.00000  Uiso   1.00
H236   H     0.65277   0.39470   0.18836   0.00000  Uiso   1.00
H237   H     0.67200   0.15558   0.08697   0.00000  Uiso   1.00
H238   H     0.86620   0.14653   0.21003   0.00000  Uiso   1.00
H239   H     0.92263   0.13129   0.19419   0.00000  Uiso   1.00
H240   H     0.83933   0.08676   0.14806   0.00000  Uiso   1.00
H241   H     0.89611   0.07225   0.13292   0.00000  Uiso   1.00
H242   H     0.87562   0.06082   0.19492   0.00000  Uiso   1.00
H243   H     0.87768   0.33709   0.08709   0.00000  Uiso   1.00
H244   H     0.92503   0.36858   0.11189   0.00000  Uiso   1.00
H245   H     0.86898   0.42303   0.15647   0.00000  Uiso   1.00
H246   H     0.87236   0.42743   0.08937   0.00000  Uiso   1.00
H247   H     0.82714   0.39614   0.11677   0.00000  Uiso   1.00
H248   H     0.67100   0.09248   0.07711   0.00000  Uiso   1.00
H249   H     0.62710   0.13703   0.15491   0.00000  Uiso   1.00
H250   H     0.57694   0.12362   0.18831   0.00000  Uiso   1.00
H251   H     0.67101   0.11122   0.23134   0.00000  Uiso   1.00
H252   H     0.61958   0.09299   0.25920   0.00000  Uiso   1.00
H253   H     0.63883   0.06519   0.20242   0.00000  Uiso   1.00
H254   H     0.69663   0.10299   0.32380   0.00000  Uiso   1.00
H255   H     0.64621   0.13629   0.00202   0.00000  Uiso   1.00
H256   H     0.69871   0.16595   0.33282   0.00000  Uiso   1.00
N257   N     0.75000   0.12623   0.16667   0.00000  Uiso   1.00
N258   N     0.75000   0.37376   0.16667   0.00000  Uiso   1.00
O259   O     0.68453   0.28974   0.16667   0.00000  Uiso   1.00
O260   O     0.80260   0.37031   0.23242   0.00000  Uiso   1.00
O261   O     0.76861   0.12700   0.25342   0.00000  Uiso   1.00
O262   O     0.70161   0.37234   0.09652   0.00000  Uiso   1.00
O263   O     0.52843   0.31155   0.09444   0.00000  Uiso   1.00
O264   O     0.97504   0.16456   0.13155   0.00000  Uiso   1.00
O265   O     0.97742   0.33103   0.17112   0.00000  Uiso   1.00
O266   O     0.52213   0.18509   0.21652   0.00000  Uiso   1.00
O267   O     0.61289   0.32920   0.13055   0.00000  Uiso   1.00
O268   O     0.88412   0.16523   0.13811   0.00000  Uiso   1.00
O269   O     0.88627   0.33469   0.16496   0.00000  Uiso   1.00
O270   O     0.81547   0.21026   0.16666   0.00000  Uiso   1.00
O271   O     0.61430   0.17969   0.21679   0.00000  Uiso   1.00
O272   O     0.81547   0.28974   0.16666   0.00000  Uiso   1.00
O273   O     0.68453   0.21026   0.16667   0.00000  Uiso   1.00
O274   O     0.75000   0.28973   0.09511   0.00000  Uiso   1.00
O275   O     0.75000   0.21027   0.23822   0.00000  Uiso   1.00
O276   O     0.75000   0.28973   0.23822   0.00000  Uiso   1.00
O277   O     0.75000   0.21027   0.09511   0.00000  Uiso   1.00
O278   O     0.73399   0.12489   0.07887   0.00000  Uiso   1.00
Zn279  Zn    0.75000   0.30307   0.16667   0.00000  Uiso   1.00
Zn280  Zn    0.75000   0.19693   0.16667   0.00000  Uiso   1.00
C281   C     0.16386   0.75025   0.16760   0.00000  Uiso   1.00
C282   C     0.22541   0.94745   0.13125   0.00000  Uiso   1.00
C283   C     0.25000   0.74999   0.07288   0.00000  Uiso   1.00
C284   C     0.25013   0.75005   0.26046   0.00000  Uiso   1.00
C285   C     0.25055   0.52614   0.16626   0.00000  Uiso   1.00
C286   C     0.25075   0.97290   0.16614   0.00000  Uiso   1.00
C287   C     0.25013   0.75008   0.02179   0.00000  Uiso   1.00
C288   C     0.25017   0.75016   0.31154   0.00000  Uiso   1.00
C289   C     0.04875   0.77953   0.12653   0.00000  Uiso   1.00
C290   C     0.45284   0.70635   0.14195   0.00000  Uiso   1.00
C291   C     0.45412   0.78993   0.16324   0.00000  Uiso   1.00
C292   C     0.33621   0.74972   0.16441   0.00000  Uiso   1.00
C293   C     0.04622   0.71458   0.18616   0.00000  Uiso   1.00
C294   C     0.09284   0.78652   0.14021   0.00000  Uiso   1.00
C295   C     0.40697   0.70620   0.14823   0.00000  Uiso   1.00
C296   C     0.40797   0.79157   0.16115   0.00000  Uiso   1.00
C297   C     0.09244   0.71312   0.18773   0.00000  Uiso   1.00
C298   C     0.11580   0.75037   0.16584   0.00000  Uiso   1.00
C299   C     0.38429   0.74906   0.15828   0.00000  Uiso   1.00
C300   C     0.02456   0.74599   0.15330   0.00000  Uiso   1.00
C301   C     0.47638   0.74754   0.15242   0.00000  Uiso   1.00
C302   C     0.18818   0.62572   0.06718   0.00000  Uiso   1.00
C303   C     0.24086   0.60165   0.12348   0.00000  Uiso   1.00
C304   C     0.18211   0.63323   0.01124   0.00000  Uiso   1.00
C305   C     0.30178   0.88560   0.28283   0.00000  Uiso   1.00
C306   C     0.34776   0.90203   0.29848   0.00000  Uiso   1.00
C307   C     0.30049   0.60515   0.28517   0.00000  Uiso   1.00
C308   C     0.32114   0.64217   0.31901   0.00000  Uiso   1.00
C309   C     0.21091   0.88497   0.04644   0.00000  Uiso   1.00
C310   C     0.16866   0.90258   0.02065   0.00000  Uiso   1.00
C311   C     0.01456   0.78853   0.05040   0.00000  Uiso   1.00
C312   C     0.49220   0.82415   0.01612   0.00000  Uiso   1.00
C313   C     0.47811   0.65874   0.07934   0.00000  Uiso   1.00
C314   C     0.27494   0.89694   0.20152   0.00000  Uiso   1.00
C315   C     0.49379   0.60885   0.06812   0.00000  Uiso   1.00
C316   C     0.47662   0.84345   0.22219   0.00000  Uiso   1.00
C317   C     0.47906   0.89665   0.22700   0.00000  Uiso   1.00
C318   C     0.01492   0.70709   0.26331   0.00000  Uiso   1.00
C319   C     0.46867   0.69516   0.28136   0.00000  Uiso   1.00
C320   C     0.09202   0.86444   0.16027   0.00000  Uiso   1.00
C321   C     0.12246   0.90602   0.16760   0.00000  Uiso   1.00
C322   C     0.38808   0.63430   0.17930   0.00000  Uiso   1.00
C323   C     0.37384   0.58548   0.16280   0.00000  Uiso   1.00
C324   C     0.39006   0.85882   0.11895   0.00000  Uiso   1.00
C325   C     0.26014   0.60176   0.20987   0.00000  Uiso   1.00
C326   C     0.36289   0.90416   0.12068   0.00000  Uiso   1.00
C327   C     0.11181   0.63552   0.19253   0.00000  Uiso   1.00
C328   C     0.13692   0.59892   0.22334   0.00000  Uiso   1.00
C329   C     0.22688   0.89769   0.13047   0.00000  Uiso   1.00
C330   C     0.24266   0.55208   0.12254   0.00000  Uiso   1.00
C331   C     0.27664   0.94680   0.20057   0.00000  Uiso   1.00
C332   C     0.25823   0.55176   0.21024   0.00000  Uiso   1.00
H333   H     0.23803   0.53435   0.08705   0.00000  Uiso   1.00
H334   H     0.29328   0.85499   0.30649   0.00000  Uiso   1.00
H335   H     0.27653   0.91344   0.29117   0.00000  Uiso   1.00
H336   H     0.35821   0.93191   0.27486   0.00000  Uiso   1.00
H337   H     0.34722   0.91358   0.00477   0.00000  Uiso   1.00
H338   H     0.37224   0.87277   0.29450   0.00000  Uiso   1.00
H339   H     0.32770   0.58782   0.26380   0.00000  Uiso   1.00
H340   H     0.28413   0.57893   0.30944   0.00000  Uiso   1.00
H341   H     0.34685   0.62560   0.01015   0.00000  Uiso   1.00
H342   H     0.33678   0.66992   0.29617   0.00000  Uiso   1.00
H343   H     0.29527   0.65848   0.00958   0.00000  Uiso   1.00
H344   H     0.29896   0.96488   0.22571   0.00000  Uiso   1.00
H345   H     0.22240   0.85295   0.02636   0.00000  Uiso   1.00
H346   H     0.23758   0.91151   0.04207   0.00000  Uiso   1.00
H347   H     0.15652   0.93536   0.03879   0.00000  Uiso   1.00
H348   H     0.17545   0.90998   0.31402   0.00000  Uiso   1.00
H349   H     0.14252   0.87546   0.02287   0.00000  Uiso   1.00
H350   H     0.48954   0.76140   0.05829   0.00000  Uiso   1.00
H351   H     0.04330   0.77221   0.03067   0.00000  Uiso   1.00
H352   H     0.01708   0.84883   0.00119   0.00000  Uiso   1.00
H353   H     0.47582   0.80517   0.31831   0.00000  Uiso   1.00
H354   H     0.46640   0.84433   0.03667   0.00000  Uiso   1.00
H355   H     0.26213   0.53285   0.24503   0.00000  Uiso   1.00
H356   H     0.00307   0.68314   0.06407   0.00000  Uiso   1.00
H357   H     0.44546   0.66445   0.06019   0.00000  Uiso   1.00
H358   H     0.49701   0.60396   0.02709   0.00000  Uiso   1.00
H359   H     0.02659   0.60215   0.08618   0.00000  Uiso   1.00
H360   H     0.46950   0.58324   0.08253   0.00000  Uiso   1.00
H361   H     0.00624   0.82765   0.24086   0.00000  Uiso   1.00
H362   H     0.44607   0.83200   0.24183   0.00000  Uiso   1.00
H363   H     0.47904   0.90682   0.26712   0.00000  Uiso   1.00
H364   H     0.44990   0.91330   0.20815   0.00000  Uiso   1.00
H365   H     0.00989   0.90962   0.20961   0.00000  Uiso   1.00
H366   H     0.20400   0.96581   0.10497   0.00000  Uiso   1.00
H367   H     0.01731   0.74622   0.26240   0.00000  Uiso   1.00
H368   H     0.03980   0.69352   0.29078   0.00000  Uiso   1.00
H369   H     0.46546   0.65651   0.28556   0.00000  Uiso   1.00
H370   H     0.46247   0.71238   0.31791   0.00000  Uiso   1.00
H371   H     0.44333   0.70812   0.25416   0.00000  Uiso   1.00
H372   H     0.08334   0.85146   0.19835   0.00000  Uiso   1.00
H373   H     0.06138   0.87760   0.14132   0.00000  Uiso   1.00
H374   H     0.13123   0.92108   0.13080   0.00000  Uiso   1.00
H375   H     0.10527   0.93367   0.18983   0.00000  Uiso   1.00
H376   H     0.15277   0.89470   0.18836   0.00000  Uiso   1.00
H377   H     0.17200   0.65558   0.08697   0.00000  Uiso   1.00
H378   H     0.36620   0.64653   0.21003   0.00000  Uiso   1.00
H379   H     0.42263   0.63129   0.19419   0.00000  Uiso   1.00
H380   H     0.33933   0.58676   0.14806   0.00000  Uiso   1.00
H381   H     0.39611   0.57225   0.13292   0.00000  Uiso   1.00
H382   H     0.37562   0.56082   0.19492   0.00000  Uiso   1.00
H383   H     0.37768   0.83709   0.08709   0.00000  Uiso   1.00
H384   H     0.42503   0.86858   0.11189   0.00000  Uiso   1.00
H385   H     0.36898   0.92303   0.15647   0.00000  Uiso   1.00
H386   H     0.37236   0.92743   0.08937   0.00000  Uiso   1.00
H387   H     0.32714   0.89614   0.11677   0.00000  Uiso   1.00
H388   H     0.17100   0.59248   0.07711   0.00000  Uiso   1.00
H389   H     0.12710   0.63703   0.15491   0.00000  Uiso   1.00
H390   H     0.07694   0.62362   0.18831   0.00000  Uiso   1.00
H391   H     0.17101   0.61122   0.23134   0.00000  Uiso   1.00
H392   H     0.11958   0.59299   0.25920   0.00000  Uiso   1.00
H393   H     0.13883   0.56519   0.20242   0.00000  Uiso   1.00
H394   H     0.19663   0.60299   0.32380   0.00000  Uiso   1.00
H395   H     0.14621   0.63629   0.00202   0.00000  Uiso   1.00
H396   H     0.19871   0.66595   0.33282   0.00000  Uiso   1.00
N397   N     0.25000   0.62623   0.16667   0.00000  Uiso   1.00
N398   N     0.25000   0.87376   0.16667   0.00000  Uiso   1.00
O399   O     0.18453   0.78974   0.16667   0.00000  Uiso   1.00
O400   O     0.30260   0.87031   0.23242   0.00000  Uiso   1.00
O401   O     0.26861   0.62700   0.25342   0.00000  Uiso   1.00
O402   O     0.20161   0.87234   0.09652   0.00000  Uiso   1.00
O403   O     0.02843   0.81155   0.09444   0.00000  Uiso   1.00
O404   O     0.47504   0.66456   0.13155   0.00000  Uiso   1.00
O405   O     0.47742   0.83103   0.17112   0.00000  Uiso   1.00
O406   O     0.02213   0.68509   0.21652   0.00000  Uiso   1.00
O407   O     0.11289   0.82920   0.13055   0.00000  Uiso   1.00
O408   O     0.38412   0.66523   0.13811   0.00000  Uiso   1.00
O409   O     0.38627   0.83469   0.16496   0.00000  Uiso   1.00
O410   O     0.31547   0.71026   0.16666   0.00000  Uiso   1.00
O411   O     0.11430   0.67969   0.21679   0.00000  Uiso   1.00
O412   O     0.31547   0.78974   0.16666   0.00000  Uiso   1.00
O413   O     0.18453   0.71026   0.16667   0.00000  Uiso   1.00
O414   O     0.25000   0.78973   0.09511   0.00000  Uiso   1.00
O415   O     0.25000   0.71027   0.23822   0.00000  Uiso   1.00
O416   O     0.25000   0.78973   0.23822   0.00000  Uiso   1.00
O417   O     0.25000   0.71027   0.09511   0.00000  Uiso   1.00
O418   O     0.23399   0.62489   0.07887   0.00000  Uiso   1.00
Zn419  Zn    0.25000   0.80307   0.16667   0.00000  Uiso   1.00
Zn420  Zn    0.25000   0.69693   0.16667   0.00000  Uiso   1.00
C421   C     0.66386   0.75025   0.16760   0.00000  Uiso   1.00
C422   C     0.72541   0.94745   0.13125   0.00000  Uiso   1.00
C423   C     0.75000   0.74999   0.07288   0.00000  Uiso   1.00
C424   C     0.75013   0.75005   0.26046   0.00000  Uiso   1.00
C425   C     0.75055   0.52614   0.16626   0.00000  Uiso   1.00
C426   C     0.75075   0.97290   0.16614   0.00000  Uiso   1.00
C427   C     0.75013   0.75008   0.02179   0.00000  Uiso   1.00
C428   C     0.75017   0.75016   0.31154   0.00000  Uiso   1.00
C429   C     0.54875   0.77953   0.12653   0.00000  Uiso   1.00
C430   C     0.95284   0.70635   0.14195   0.00000  Uiso   1.00
C431   C     0.95412   0.78993   0.16324   0.00000  Uiso   1.00
C432   C     0.83621   0.74972   0.16441   0.00000  Uiso   1.00
C433   C     0.54622   0.71458   0.18616   0.00000  Uiso   1.00
C434   C     0.59284   0.78652   0.14021   0.00000  Uiso   1.00
C435   C     0.90697   0.70620   0.14823   0.00000  Uiso   1.00
C436   C     0.90797   0.79157   0.16115   0.00000  Uiso   1.00
C437   C     0.59244   0.71312   0.18773   0.00000  Uiso   1.00
C438   C     0.61580   0.75037   0.16584   0.00000  Uiso   1.00
C439   C     0.88429   0.74906   0.15828   0.00000  Uiso   1.00
C440   C     0.52456   0.74599   0.15330   0.00000  Uiso   1.00
C441   C     0.97638   0.74754   0.15242   0.00000  Uiso   1.00
C442   C     0.68818   0.62572   0.06718   0.00000  Uiso   1.00
C443   C     0.74086   0.60165   0.12348   0.00000  Uiso   1.00
C444   C     0.68211   0.63323   0.01124   0.00000  Uiso   1.00
C445   C     0.80178   0.88560   0.28283   0.00000  Uiso   1.00
C446   C     0.84776   0.90203   0.29848   0.00000  Uiso   1.00
C447   C     0.80049   0.60515   0.28517   0.00000  Uiso   1.00
C448   C     0.82114   0.64217   0.31901   0.00000  Uiso   1.00
C449   C     0.71091   0.88497   0.04644   0.00000  Uiso   1.00
C450   C     0.66866   0.90258   0.02065   0.00000  Uiso   1.00
C451   C     0.51456   0.78853   0.05040   0.00000  Uiso   1.00
C452   C     0.99220   0.82415   0.01612   0.00000  Uiso   1.00
C453   C     0.97811   0.65874   0.07934   0.00000  Uiso   1.00
C454   C     0.77494   0.89694   0.20152   0.00000  Uiso   1.00
C455   C     0.99379   0.60885   0.06812   0.00000  Uiso   1.00
C456   C     0.97662   0.84345   0.22219   0.00000  Uiso   1.00
C457   C     0.97906   0.89665   0.22700   0.00000  Uiso   1.00
C458   C     0.51492   0.70709   0.26331   0.00000  Uiso   1.00
C459   C     0.96867   0.69516   0.28136   0.00000  Uiso   1.00
C460   C     0.59202   0.86444   0.16027   0.00000  Uiso   1.00
C461   C     0.62246   0.90602   0.16760   0.00000  Uiso   1.00
C462   C     0.88808   0.63430   0.17930   0.00000  Uiso   1.00
C463   C     0.87384   0.58548   0.16280   0.00000  Uiso   1.00
C464   C     0.89006   0.85882   0.11895   0.00000  Uiso   1.00
C465   C     0.76014   0.60176   0.20987   0.00000  Uiso   1.00
C466   C     0.86289   0.90416   0.12068   0.00000  Uiso   1.00
C467   C     0.61181   0.63552   0.19253   0.00000  Uiso   1.00
C468   C     0.63692   0.59892   0.22334   0.00000  Uiso   1.00
C469   C     0.72688   0.89769   0.13047   0.00000  Uiso   1.00
C470   C     0.74266   0.55208   0.12254   0.00000  Uiso   1.00
C471   C     0.77664   0.94680   0.20057   0.00000  Uiso   1.00
C472   C     0.75823   0.55176   0.21024   0.00000  Uiso   1.00
H473   H     0.73803   0.53435   0.08705   0.00000  Uiso   1.00
H474   H     0.79328   0.85499   0.30649   0.00000  Uiso   1.00
H475   H     0.77653   0.91344   0.29117   0.00000  Uiso   1.00
H476   H     0.85821   0.93191   0.27486   0.00000  Uiso   1.00
H477   H     0.84722   0.91358   0.00477   0.00000  Uiso   1.00
H478   H     0.87224   0.87277   0.29450   0.00000  Uiso   1.00
H479   H     0.82770   0.58782   0.26380   0.00000  Uiso   1.00
H480   H     0.78413   0.57893   0.30944   0.00000  Uiso   1.00
H481   H     0.84685   0.62560   0.01015   0.00000  Uiso   1.00
H482   H     0.83678   0.66992   0.29617   0.00000  Uiso   1.00
H483   H     0.79527   0.65848   0.00958   0.00000  Uiso   1.00
H484   H     0.79896   0.96488   0.22571   0.00000  Uiso   1.00
H485   H     0.72240   0.85295   0.02636   0.00000  Uiso   1.00
H486   H     0.73758   0.91151   0.04207   0.00000  Uiso   1.00
H487   H     0.65652   0.93536   0.03879   0.00000  Uiso   1.00
H488   H     0.67545   0.90998   0.31402   0.00000  Uiso   1.00
H489   H     0.64252   0.87546   0.02287   0.00000  Uiso   1.00
H490   H     0.98954   0.76140   0.05829   0.00000  Uiso   1.00
H491   H     0.54330   0.77221   0.03067   0.00000  Uiso   1.00
H492   H     0.51708   0.84883   0.00119   0.00000  Uiso   1.00
H493   H     0.97582   0.80517   0.31831   0.00000  Uiso   1.00
H494   H     0.96640   0.84433   0.03667   0.00000  Uiso   1.00
H495   H     0.76213   0.53285   0.24503   0.00000  Uiso   1.00
H496   H     0.50307   0.68314   0.06407   0.00000  Uiso   1.00
H497   H     0.94546   0.66445   0.06019   0.00000  Uiso   1.00
H498   H     0.99701   0.60396   0.02709   0.00000  Uiso   1.00
H499   H     0.52659   0.60215   0.08618   0.00000  Uiso   1.00
H500   H     0.96950   0.58324   0.08253   0.00000  Uiso   1.00
H501   H     0.50624   0.82765   0.24086   0.00000  Uiso   1.00
H502   H     0.94607   0.83200   0.24183   0.00000  Uiso   1.00
H503   H     0.97904   0.90682   0.26712   0.00000  Uiso   1.00
H504   H     0.94990   0.91330   0.20815   0.00000  Uiso   1.00
H505   H     0.50989   0.90962   0.20961   0.00000  Uiso   1.00
H506   H     0.70400   0.96581   0.10497   0.00000  Uiso   1.00
H507   H     0.51731   0.74622   0.26240   0.00000  Uiso   1.00
H508   H     0.53980   0.69352   0.29078   0.00000  Uiso   1.00
H509   H     0.96546   0.65651   0.28556   0.00000  Uiso   1.00
H510   H     0.96247   0.71238   0.31791   0.00000  Uiso   1.00
H511   H     0.94333   0.70812   0.25416   0.00000  Uiso   1.00
H512   H     0.58334   0.85146   0.19835   0.00000  Uiso   1.00
H513   H     0.56138   0.87760   0.14132   0.00000  Uiso   1.00
H514   H     0.63123   0.92108   0.13080   0.00000  Uiso   1.00
H515   H     0.60527   0.93367   0.18983   0.00000  Uiso   1.00
H516   H     0.65277   0.89470   0.18836   0.00000  Uiso   1.00
H517   H     0.67200   0.65558   0.08697   0.00000  Uiso   1.00
H518   H     0.86620   0.64653   0.21003   0.00000  Uiso   1.00
H519   H     0.92263   0.63129   0.19419   0.00000  Uiso   1.00
H520   H     0.83933   0.58676   0.14806   0.00000  Uiso   1.00
H521   H     0.89611   0.57225   0.13292   0.00000  Uiso   1.00
H522   H     0.87562   0.56082   0.19492   0.00000  Uiso   1.00
H523   H     0.87768   0.83709   0.08709   0.00000  Uiso   1.00
H524   H     0.92503   0.86858   0.11189   0.00000  Uiso   1.00
H525   H     0.86898   0.92303   0.15647   0.00000  Uiso   1.00
H526   H     0.87236   0.92743   0.08937   0.00000  Uiso   1.00
H527   H     0.82714   0.89614   0.11677   0.00000  Uiso   1.00
H528   H     0.67100   0.59248   0.07711   0.00000  Uiso   1.00
H529   H     0.62710   0.63703   0.15491   0.00000  Uiso   1.00
H530   H     0.57694   0.62362   0.18831   0.00000  Uiso   1.00
H531   H     0.67101   0.61122   0.23134   0.00000  Uiso   1.00
H532   H     0.61958   0.59299   0.25920   0.00000  Uiso   1.00
H533   H     0.63883   0.56519   0.20242   0.00000  Uiso   1.00
H534   H     0.69663   0.60299   0.32380   0.00000  Uiso   1.00
H535   H     0.64621   0.63629   0.00202   0.00000  Uiso   1.00
H536   H     0.69871   0.66595   0.33282   0.00000  Uiso   1.00
N537   N     0.75000   0.62623   0.16667   0.00000  Uiso   1.00
N538   N     0.75000   0.87376   0.16667   0.00000  Uiso   1.00
O539   O     0.68453   0.78974   0.16667   0.00000  Uiso   1.00
O540   O     0.80260   0.87031   0.23242   0.00000  Uiso   1.00
O541   O     0.76861   0.62700   0.25342   0.00000  Uiso   1.00
O542   O     0.70161   0.87234   0.09652   0.00000  Uiso   1.00
O543   O     0.52843   0.81155   0.09444   0.00000  Uiso   1.00
O544   O     0.97504   0.66456   0.13155   0.00000  Uiso   1.00
O545   O     0.97742   0.83103   0.17112   0.00000  Uiso   1.00
O546   O     0.52213   0.68509   0.21652   0.00000  Uiso   1.00
O547   O     0.61289   0.82920   0.13055   0.00000  Uiso   1.00
O548   O     0.88412   0.66523   0.13811   0.00000  Uiso   1.00
O549   O     0.88627   0.83469   0.16496   0.00000  Uiso   1.00
O550   O     0.81547   0.71026   0.16666   0.00000  Uiso   1.00
O551   O     0.61430   0.67969   0.21679   0.00000  Uiso   1.00
O552   O     0.81547   0.78974   0.16666   0.00000  Uiso   1.00
O553   O     0.68453   0.71026   0.16667   0.00000  Uiso   1.00
O554   O     0.75000   0.78973   0.09511   0.00000  Uiso   1.00
O555   O     0.75000   0.71027   0.23822   0.00000  Uiso   1.00
O556   O     0.75000   0.78973   0.23822   0.00000  Uiso   1.00
O557   O     0.75000   0.71027   0.09511   0.00000  Uiso   1.00
O558   O     0.73399   0.62489   0.07887   0.00000  Uiso   1.00
Zn559  Zn    0.75000   0.80307   0.16667   0.00000  Uiso   1.00
Zn560  Zn    0.75000   0.69693   0.16667   0.00000  Uiso   1.00
C561   C     0.16386   0.25025   0.50093   0.00000  Uiso   1.00
C562   C     0.22541   0.44745   0.46458   0.00000  Uiso   1.00
C563   C     0.25000   0.24999   0.40621   0.00000  Uiso   1.00
C564   C     0.25013   0.25005   0.59379   0.00000  Uiso   1.00
C565   C     0.25055   0.02614   0.49960   0.00000  Uiso   1.00
C566   C     0.25075   0.47290   0.49947   0.00000  Uiso   1.00
C567   C     0.25013   0.25008   0.35513   0.00000  Uiso   1.00
C568   C     0.25017   0.25016   0.64487   0.00000  Uiso   1.00
C569   C     0.04875   0.27953   0.45986   0.00000  Uiso   1.00
C570   C     0.45284   0.20635   0.47529   0.00000  Uiso   1.00
C571   C     0.45412   0.28993   0.49657   0.00000  Uiso   1.00
C572   C     0.33621   0.24972   0.49775   0.00000  Uiso   1.00
C573   C     0.04622   0.21458   0.51949   0.00000  Uiso   1.00
C574   C     0.09284   0.28652   0.47354   0.00000  Uiso   1.00
C575   C     0.40697   0.20620   0.48157   0.00000  Uiso   1.00
C576   C     0.40797   0.29157   0.49448   0.00000  Uiso   1.00
C577   C     0.09244   0.21312   0.52106   0.00000  Uiso   1.00
C578   C     0.11580   0.25037   0.49918   0.00000  Uiso   1.00
C579   C     0.38429   0.24906   0.49161   0.00000  Uiso   1.00
C580   C     0.02456   0.24599   0.48663   0.00000  Uiso   1.00
C581   C     0.47638   0.24754   0.48575   0.00000  Uiso   1.00
C582   C     0.18818   0.12572   0.40051   0.00000  Uiso   1.00
C583   C     0.24086   0.10165   0.45681   0.00000  Uiso   1.00
C584   C     0.18211   0.13323   0.34458   0.00000  Uiso   1.00
C585   C     0.30178   0.38560   0.61617   0.00000  Uiso   1.00
C586   C     0.34776   0.40203   0.63182   0.00000  Uiso   1.00
C587   C     0.30049   0.10515   0.61851   0.00000  Uiso   1.00
C588   C     0.32114   0.14217   0.65235   0.00000  Uiso   1.00
C589   C     0.21091   0.38497   0.37977   0.00000  Uiso   1.00
C590   C     0.16866   0.40258   0.35399   0.00000  Uiso   1.00
C591   C     0.01456   0.28853   0.38373   0.00000  Uiso   1.00
C592   C     0.49220   0.32415   0.34945   0.00000  Uiso   1.00
C593   C     0.47811   0.15874   0.41267   0.00000  Uiso   1.00
C594   C     0.27494   0.39694   0.53485   0.00000  Uiso   1.00
C595   C     0.49379   0.10885   0.40145   0.00000  Uiso   1.00
C596   C     0.47662   0.34345   0.55552   0.00000  Uiso   1.00
C597   C     0.47906   0.39665   0.56033   0.00000  Uiso   1.00
C598   C     0.01492   0.20709   0.59664   0.00000  Uiso   1.00
C599   C     0.46867   0.19516   0.61469   0.00000  Uiso   1.00
C600   C     0.09202   0.36444   0.49360   0.00000  Uiso   1.00
C601   C     0.12246   0.40602   0.50093   0.00000  Uiso   1.00
C602   C     0.38808   0.13430   0.51264   0.00000  Uiso   1.00
C603   C     0.37384   0.08548   0.49614   0.00000  Uiso   1.00
C604   C     0.39006   0.35882   0.45229   0.00000  Uiso   1.00
C605   C     0.26014   0.10176   0.54320   0.00000  Uiso   1.00
C606   C     0.36289   0.40416   0.45402   0.00000  Uiso   1.00
C607   C     0.11181   0.13552   0.52586   0.00000  Uiso   1.00
C608   C     0.13692   0.09892   0.55668   0.00000  Uiso   1.00
C609   C     0.22688   0.39769   0.46380   0.00000  Uiso   1.00
C610   C     0.24266   0.05208   0.45588   0.00000  Uiso   1.00
C611   C     0.27664   0.44680   0.53390   0.00000  Uiso   1.00
C612   C     0.25823   0.05176   0.54358   0.00000  Uiso   1.00
H613   H     0.23803   0.03435   0.42039   0.00000  Uiso   1.00
H614   H     0.29328   0.35499   0.63982   0.00000  Uiso   1.00
H615   H     0.27653   0.41344   0.62450   0.00000  Uiso   1.00
H616   H     0.35821   0.43191   0.60820   0.00000  Uiso   1.00
H617   H     0.34722   0.41358   0.33811   0.00000  Uiso   1.00
H618   H     0.37224   0.37277   0.62784   0.00000  Uiso   1.00
H619   H     0.32770   0.08782   0.59713   0.00000  Uiso   1.00
H620   H     0.28413   0.07893   0.64277   0.00000  Uiso   1.00
H621   H     0.34685   0.12560   0.34348   0.00000  Uiso   1.00
H622   H     0.33678   0.16992   0.62951   0.00000  Uiso   1.00
H623   H     0.29527   0.15848   0.34292   0.00000  Uiso   1.00
H624   H     0.29896   0.46488   0.55905   0.00000  Uiso   1.00
H625   H     0.22240   0.35295   0.35969   0.00000  Uiso   1.00
H626   H     0.23758   0.41151   0.37540   0.00000  Uiso   1.00
H627   H     0.15652   0.43536   0.37213   0.00000  Uiso   1.00
H628   H     0.17545   0.40998   0.64735   0.00000  Uiso   1.00
H629   H     0.14252   0.37546   0.35620   0.00000  Uiso   1.00
H630   H     0.48954   0.26140   0.39162   0.00000  Uiso   1.00
H631   H     0.04330   0.27221   0.36400   0.00000  Uiso   1.00
H632   H     0.01708   0.34883   0.33452   0.00000  Uiso   1.00
H633   H     0.47582   0.30517   0.65165   0.00000  Uiso   1.00
H634   H     0.46640   0.34433   0.37001   0.00000  Uiso   1.00
H635   H     0.26213   0.03285   0.57836   0.00000  Uiso   1.00
H636   H     0.00307   0.18314   0.39740   0.00000  Uiso   1.00
H637   H     0.44546   0.16445   0.39353   0.00000  Uiso   1.00
H638   H     0.49701   0.10396   0.36042   0.00000  Uiso   1.00
H639   H     0.02659   0.10215   0.41951   0.00000  Uiso   1.00
H640   H     0.46950   0.08324   0.41586   0.00000  Uiso   1.00
H641   H     0.00624   0.32765   0.57419   0.00000  Uiso   1.00
H642   H     0.44607   0.33200   0.57516   0.00000  Uiso   1.00
H643   H     0.47904   0.40682   0.60046   0.00000  Uiso   1.00
H644   H     0.44990   0.41330   0.54148   0.00000  Uiso   1.00
H645   H     0.00989   0.40962   0.54294   0.00000  Uiso   1.00
H646   H     0.20400   0.46581   0.43830   0.00000  Uiso   1.00
H647   H     0.01731   0.24622   0.59573   0.00000  Uiso   1.00
H648   H     0.03980   0.19352   0.62411   0.00000  Uiso   1.00
H649   H     0.46546   0.15651   0.61889   0.00000  Uiso   1.00
H650   H     0.46247   0.21238   0.65125   0.00000  Uiso   1.00
H651   H     0.44333   0.20812   0.58749   0.00000  Uiso   1.00
H652   H     0.08334   0.35146   0.53168   0.00000  Uiso   1.00
H653   H     0.06138   0.37760   0.47465   0.00000  Uiso   1.00
H654   H     0.13123   0.42108   0.46414   0.00000  Uiso   1.00
H655   H     0.10527   0.43367   0.52316   0.00000  Uiso   1.00
H656   H     0.15277   0.39470   0.52169   0.00000  Uiso   1.00
H657   H     0.17200   0.15558   0.42030   0.00000  Uiso   1.00
H658   H     0.36620   0.14653   0.54336   0.00000  Uiso   1.00
H659   H     0.42263   0.13129   0.52753   0.00000  Uiso   1.00
H660   H     0.33933   0.08676   0.48139   0.00000  Uiso   1.00
H661   H     0.39611   0.07225   0.46626   0.00000  Uiso   1.00
H662   H     0.37562   0.06082   0.52825   0.00000  Uiso   1.00
H663   H     0.37768   0.33709   0.42042   0.00000  Uiso   1.00
H664   H     0.42503   0.36858   0.44522   0.00000  Uiso   1.00
H665   H     0.36898   0.42303   0.48981   0.00000  Uiso   1.00
H666   H     0.37236   0.42743   0.42270   0.00000  Uiso   1.00
H667   H     0.32714   0.39614   0.45010   0.00000  Uiso   1.00
H668   H     0.17100   0.09248   0.41044   0.00000  Uiso   1.00
H669   H     0.12710   0.13703   0.48825   0.00000  Uiso   1.00
H670   H     0.07694   0.12362   0.52165   0.00000  Uiso   1.00
H671   H     0.17101   0.11122   0.56467   0.00000  Uiso   1.00
H672   H     0.11958   0.09299   0.59254   0.00000  Uiso   1.00
H673   H     0.13883   0.06519   0.53575   0.00000  Uiso   1.00
H674   H     0.19663   0.10299   0.65713   0.00000  Uiso   1.00
H675   H     0.14621   0.13629   0.33535   0.00000  Uiso   1.00
H676   H     0.19871   0.16595   0.66615   0.00000  Uiso   1.00
N677   N     0.25000   0.12623   0.50000   0.00000  Uiso   1.00
N678   N     0.25000   0.37376   0.50000   0.00000  Uiso   1.00
O679   O     0.18453   0.28974   0.50000   0.00000  Uiso   1.00
O680   O     0.30260   0.37031   0.56575   0.00000  Uiso   1.00
O681   O     0.26861   0.12700   0.58675   0.00000  Uiso   1.00
O682   O     0.20161   0.37234   0.42986   0.00000  Uiso   1.00
O683   O     0.02843   0.31155   0.42777   0.00000  Uiso   1.00
O684   O     0.47504   0.16456   0.46489   0.00000  Uiso   1.00
O685   O     0.47742   0.33103   0.50445   0.00000  Uiso   1.00
O686   O     0.02213   0.18509   0.54985   0.00000  Uiso   1.00
O687   O     0.11289   0.32920   0.46388   0.00000  Uiso   1.00
O688   O     0.38412   0.16523   0.47145   0.00000  Uiso   1.00
O689   O     0.38627   0.33469   0.49830   0.00000  Uiso   1.00
O690   O     0.31547   0.21026   0.50000   0.00000  Uiso   1.00
O691   O     0.11430   0.17969   0.55012   0.00000  Uiso   1.00
O692   O     0.31547   0.28974   0.50000   0.00000  Uiso   1.00
O693   O     0.18453   0.21026   0.50000   0.00000  Uiso   1.00
O694   O     0.25000   0.28973   0.42845   0.00000  Uiso   1.00
O695   O     0.25000   0.21027   0.57155   0.00000  Uiso   1.00
O696   O     0.25000   0.28973   0.57155   0.00000  Uiso   1.00
O697   O     0.25000   0.21027   0.42845   0.00000  Uiso   1.00
O698   O     0.23399   0.12489   0.41221   0.00000  Uiso   1.00
Zn699  Zn    0.25000   0.30307   0.50000   0.00000  Uiso   1.00
Zn700  Zn    0.25000   0.19693   0.50000   0.00000  Uiso   1.00
C701   C     0.66386   0.25025   0.50093   0.00000  Uiso   1.00
C702   C     0.72541   0.44745   0.46458   0.00000  Uiso   1.00
C703   C     0.75000   0.24999   0.40621   0.00000  Uiso   1.00
C704   C     0.75013   0.25005   0.59379   0.00000  Uiso   1.00
C705   C     0.75055   0.02614   0.49960   0.00000  Uiso   1.00
C706   C     0.75075   0.47290   0.49947   0.00000  Uiso   1.00
C707   C     0.75013   0.25008   0.35513   0.00000  Uiso   1.00
C708   C     0.75017   0.25016   0.64487   0.00000  Uiso   1.00
C709   C     0.54875   0.27953   0.45986   0.00000  Uiso   1.00
C710   C     0.95284   0.20635   0.47529   0.00000  Uiso   1.00
C711   C     0.95412   0.28993   0.49657   0.00000  Uiso   1.00
C712   C     0.83621   0.24972   0.49775   0.00000  Uiso   1.00
C713   C     0.54622   0.21458   0.51949   0.00000  Uiso   1.00
C714   C     0.59284   0.28652   0.47354   0.00000  Uiso   1.00
C715   C     0.90697   0.20620   0.48157   0.00000  Uiso   1.00
C716   C     0.90797   0.29157   0.49448   0.00000  Uiso   1.00
C717   C     0.59244   0.21312   0.52106   0.00000  Uiso   1.00
C718   C     0.61580   0.25037   0.49918   0.00000  Uiso   1.00
C719   C     0.88429   0.24906   0.49161   0.00000  Uiso   1.00
C720   C     0.52456   0.24599   0.48663   0.00000  Uiso   1.00
C721   C     0.97638   0.24754   0.48575   0.00000  Uiso   1.00
C722   C     0.68818   0.12572   0.40051   0.00000  Uiso   1.00
C723   C     0.74086   0.10165   0.45681   0.00000  Uiso   1.00
C724   C     0.68211   0.13323   0.34458   0.00000  Uiso   1.00
C725   C     0.80178   0.38560   0.61617   0.00000  Uiso   1.00
C726   C     0.84776   0.40203   0.63182   0.00000  Uiso   1.00
C727   C     0.80049   0.10515   0.61851   0.00000  Uiso   1.00
C728   C     0.82114   0.14217   0.65235   0.00000  Uiso   1.00
C729   C     0.71091   0.38497   0.37977   0.00000  Uiso   1.00
C730   C     0.66866   0.40258   0.35399   0.00000  Uiso   1.00
C731   C     0.51456   0.28853   0.38373   0.00000  Uiso   1.00
C732   C     0.99220   0.32415   0.34945   0.00000  Uiso   1.00
C733   C     0.97811   0.15874   0.41267   0.00000  Uiso   1.00
C734   C     0.77494   0.39694   0.53485   0.00000  Uiso   1.00
C735   C     0.99379   0.10885   0.40145   0.00000  Uiso   1.00
C736   C     0.97662   0.34345   0.55552   0.00000  Uiso   1.00
C737   C     0.97906   0.39665   0.56033   0.00000  Uiso   1.00
C738   C     0.51492   0.20709   0.59664   0.00000  Uiso   1.00
C739   C     0.96867   0.19516   0.61469   0.00000  Uiso   1.00
C740   C     0.59202   0.36444   0.49360   0.00000  Uiso   1.00
C741   C     0.62246   0.40602   0.50093   0.00000  Uiso   1.00
C742   C     0.88808   0.13430   0.51264   0.00000  Uiso   1.00
C743   C     0.87384   0.08548   0.49614   0.00000  Uiso   1.00
C744   C     0.89006   0.35882   0.45229   0.00000  Uiso   1.00
C745   C     0.76014   0.10176   0.54320   0.00000  Uiso   1.00
C746   C     0.86289   0.40416   0.45402   0.00000  Uiso   1.00
C747   C     0.61181   0.13552   0.52586   0.00000  Uiso   1.00
C748   C     0.63692   0.09892   0.55668   0.00000  Uiso   1.00
C749   C     0.72688   0.39769   0.46380   0.00000  Uiso   1.00
C750   C     0.74266   0.05208   0.45588   0.00000  Uiso   1.00
C751   C     0.77664   0.44680   0.53390   0.00000  Uiso   1.00
C752   C     0.75823   0.05176   0.54358   0.00000  Uiso   1.00
H753   H     0.73803   0.03435   0.42039   0.00000  Uiso   1.00
H754   H     0.79328   0.35499   0.63982   0.00000  Uiso   1.00
H755   H     0.77653   0.41344   0.62450   0.00000  Uiso   1.00
H756   H     0.85821   0.43191   0.60820   0.00000  Uiso   1.00
H757   H     0.84722   0.41358   0.33811   0.00000  Uiso   1.00
H758   H     0.87224   0.37277   0.62784   0.00000  Uiso   1.00
H759   H     0.82770   0.08782   0.59713   0.00000  Uiso   1.00
H760   H     0.78413   0.07893   0.64277   0.00000  Uiso   1.00
H761   H     0.84685   0.12560   0.34348   0.00000  Uiso   1.00
H762   H     0.83678   0.16992   0.62951   0.00000  Uiso   1.00
H763   H     0.79527   0.15848   0.34292   0.00000  Uiso   1.00
H764   H     0.79896   0.46488   0.55905   0.00000  Uiso   1.00
H765   H     0.72240   0.35295   0.35969   0.00000  Uiso   1.00
H766   H     0.73758   0.41151   0.37540   0.00000  Uiso   1.00
H767   H     0.65652   0.43536   0.37213   0.00000  Uiso   1.00
H768   H     0.67545   0.40998   0.64735   0.00000  Uiso   1.00
H769   H     0.64252   0.37546   0.35620   0.00000  Uiso   1.00
H770   H     0.98954   0.26140   0.39162   0.00000  Uiso   1.00
H771   H     0.54330   0.27221   0.36400   0.00000  Uiso   1.00
H772   H     0.51708   0.34883   0.33452   0.00000  Uiso   1.00
H773   H     0.97582   0.30517   0.65165   0.00000  Uiso   1.00
H774   H     0.96640   0.34433   0.37001   0.00000  Uiso   1.00
H775   H     0.76213   0.03285   0.57836   0.00000  Uiso   1.00
H776   H     0.50307   0.18314   0.39740   0.00000  Uiso   1.00
H777   H     0.94546   0.16445   0.39353   0.00000  Uiso   1.00
H778   H     0.99701   0.10396   0.36042   0.00000  Uiso   1.00
H779   H     0.52659   0.10215   0.41951   0.00000  Uiso   1.00
H780   H     0.96950   0.08324   0.41586   0.00000  Uiso   1.00
H781   H     0.50624   0.32765   0.57419   0.00000  Uiso   1.00
H782   H     0.94607   0.33200   0.57516   0.00000  Uiso   1.00
H783   H     0.97904   0.40682   0.60046   0.00000  Uiso   1.00
H784   H     0.94990   0.41330   0.54148   0.00000  Uiso   1.00
H785   H     0.50989   0.40962   0.54294   0.00000  Uiso   1.00
H786   H     0.70400   0.46581   0.43830   0.00000  Uiso   1.00
H787   H     0.51731   0.24622   0.59573   0.00000  Uiso   1.00
H788   H     0.53980   0.19352   0.62411   0.00000  Uiso   1.00
H789   H     0.96546   0.15651   0.61889   0.00000  Uiso   1.00
H790   H     0.96247   0.21238   0.65125   0.00000  Uiso   1.00
H791   H     0.94333   0.20812   0.58749   0.00000  Uiso   1.00
H792   H     0.58334   0.35146   0.53168   0.00000  Uiso   1.00
H793   H     0.56138   0.37760   0.47465   0.00000  Uiso   1.00
H794   H     0.63123   0.42108   0.46414   0.00000  Uiso   1.00
H795   H     0.60527   0.43367   0.52316   0.00000  Uiso   1.00
H796   H     0.65277   0.39470   0.52169   0.00000  Uiso   1.00
H797   H     0.67200   0.15558   0.42030   0.00000  Uiso   1.00
H798   H     0.86620   0.14653   0.54336   0.00000  Uiso   1.00
H799   H     0.92263   0.13129   0.52753   0.00000  Uiso   1.00
H800   H     0.83933   0.08676   0.48139   0.00000  Uiso   1.00
H801   H     0.89611   0.07225   0.46626   0.00000  Uiso   1.00
H802   H     0.87562   0.06082   0.52825   0.00000  Uiso   1.00
H803   H     0.87768   0.33709   0.42042   0.00000  Uiso   1.00
H804   H     0.92503   0.36858   0.44522   0.00000  Uiso   1.00
H805   H     0.86898   0.42303   0.48981   0.00000  Uiso   1.00
H806   H     0.87236   0.42743   0.42270   0.00000  Uiso   1.00
H807   H     0.82714   0.39614   0.45010   0.00000  Uiso   1.00
H808   H     0.67100   0.09248   0.41044   0.00000  Uiso   1.00
H809   H     0.62710   0.13703   0.48825   0.00000  Uiso   1.00
H810   H     0.57694   0.12362   0.52165   0.00000  Uiso   1.00
H811   H     0.67101   0.11122   0.56467   0.00000  Uiso   1.00
H812   H     0.61958   0.09299   0.59254   0.00000  Uiso   1.00
H813   H     0.63883   0.06519   0.53575   0.00000  Uiso   1.00
H814   H     0.69663   0.10299   0.65713   0.00000  Uiso   1.00
H815   H     0.64621   0.13629   0.33535   0.00000  Uiso   1.00
H816   H     0.69871   0.16595   0.66615   0.00000  Uiso   1.00
N817   N     0.75000   0.12623   0.50000   0.00000  Uiso   1.00
N818   N     0.75000   0.37376   0.50000   0.00000  Uiso   1.00
O819   O     0.68453   0.28974   0.50000   0.00000  Uiso   1.00
O820   O     0.80260   0.37031   0.56575   0.00000  Uiso   1.00
O821   O     0.76861   0.12700   0.58675   0.00000  Uiso   1.00
O822   O     0.70161   0.37234   0.42986   0.00000  Uiso   1.00
O823   O     0.52843   0.31155   0.42777   0.00000  Uiso   1.00
O824   O     0.97504   0.16456   0.46489   0.00000  Uiso   1.00
O825   O     0.97742   0.33103   0.50445   0.00000  Uiso   1.00
O826   O     0.52213   0.18509   0.54985   0.00000  Uiso   1.00
O827   O     0.61289   0.32920   0.46388   0.00000  Uiso   1.00
O828   O     0.88412   0.16523   0.47145   0.00000  Uiso   1.00
O829   O     0.88627   0.33469   0.49830   0.00000  Uiso   1.00
O830   O     0.81547   0.21026   0.50000   0.00000  Uiso   1.00
O831   O     0.61430   0.17969   0.55012   0.00000  Uiso   1.00
O832   O     0.81547   0.28974   0.50000   0.00000  Uiso   1.00
O833   O     0.68453   0.21026   0.50000   0.00000  Uiso   1.00
O834   O     0.75000   0.28973   0.42845   0.00000  Uiso   1.00
O835   O     0.75000   0.21027   0.57155   0.00000  Uiso   1.00
O836   O     0.75000   0.28973   0.57155   0.00000  Uiso   1.00
O837   O     0.75000   0.21027   0.42845   0.00000  Uiso   1.00
O838   O     0.73399   0.12489   0.41221   0.00000  Uiso   1.00
Zn839  Zn    0.75000   0.30307   0.50000   0.00000  Uiso   1.00
Zn840  Zn    0.75000   0.19693   0.50000   0.00000  Uiso   1.00
C841   C     0.16386   0.75025   0.50093   0.00000  Uiso   1.00
C842   C     0.22541   0.94745   0.46458   0.00000  Uiso   1.00
C843   C     0.25000   0.74999   0.40621   0.00000  Uiso   1.00
C844   C     0.25013   0.75005   0.59379   0.00000  Uiso   1.00
C845   C     0.25055   0.52614   0.49960   0.00000  Uiso   1.00
C846   C     0.25075   0.97290   0.49947   0.00000  Uiso   1.00
C847   C     0.25013   0.75008   0.35513   0.00000  Uiso   1.00
C848   C     0.25017   0.75016   0.64487   0.00000  Uiso   1.00
C849   C     0.04875   0.77953   0.45986   0.00000  Uiso   1.00
C850   C     0.45284   0.70635   0.47529   0.00000  Uiso   1.00
C851   C     0.45412   0.78993   0.49657   0.00000  Uiso   1.00
C852   C     0.33621   0.74972   0.49775   0.00000  Uiso   1.00
C853   C     0.04622   0.71458   0.51949   0.00000  Uiso   1.00
C854   C     0.09284   0.78652   0.47354   0.00000  Uiso   1.00
C855   C     0.40697   0.70620   0.48157   0.00000  Uiso   1.00
C856   C     0.40797   0.79157   0.49448   0.00000  Uiso   1.00
C857   C     0.09244   0.71312   0.52106   0.00000  Uiso   1.00
C858   C     0.11580   0.75037   0.49918   0.00000  Uiso   1.00
C859   C     0.38429   0.74906   0.49161   0.00000  Uiso   1.00
C860   C     0.02456   0.74599   0.48663   0.00000  Uiso   1.00
C861   C     0.47638   0.74754   0.48575   0.00000  Uiso   1.00
C862   C     0.18818   0.62572   0.40051   0.00000  Uiso   1.00
C863   C     0.24086   0.60165   0.45681   0.00000  Uiso   1.00
C864   C     0.18211   0.63323   0.34458   0.00000  Uiso   1.00
C865   C     0.30178   0.88560   0.61617   0.00000  Uiso   1.00
C866   C     0.34776   0.90203   0.63182   0.00000  Uiso   1.00
C867   C     0.30049   0.60515   0.61851   0.00000  Uiso   1.00
C868   C     0.32114   0.64217   0.65235   0.00000  Uiso   1.00
C869   C     0.21091   0.88497   0.37977   0.00000  Uiso   1.00
C870   C     0.16866   0.90258   0.35399   0.00000  Uiso   1.00
C871   C     0.01456   0.78853   0.38373   0.00000  Uiso   1.00
C872   C     0.49220   0.82415   0.34945   0.00000  Uiso   1.00
C873   C     0.47811   0.65874   0.41267   0.00000  Uiso   1.00
C874   C     0.27494   0.89694   0.53485   0.00000  Uiso   1.00
C875   C     0.49379   0.60885   0.40145   0.00000  Uiso   1.00
C876   C     0.47662   0.84345   0.55552   0.00000  Uiso   1.00
C877   C     0.47906   0.89665   0.56033   0.00000  Uiso   1.00
C878   C     0.01492   0.70709   0.59664   0.00000  Uiso   1.00
C879   C     0.46867   0.69516   0.61469   0.00000  Uiso   1.00
C880   C     0.09202   0.86444   0.49360   0.00000  Uiso   1.00
C881   C     0.12246   0.90602   0.50093   0.00000  Uiso   1.00
C882   C     0.38808   0.63430   0.51264   0.00000  Uiso   1.00
C883   C     0.37384   0.58548   0.49614   0.00000  Uiso   1.00
C884   C     0.39006   0.85882   0.45229   0.00000  Uiso   1.00
C885   C     0.26014   0.60176   0.54320   0.00000  Uiso   1.00
C886   C     0.36289   0.90416   0.45402   0.00000  Uiso   1.00
C887   C     0.11181   0.63552   0.52586   0.00000  Uiso   1.00
C888   C     0.13692   0.59892   0.55668   0.00000  Uiso   1.00
C889   C     0.22688   0.89769   0.46380   0.00000  Uiso   1.00
C890   C     0.24266   0.55208   0.45588   0.00000  Uiso   1.00
C891   C     0.27664   0.94680   0.53390   0.00000  Uiso   1.00
C892   C     0.25823   0.55176   0.54358   0.00000  Uiso   1.00
H893   H     0.23803   0.53435   0.42039   0.00000  Uiso   1.00
H894   H     0.29328   0.85499   0.63982   0.00000  Uiso   1.00
H895   H     0.27653   0.91344   0.62450   0.00000  Uiso   1.00
H896   H     0.35821   0.93191   0.60820   0.00000  Uiso   1.00
H897   H     0.34722   0.91358   0.33811   0.00000  Uiso   1.00
H898   H     0.37224   0.87277   0.62784   0.00000  Uiso   1.00
H899   H     0.32770   0.58782   0.59713   0.00000  Uiso   1.00
H900   H     0.28413   0.57893   0.64277   0.00000  Uiso   1.00
H901   H     0.34685   0.62560   0.34348   0.00000  Uiso   1.00
H902   H     0.33678   0.66992   0.62951   0.00000  Uiso   1.00
H903   H     0.29527   0.65848   0.34292   0.00000  Uiso   1.00
H904   H     0.29896   0.96488   0.55905   0.00000  Uiso   1.00
H905   H     0.22240   0.85295   0.35969   0.00000  Uiso   1.00
H906   H     0.23758   0.91151   0.37540   0.00000  Uiso   1.00
H907   H     0.15652   0.93536   0.37213   0.00000  Uiso   1.00
H908   H     0.17545   0.90998   0.64735   0.00000  Uiso   1.00
H909   H     0.14252   0.87546   0.35620   0.00000  Uiso   1.00
H910   H     0.48954   0.76140   0.39162   0.00000  Uiso   1.00
H911   H     0.04330   0.77221   0.36400   0.00000  Uiso   1.00
H912   H     0.01708   0.84883   0.33452   0.00000  Uiso   1.00
H913   H     0.47582   0.80517   0.65165   0.00000  Uiso   1.00
H914   H     0.46640   0.84433   0.37001   0.00000  Uiso   1.00
H915   H     0.26213   0.53285   0.57836   0.00000  Uiso   1.00
H916   H     0.00307   0.68314   0.39740   0.00000  Uiso   1.00
H917   H     0.44546   0.66445   0.39353   0.00000  Uiso   1.00
H918   H     0.49701   0.60396   0.36042   0.00000  Uiso   1.00
H919   H     0.02659   0.60215   0.41951   0.00000  Uiso   1.00
H920   H     0.46950   0.58324   0.41586   0.00000  Uiso   1.00
H921   H     0.00624   0.82765   0.57419   0.00000  Uiso   1.00
H922   H     0.44607   0.83200   0.57516   0.00000  Uiso   1.00
H923   H     0.47904   0.90682   0.60046   0.00000  Uiso   1.00
H924   H     0.44990   0.91330   0.54148   0.00000  Uiso   1.00
H925   H     0.00989   0.90962   0.54294   0.00000  Uiso   1.00
H926   H     0.20400   0.96581   0.43830   0.00000  Uiso   1.00
H927   H     0.01731   0.74622   0.59573   0.00000  Uiso   1.00
H928   H     0.03980   0.69352   0.62411   0.00000  Uiso   1.00
H929   H     0.46546   0.65651   0.61889   0.00000  Uiso   1.00
H930   H     0.46247   0.71238   0.65125   0.00000  Uiso   1.00
H931   H     0.44333   0.70812   0.58749   0.00000  Uiso   1.00
H932   H     0.08334   0.85146   0.53168   0.00000  Uiso   1.00
H933   H     0.06138   0.87760   0.47465   0.00000  Uiso   1.00
H934   H     0.13123   0.92108   0.46414   0.00000  Uiso   1.00
H935   H     0.10527   0.93367   0.52316   0.00000  Uiso   1.00
H936   H     0.15277   0.89470   0.52169   0.00000  Uiso   1.00
H937   H     0.17200   0.65558   0.42030   0.00000  Uiso   1.00
H938   H     0.36620   0.64653   0.54336   0.00000  Uiso   1.00
H939   H     0.42263   0.63129   0.52753   0.00000  Uiso   1.00
H940   H     0.33933   0.58676   0.48139   0.00000  Uiso   1.00
H941   H     0.39611   0.57225   0.46626   0.00000  Uiso   1.00
H942   H     0.37562   0.56082   0.52825   0.00000  Uiso   1.00
H943   H     0.37768   0.83709   0.42042   0.00000  Uiso   1.00
H944   H     0.42503   0.86858   0.44522   0.00000  Uiso   1.00
H945   H     0.36898   0.92303   0.48981   0.00000  Uiso   1.00
H946   H     0.37236   0.92743   0.42270   0.00000  Uiso   1.00
H947   H     0.32714   0.89614   0.45010   0.00000  Uiso   1.00
H948   H     0.17100   0.59248   0.41044   0.00000  Uiso   1.00
H949   H     0.12710   0.63703   0.48825   0.00000  Uiso   1.00
H950   H     0.07694   0.62362   0.52165   0.00000  Uiso   1.00
H951   H     0.17101   0.61122   0.56467   0.00000  Uiso   1.00
H952   H     0.11958   0.59299   0.59254   0.00000  Uiso   1.00
H953   H     0.13883   0.56519   0.53575   0.00000  Uiso   1.00
H954   H     0.19663   0.60299   0.65713   0.00000  Uiso   1.00
H955   H     0.14621   0.63629   0.33535   0.00000  Uiso   1.00
H956   H     0.19871   0.66595   0.66615   0.00000  Uiso   1.00
N957   N     0.25000   0.62623   0.50000   0.00000  Uiso   1.00
N958   N     0.25000   0.87376   0.50000   0.00000  Uiso   1.00
O959   O     0.18453   0.78974   0.50000   0.00000  Uiso   1.00
O960   O     0.30260   0.87031   0.56575   0.00000  Uiso   1.00
O961   O     0.26861   0.62700   0.58675   0.00000  Uiso   1.00
O962   O     0.20161   0.87234   0.42986   0.00000  Uiso   1.00
O963   O     0.02843   0.81155   0.42777   0.00000  Uiso   1.00
O964   O     0.47504   0.66456   0.46489   0.00000  Uiso   1.00
O965   O     0.47742   0.83103   0.50445   0.00000  Uiso   1.00
O966   O     0.02213   0.68509   0.54985   0.00000  Uiso   1.00
O967   O     0.11289   0.82920   0.46388   0.00000  Uiso   1.00
O968   O     0.38412   0.66523   0.47145   0.00000  Uiso   1.00
O969   O     0.38627   0.83469   0.49830   0.00000  Uiso   1.00
O970   O     0.31547   0.71026   0.50000   0.00000  Uiso   1.00
O971   O     0.11430   0.67969   0.55012   0.00000  Uiso   1.00
O972   O     0.31547   0.78974   0.50000   0.00000  Uiso   1.00
O973   O     0.18453   0.71026   0.50000   0.00000  Uiso   1.00
O974   O     0.25000   0.78973   0.42845   0.00000  Uiso   1.00
O975   O     0.25000   0.71027   0.57155   0.00000  Uiso   1.00
O976   O     0.25000   0.78973   0.57155   0.00000  Uiso   1.00
O977   O     0.25000   0.71027   0.42845   0.00000  Uiso   1.00
O978   O     0.23399   0.62489   0.41221   0.00000  Uiso   1.00
Zn979  Zn    0.25000   0.80307   0.50000   0.00000  Uiso   1.00
Zn980  Zn    0.25000   0.69693   0.50000   0.00000  Uiso   1.00
C981   C     0.66386   0.75025   0.50093   0.00000  Uiso   1.00
C982   C     0.72541   0.94745   0.46458   0.00000  Uiso   1.00
C983   C     0.75000   0.74999   0.40621   0.00000  Uiso   1.00
C984   C     0.75013   0.75005   0.59379   0.00000  Uiso   1.00
C985   C     0.75055   0.52614   0.49960   0.00000  Uiso   1.00
C986   C     0.75075   0.97290   0.49947   0.00000  Uiso   1.00
C987   C     0.75013   0.75008   0.35513   0.00000  Uiso   1.00
C988   C     0.75017   0.75016   0.64487   0.00000  Uiso   1.00
C989   C     0.54875   0.77953   0.45986   0.00000  Uiso   1.00
C990   C     0.95284   0.70635   0.47529   0.00000  Uiso   1.00
C991   C     0.95412   0.78993   0.49657   0.00000  Uiso   1.00
C992   C     0.83621   0.74972   0.49775   0.00000  Uiso   1.00
C993   C     0.54622   0.71458   0.51949   0.00000  Uiso   1.00
C994   C     0.59284   0.78652   0.47354   0.00000  Uiso   1.00
C995   C     0.90697   0.70620   0.48157   0.00000  Uiso   1.00
C996   C     0.90797   0.79157   0.49448   0.00000  Uiso   1.00
C997   C     0.59244   0.71312   0.52106   0.00000  Uiso   1.00
C998   C     0.61580   0.75037   0.49918   0.00000  Uiso   1.00
C999   C     0.88429   0.74906   0.49161   0.00000  Uiso   1.00
C1000  C     0.52456   0.74599   0.48663   0.00000  Uiso   1.00
C1001  C     0.97638   0.74754   0.48575   0.00000  Uiso   1.00
C1002  C     0.68818   0.62572   0.40051   0.00000  Uiso   1.00
C1003  C     0.74086   0.60165   0.45681   0.00000  Uiso   1.00
C1004  C     0.68211   0.63323   0.34458   0.00000  Uiso   1.00
C1005  C     0.80178   0.88560   0.61617   0.00000  Uiso   1.00
C1006  C     0.84776   0.90203   0.63182   0.00000  Uiso   1.00
C1007  C     0.80049   0.60515   0.61851   0.00000  Uiso   1.00
C1008  C     0.82114   0.64217   0.65235   0.00000  Uiso   1.00
C1009  C     0.71091   0.88497   0.37977   0.00000  Uiso   1.00
C1010  C     0.66866   0.90258   0.35399   0.00000  Uiso   1.00
C1011  C     0.51456   0.78853   0.38373   0.00000  Uiso   1.00
C1012  C     0.99220   0.82415   0.34945   0.00000  Uiso   1.00
C1013  C     0.97811   0.65874   0.41267   0.00000  Uiso   1.00
C1014  C     0.77494   0.89694   0.53485   0.00000  Uiso   1.00
C1015  C     0.99379   0.60885   0.40145   0.00000  Uiso   1.00
C1016  C     0.97662   0.84345   0.55552   0.00000  Uiso   1.00
C1017  C     0.97906   0.89665   0.56033   0.00000  Uiso   1.00
C1018  C     0.51492   0.70709   0.59664   0.00000  Uiso   1.00
C1019  C     0.96867   0.69516   0.61469   0.00000  Uiso   1.00
C1020  C     0.59202   0.86444   0.49360   0.00000  Uiso   1.00
C1021  C     0.62246   0.90602   0.50093   0.00000  Uiso   1.00
C1022  C     0.88808   0.63430   0.51264   0.00000  Uiso   1.00
C1023  C     0.87384   0.58548   0.49614   0.00000  Uiso   1.00
C1024  C     0.89006   0.85882   0.45229   0.00000  Uiso   1.00
C1025  C     0.76014   0.60176   0.54320   0.00000  Uiso   1.00
C1026  C     0.86289   0.90416   0.45402   0.00000  Uiso   1.00
C1027  C     0.61181   0.63552   0.52586   0.00000  Uiso   1.00
C1028  C     0.63692   0.59892   0.55668   0.00000  Uiso   1.00
C1029  C     0.72688   0.89769   0.46380   0.00000  Uiso   1.00
C1030  C     0.74266   0.55208   0.45588   0.00000  Uiso   1.00
C1031  C     0.77664   0.94680   0.53390   0.00000  Uiso   1.00
C1032  C     0.75823   0.55176   0.54358   0.00000  Uiso   1.00
H1033  H     0.73803   0.53435   0.42039   0.00000  Uiso   1.00
H1034  H     0.79328   0.85499   0.63982   0.00000  Uiso   1.00
H1035  H     0.77653   0.91344   0.62450   0.00000  Uiso   1.00
H1036  H     0.85821   0.93191   0.60820   0.00000  Uiso   1.00
H1037  H     0.84722   0.91358   0.33811   0.00000  Uiso   1.00
H1038  H     0.87224   0.87277   0.62784   0.00000  Uiso   1.00
H1039  H     0.82770   0.58782   0.59713   0.00000  Uiso   1.00
H1040  H     0.78413   0.57893   0.64277   0.00000  Uiso   1.00
H1041  H     0.84685   0.62560   0.34348   0.00000  Uiso   1.00
H1042  H     0.83678   0.66992   0.62951   0.00000  Uiso   1.00
H1043  H     0.79527   0.65848   0.34292   0.00000  Uiso   1.00
H1044  H     0.79896   0.96488   0.55905   0.00000  Uiso   1.00
H1045  H     0.72240   0.85295   0.35969   0.00000  Uiso   1.00
H1046  H     0.73758   0.91151   0.37540   0.00000  Uiso   1.00
H1047  H     0.65652   0.93536   0.37213   0.00000  Uiso   1.00
H1048  H     0.67545   0.90998   0.64735   0.00000  Uiso   1.00
H1049  H     0.64252   0.87546   0.35620   0.00000  Uiso   1.00
H1050  H     0.98954   0.76140   0.39162   0.00000  Uiso   1.00
H1051  H     0.54330   0.77221   0.36400   0.00000  Uiso   1.00
H1052  H     0.51708   0.84883   0.33452   0.00000  Uiso   1.00
H1053  H     0.97582   0.80517   0.65165   0.00000  Uiso   1.00
H1054  H     0.96640   0.84433   0.37001   0.00000  Uiso   1.00
H1055  H     0.76213   0.53285   0.57836   0.00000  Uiso   1.00
H1056  H     0.50307   0.68314   0.39740   0.00000  Uiso   1.00
H1057  H     0.94546   0.66445   0.39353   0.00000  Uiso   1.00
H1058  H     0.99701   0.60396   0.36042   0.00000  Uiso   1.00
H1059  H     0.52659   0.60215   0.41951   0.00000  Uiso   1.00
H1060  H     0.96950   0.58324   0.41586   0.00000  Uiso   1.00
H1061  H     0.50624   0.82765   0.57419   0.00000  Uiso   1.00
H1062  H     0.94607   0.83200   0.57516   0.00000  Uiso   1.00
H1063  H     0.97904   0.90682   0.60046   0.00000  Uiso   1.00
H1064  H     0.94990   0.91330   0.54148   0.00000  Uiso   1.00
H1065  H     0.50989   0.90962   0.54294   0.00000  Uiso   1.00
H1066  H     0.70400   0.96581   0.43830   0.00000  Uiso   1.00
H1067  H     0.51731   0.74622   0.59573   0.00000  Uiso   1.00
H1068  H     0.53980   0.69352   0.62411   0.00000  Uiso   1.00
H1069  H     0.96546   0.65651   0.61889   0.00000  Uiso   1.00
H1070  H     0.96247   0.71238   0.65125   0.00000  Uiso   1.00
H1071  H     0.94333   0.70812   0.58749   0.00000  Uiso   1.00
H1072  H     0.58334   0.85146   0.53168   0.00000  Uiso   1.00
H1073  H     0.56138   0.87760   0.47465   0.00000  Uiso   1.00
H1074  H     0.63123   0.92108   0.46414   0.00000  Uiso   1.00
H1075  H     0.60527   0.93367   0.52316   0.00000  Uiso   1.00
H1076  H     0.65277   0.89470   0.52169   0.00000  Uiso   1.00
H1077  H     0.67200   0.65558   0.42030   0.00000  Uiso   1.00
H1078  H     0.86620   0.64653   0.54336   0.00000  Uiso   1.00
H1079  H     0.92263   0.63129   0.52753   0.00000  Uiso   1.00
H1080  H     0.83933   0.58676   0.48139   0.00000  Uiso   1.00
H1081  H     0.89611   0.57225   0.46626   0.00000  Uiso   1.00
H1082  H     0.87562   0.56082   0.52825   0.00000  Uiso   1.00
H1083  H     0.87768   0.83709   0.42042   0.00000  Uiso   1.00
H1084  H     0.92503   0.86858   0.44522   0.00000  Uiso   1.00
H1085  H     0.86898   0.92303   0.48981   0.00000  Uiso   1.00
H1086  H     0.87236   0.92743   0.42270   0.00000  Uiso   1.00
H1087  H     0.82714   0.89614   0.45010   0.00000  Uiso   1.00
H1088  H     0.67100   0.59248   0.41044   0.00000  Uiso   1.00
H1089  H     0.62710   0.63703   0.48825   0.00000  Uiso   1.00
H1090  H     0.57694   0.62362   0.52165   0.00000  Uiso   1.00
H1091  H     0.67101   0.61122   0.56467   0.00000  Uiso   1.00
H1092  H     0.61958   0.59299   0.59254   0.00000  Uiso   1.00
H1093  H     0.63883   0.56519   0.53575   0.00000  Uiso   1.00
H1094  H     0.69663   0.60299   0.65713   0.00000  Uiso   1.00
H1095  H     0.64621   0.63629   0.33535   0.00000  Uiso   1.00
H1096  H     0.69871   0.66595   0.66615   0.00000  Uiso   1.00
N1097  N     0.75000   0.62623   0.50000   0.00000  Uiso   1.00
N1098  N     0.75000   0.87376   0.50000   0.00000  Uiso   1.00
O1099  O     0.68453   0.78974   0.50000   0.00000  Uiso   1.00
O1100  O     0.80260   0.87031   0.56575   0.00000  Uiso   1.00
O1101  O     0.76861   0.62700   0.58675   0.00000  Uiso   1.00
O1102  O     0.70161   0.87234   0.42986   0.00000  Uiso   1.00
O1103  O     0.52843   0.81155   0.42777   0.00000  Uiso   1.00
O1104  O     0.97504   0.66456   0.46489   0.00000  Uiso   1.00
O1105  O     0.97742   0.83103   0.50445   0.00000  Uiso   1.00
O1106  O     0.52213   0.68509   0.54985   0.00000  Uiso   1.00
O1107  O     0.61289   0.82920   0.46388   0.00000  Uiso   1.00
O1108  O     0.88412   0.66523   0.47145   0.00000  Uiso   1.00
O1109  O     0.88627   0.83469   0.49830   0.00000  Uiso   1.00
O1110  O     0.81547   0.71026   0.50000   0.00000  Uiso   1.00
O1111  O     0.61430   0.67969   0.55012   0.00000  Uiso   1.00
O1112  O     0.81547   0.78974   0.50000   0.00000  Uiso   1.00
O1113  O     0.68453   0.71026   0.50000   0.00000  Uiso   1.00
O1114  O     0.75000   0.78973   0.42845   0.00000  Uiso   1.00
O1115  O     0.75000   0.71027   0.57155   0.00000  Uiso   1.00
O1116  O     0.75000   0.78973   0.57155   0.00000  Uiso   1.00
O1117  O     0.75000   0.71027   0.42845   0.00000  Uiso   1.00
O1118  O     0.73399   0.62489   0.41221   0.00000  Uiso   1.00
Zn1119 Zn    0.75000   0.80307   0.50000   0.00000  Uiso   1.00
Zn1120 Zn    0.75000   0.69693   0.50000   0.00000  Uiso   1.00
C1121  C     0.16386   0.25025   0.83427   0.00000  Uiso   1.00
C1122  C     0.22541   0.44745   0.79792   0.00000  Uiso   1.00
C1123  C     0.25000   0.24999   0.73954   0.00000  Uiso   1.00
C1124  C     0.25013   0.25005   0.92712   0.00000  Uiso   1.00
C1125  C     0.25055   0.02614   0.83293   0.00000  Uiso   1.00
C1126  C     0.25075   0.47290   0.83281   0.00000  Uiso   1.00
C1127  C     0.25013   0.25008   0.68846   0.00000  Uiso   1.00
C1128  C     0.25017   0.25016   0.97821   0.00000  Uiso   1.00
C1129  C     0.04875   0.27953   0.79320   0.00000  Uiso   1.00
C1130  C     0.45284   0.20635   0.80862   0.00000  Uiso   1.00
C1131  C     0.45412   0.28993   0.82990   0.00000  Uiso   1.00
C1132  C     0.33621   0.24972   0.83108   0.00000  Uiso   1.00
C1133  C     0.04622   0.21458   0.85283   0.00000  Uiso   1.00
C1134  C     0.09284   0.28652   0.80688   0.00000  Uiso   1.00
C1135  C     0.40697   0.20620   0.81490   0.00000  Uiso   1.00
C1136  C     0.40797   0.29157   0.82782   0.00000  Uiso   1.00
C1137  C     0.09244   0.21312   0.85439   0.00000  Uiso   1.00
C1138  C     0.11580   0.25037   0.83251   0.00000  Uiso   1.00
C1139  C     0.38429   0.24906   0.82495   0.00000  Uiso   1.00
C1140  C     0.02456   0.24599   0.81997   0.00000  Uiso   1.00
C1141  C     0.47638   0.24754   0.81908   0.00000  Uiso   1.00
C1142  C     0.18818   0.12572   0.73384   0.00000  Uiso   1.00
C1143  C     0.24086   0.10165   0.79014   0.00000  Uiso   1.00
C1144  C     0.18211   0.13323   0.67791   0.00000  Uiso   1.00
C1145  C     0.30178   0.38560   0.94950   0.00000  Uiso   1.00
C1146  C     0.34776   0.40203   0.96515   0.00000  Uiso   1.00
C1147  C     0.30049   0.10515   0.95184   0.00000  Uiso   1.00
C1148  C     0.32114   0.14217   0.98568   0.00000  Uiso   1.00
C1149  C     0.21091   0.38497   0.71311   0.00000  Uiso   1.00
C1150  C     0.16866   0.40258   0.68732   0.00000  Uiso   1.00
C1151  C     0.01456   0.28853   0.71706   0.00000  Uiso   1.00
C1152  C     0.49220   0.32415   0.68278   0.00000  Uiso   1.00
C1153  C     0.47811   0.15874   0.74600   0.00000  Uiso   1.00
C1154  C     0.27494   0.39694   0.86819   0.00000  Uiso   1.00
C1155  C     0.49379   0.10885   0.73479   0.00000  Uiso   1.00
C1156  C     0.47662   0.34345   0.88885   0.00000  Uiso   1.00
C1157  C     0.47906   0.39665   0.89367   0.00000  Uiso   1.00
C1158  C     0.01492   0.20709   0.92997   0.00000  Uiso   1.00
C1159  C     0.46867   0.19516   0.94802   0.00000  Uiso   1.00
C1160  C     0.09202   0.36444   0.82694   0.00000  Uiso   1.00
C1161  C     0.12246   0.40602   0.83427   0.00000  Uiso   1.00
C1162  C     0.38808   0.13430   0.84597   0.00000  Uiso   1.00
C1163  C     0.37384   0.08548   0.82947   0.00000  Uiso   1.00
C1164  C     0.39006   0.35882   0.78562   0.00000  Uiso   1.00
C1165  C     0.26014   0.10176   0.87654   0.00000  Uiso   1.00
C1166  C     0.36289   0.40416   0.78735   0.00000  Uiso   1.00
C1167  C     0.11181   0.13552   0.85920   0.00000  Uiso   1.00
C1168  C     0.13692   0.09892   0.89001   0.00000  Uiso   1.00
C1169  C     0.22688   0.39769   0.79713   0.00000  Uiso   1.00
C1170  C     0.24266   0.05208   0.78921   0.00000  Uiso   1.00
C1171  C     0.27664   0.44680   0.86723   0.00000  Uiso   1.00
C1172  C     0.25823   0.05176   0.87691   0.00000  Uiso   1.00
H1173  H     0.23803   0.03435   0.75372   0.00000  Uiso   1.00
H1174  H     0.29328   0.35499   0.97316   0.00000  Uiso   1.00
H1175  H     0.27653   0.41344   0.95783   0.00000  Uiso   1.00
H1176  H     0.35821   0.43191   0.94153   0.00000  Uiso   1.00
H1177  H     0.34722   0.41358   0.67144   0.00000  Uiso   1.00
H1178  H     0.37224   0.37277   0.96117   0.00000  Uiso   1.00
H1179  H     0.32770   0.08782   0.93046   0.00000  Uiso   1.00
H1180  H     0.28413   0.07893   0.97610   0.00000  Uiso   1.00
H1181  H     0.34685   0.12560   0.67682   0.00000  Uiso   1.00
H1182  H     0.33678   0.16992   0.96284   0.00000  Uiso   1.00
H1183  H     0.29527   0.15848   0.67625   0.00000  Uiso   1.00
H1184  H     0.29896   0.46488   0.89238   0.00000  Uiso   1.00
H1185  H     0.22240   0.35295   0.69303   0.00000  Uiso   1.00
H1186  H     0.23758   0.41151   0.70874   0.00000  Uiso   1.00
H1187  H     0.15652   0.43536   0.70546   0.00000  Uiso   1.00
H1188  H     0.17545   0.40998   0.98068   0.00000  Uiso   1.00
H1189  H     0.14252   0.37546   0.68953   0.00000  Uiso   1.00
H1190  H     0.48954   0.26140   0.72496   0.00000  Uiso   1.00
H1191  H     0.04330   0.27221   0.69733   0.00000  Uiso   1.00
H1192  H     0.01708   0.34883   0.66786   0.00000  Uiso   1.00
H1193  H     0.47582   0.30517   0.98498   0.00000  Uiso   1.00
H1194  H     0.46640   0.34433   0.70334   0.00000  Uiso   1.00
H1195  H     0.26213   0.03285   0.91170   0.00000  Uiso   1.00
H1196  H     0.00307   0.18314   0.73073   0.00000  Uiso   1.00
H1197  H     0.44546   0.16445   0.72686   0.00000  Uiso   1.00
H1198  H     0.49701   0.10396   0.69375   0.00000  Uiso   1.00
H1199  H     0.02659   0.10215   0.75285   0.00000  Uiso   1.00
H1200  H     0.46950   0.08324   0.74919   0.00000  Uiso   1.00
H1201  H     0.00624   0.32765   0.90753   0.00000  Uiso   1.00
H1202  H     0.44607   0.33200   0.90850   0.00000  Uiso   1.00
H1203  H     0.47904   0.40682   0.93379   0.00000  Uiso   1.00
H1204  H     0.44990   0.41330   0.87482   0.00000  Uiso   1.00
H1205  H     0.00989   0.40962   0.87627   0.00000  Uiso   1.00
H1206  H     0.20400   0.46581   0.77164   0.00000  Uiso   1.00
H1207  H     0.01731   0.24622   0.92907   0.00000  Uiso   1.00
H1208  H     0.03980   0.19352   0.95744   0.00000  Uiso   1.00
H1209  H     0.46546   0.15651   0.95222   0.00000  Uiso   1.00
H1210  H     0.46247   0.21238   0.98458   0.00000  Uiso   1.00
H1211  H     0.44333   0.20812   0.92082   0.00000  Uiso   1.00
H1212  H     0.08334   0.35146   0.86501   0.00000  Uiso   1.00
H1213  H     0.06138   0.37760   0.80798   0.00000  Uiso   1.00
H1214  H     0.13123   0.42108   0.79747   0.00000  Uiso   1.00
H1215  H     0.10527   0.43367   0.85649   0.00000  Uiso   1.00
H1216  H     0.15277   0.39470   0.85502   0.00000  Uiso   1.00
H1217  H     0.17200   0.15558   0.75363   0.00000  Uiso   1.00
H1218  H     0.36620   0.14653   0.87670   0.00000  Uiso   1.00
H1219  H     0.42263   0.13129   0.86086   0.00000  Uiso   1.00
H1220  H     0.33933   0.08676   0.81472   0.00000  Uiso   1.00
H1221  H     0.39611   0.07225   0.79959   0.00000  Uiso   1.00
H1222  H     0.37562   0.06082   0.86158   0.00000  Uiso   1.00
H1223  H     0.37768   0.33709   0.75375   0.00000  Uiso   1.00
H1224  H     0.42503   0.36858   0.77855   0.00000  Uiso   1.00
H1225  H     0.36898   0.42303   0.82314   0.00000  Uiso   1.00
H1226  H     0.37236   0.42743   0.75603   0.00000  Uiso   1.00
H1227  H     0.32714   0.39614   0.78344   0.00000  Uiso   1.00
H1228  H     0.17100   0.09248   0.74377   0.00000  Uiso   1.00
H1229  H     0.12710   0.13703   0.82158   0.00000  Uiso   1.00
H1230  H     0.07694   0.12362   0.85498   0.00000  Uiso   1.00
H1231  H     0.17101   0.11122   0.89801   0.00000  Uiso   1.00
H1232  H     0.11958   0.09299   0.92587   0.00000  Uiso   1.00
H1233  H     0.13883   0.06519   0.86908   0.00000  Uiso   1.00
H1234  H     0.19663   0.10299   0.99046   0.00000  Uiso   1.00
H1235  H     0.14621   0.13629   0.66868   0.00000  Uiso   1.00
H1236  H     0.19871   0.16595   0.99949   0.00000  Uiso   1.00
N1237  N     0.25000   0.12623   0.83333   0.00000  Uiso   1.00
N1238  N     0.25000   0.37376   0.83333   0.00000  Uiso   1.00
O1239  O     0.18453   0.28974   0.83334   0.00000  Uiso   1.00
O1240  O     0.30260   0.37031   0.89909   0.00000  Uiso   1.00
O1241  O     0.26861   0.12700   0.92008   0.00000  Uiso   1.00
O1242  O     0.20161   0.37234   0.76319   0.00000  Uiso   1.00
O1243  O     0.02843   0.31155   0.76111   0.00000  Uiso   1.00
O1244  O     0.47504   0.16456   0.79822   0.00000  Uiso   1.00
O1245  O     0.47742   0.33103   0.83778   0.00000  Uiso   1.00
O1246  O     0.02213   0.18509   0.88318   0.00000  Uiso   1.00
O1247  O     0.11289   0.32920   0.79721   0.00000  Uiso   1.00
O1248  O     0.38412   0.16523   0.80478   0.00000  Uiso   1.00
O1249  O     0.38627   0.33469   0.83163   0.00000  Uiso   1.00
O1250  O     0.31547   0.21026   0.83333   0.00000  Uiso   1.00
O1251  O     0.11430   0.17969   0.88346   0.00000  Uiso   1.00
O1252  O     0.31547   0.28974   0.83333   0.00000  Uiso   1.00
O1253  O     0.18453   0.21026   0.83334   0.00000  Uiso   1.00
O1254  O     0.25000   0.28973   0.76178   0.00000  Uiso   1.00
O1255  O     0.25000   0.21027   0.90489   0.00000  Uiso   1.00
O1256  O     0.25000   0.28973   0.90489   0.00000  Uiso   1.00
O1257  O     0.25000   0.21027   0.76178   0.00000  Uiso   1.00
O1258  O     0.23399   0.12489   0.74554   0.00000  Uiso   1.00
Zn1259 Zn    0.25000   0.30307   0.83333   0.00000  Uiso   1.00
Zn1260 Zn    0.25000   0.19693   0.83333   0.00000  Uiso   1.00
C1261  C     0.66386   0.25025   0.83427   0.00000  Uiso   1.00
C1262  C     0.72541   0.44745   0.79792   0.00000  Uiso   1.00
C1263  C     0.75000   0.24999   0.73954   0.00000  Uiso   1.00
C1264  C     0.75013   0.25005   0.92712   0.00000  Uiso   1.00
C1265  C     0.75055   0.02614   0.83293   0.00000  Uiso   1.00
C1266  C     0.75075   0.47290   0.83281   0.00000  Uiso   1.00
C1267  C     0.75013   0.25008   0.68846   0.00000  Uiso   1.00
C1268  C     0.75017   0.25016   0.97821   0.00000  Uiso   1.00
C1269  C     0.54875   0.27953   0.79320   0.00000  Uiso   1.00
C1270  C     0.95284   0.20635   0.80862   0.00000  Uiso   1.00
C1271  C     0.95412   0.28993   0.82990   0.00000  Uiso   1.00
C1272  C     0.83621   0.24972   0.83108   0.00000  Uiso   1.00
C1273  C     0.54622   0.21458   0.85283   0.00000  Uiso   1.00
C1274  C     0.59284   0.28652   0.80688   0.00000  Uiso   1.00
C1275  C     0.90697   0.20620   0.81490   0.00000  Uiso   1.00
C1276  C     0.90797   0.29157   0.82782   0.00000  Uiso   1.00
C1277  C     0.59244   0.21312   0.85439   0.00000  Uiso   1.00
C1278  C     0.61580   0.25037   0.83251   0.00000  Uiso   1.00
C1279  C     0.88429   0.24906   0.82495   0.00000  Uiso   1.00
C1280  C     0.52456   0.24599   0.81997   0.00000  Uiso   1.00
C1281  C     0.97638   0.24754   0.81908   0.00000  Uiso   1.00
C1282  C     0.68818   0.12572   0.73384   0.00000  Uiso   1.00
C1283  C     0.74086   0.10165   0.79014   0.00000  Uiso   1.00
C1284  C     0.68211   0.13323   0.67791   0.00000  Uiso   1.00
C1285  C     0.80178   0.38560   0.94950   0.00000  Uiso   1.00
C1286  C     0.84776   0.40203   0.96515   0.00000  Uiso   1.00
C1287  C     0.80049   0.10515   0.95184   0.00000  Uiso   1.00
C1288  C     0.82114   0.14217   0.98568   0.00000  Uiso   1.00
C1289  C     0.71091   0.38497   0.71311   0.00000  Uiso   1.00
C1290  C     0.66866   0.40258   0.68732   0.00000  Uiso   1.00
C1291  C     0.51456   0.28853   0.71706   0.00000  Uiso   1.00
C1292  C     0.99220   0.32415   0.68278   0.00000  Uiso   1.00
C1293  C     0.97811   0.15874   0.74600   0.00000  Uiso   1.00
C1294  C     0.77494   0.39694   0.86819   0.00000  Uiso   1.00
C1295  C     0.99379   0.10885   0.73479   0.00000  Uiso   1.00
C1296  C     0.97662   0.34345   0.88885   0.00000  Uiso   1.00
C1297  C     0.97906   0.39665   0.89367   0.00000  Uiso   1.00
C1298  C     0.51492   0.20709   0.92997   0.00000  Uiso   1.00
C1299  C     0.96867   0.19516   0.94802   0.00000  Uiso   1.00
C1300  C     0.59202   0.36444   0.82694   0.00000  Uiso   1.00
C1301  C     0.62246   0.40602   0.83427   0.00000  Uiso   1.00
C1302  C     0.88808   0.13430   0.84597   0.00000  Uiso   1.00
C1303  C     0.87384   0.08548   0.82947   0.00000  Uiso   1.00
C1304  C     0.89006   0.35882   0.78562   0.00000  Uiso   1.00
C1305  C     0.76014   0.10176   0.87654   0.00000  Uiso   1.00
C1306  C     0.86289   0.40416   0.78735   0.00000  Uiso   1.00
C1307  C     0.61181   0.13552   0.85920   0.00000  Uiso   1.00
C1308  C     0.63692   0.09892   0.89001   0.00000  Uiso   1.00
C1309  C     0.72688   0.39769   0.79713   0.00000  Uiso   1.00
C1310  C     0.74266   0.05208   0.78921   0.00000  Uiso   1.00
C1311  C     0.77664   0.44680   0.86723   0.00000  Uiso   1.00
C1312  C     0.75823   0.05176   0.87691   0.00000  Uiso   1.00
H1313  H     0.73803   0.03435   0.75372   0.00000  Uiso   1.00
H1314  H     0.79328   0.35499   0.97316   0.00000  Uiso   1.00
H1315  H     0.77653   0.41344   0.95783   0.00000  Uiso   1.00
H1316  H     0.85821   0.43191   0.94153   0.00000  Uiso   1.00
H1317  H     0.84722   0.41358   0.67144   0.00000  Uiso   1.00
H1318  H     0.87224   0.37277   0.96117   0.00000  Uiso   1.00
H1319  H     0.82770   0.08782   0.93046   0.00000  Uiso   1.00
H1320  H     0.78413   0.07893   0.97610   0.00000  Uiso   1.00
H1321  H     0.84685   0.12560   0.67682   0.00000  Uiso   1.00
H1322  H     0.83678   0.16992   0.96284   0.00000  Uiso   1.00
H1323  H     0.79527   0.15848   0.67625   0.00000  Uiso   1.00
H1324  H     0.79896   0.46488   0.89238   0.00000  Uiso   1.00
H1325  H     0.72240   0.35295   0.69303   0.00000  Uiso   1.00
H1326  H     0.73758   0.41151   0.70874   0.00000  Uiso   1.00
H1327  H     0.65652   0.43536   0.70546   0.00000  Uiso   1.00
H1328  H     0.67545   0.40998   0.98068   0.00000  Uiso   1.00
H1329  H     0.64252   0.37546   0.68953   0.00000  Uiso   1.00
H1330  H     0.98954   0.26140   0.72496   0.00000  Uiso   1.00
H1331  H     0.54330   0.27221   0.69733   0.00000  Uiso   1.00
H1332  H     0.51708   0.34883   0.66786   0.00000  Uiso   1.00
H1333  H     0.97582   0.30517   0.98498   0.00000  Uiso   1.00
H1334  H     0.96640   0.34433   0.70334   0.00000  Uiso   1.00
H1335  H     0.76213   0.03285   0.91170   0.00000  Uiso   1.00
H1336  H     0.50307   0.18314   0.73073   0.00000  Uiso   1.00
H1337  H     0.94546   0.16445   0.72686   0.00000  Uiso   1.00
H1338  H     0.99701   0.10396   0.69375   0.00000  Uiso   1.00
H1339  H     0.52659   0.10215   0.75285   0.00000  Uiso   1.00
H1340  H     0.96950   0.08324   0.74919   0.00000  Uiso   1.00
H1341  H     0.50624   0.32765   0.90753   0.00000  Uiso   1.00
H1342  H     0.94607   0.33200   0.90850   0.00000  Uiso   1.00
H1343  H     0.97904   0.40682   0.93379   0.00000  Uiso   1.00
H1344  H     0.94990   0.41330   0.87482   0.00000  Uiso   1.00
H1345  H     0.50989   0.40962   0.87627   0.00000  Uiso   1.00
H1346  H     0.70400   0.46581   0.77164   0.00000  Uiso   1.00
H1347  H     0.51731   0.24622   0.92907   0.00000  Uiso   1.00
H1348  H     0.53980   0.19352   0.95744   0.00000  Uiso   1.00
H1349  H     0.96546   0.15651   0.95222   0.00000  Uiso   1.00
H1350  H     0.96247   0.21238   0.98458   0.00000  Uiso   1.00
H1351  H     0.94333   0.20812   0.92082   0.00000  Uiso   1.00
H1352  H     0.58334   0.35146   0.86501   0.00000  Uiso   1.00
H1353  H     0.56138   0.37760   0.80798   0.00000  Uiso   1.00
H1354  H     0.63123   0.42108   0.79747   0.00000  Uiso   1.00
H1355  H     0.60527   0.43367   0.85649   0.00000  Uiso   1.00
H1356  H     0.65277   0.39470   0.85502   0.00000  Uiso   1.00
H1357  H     0.67200   0.15558   0.75363   0.00000  Uiso   1.00
H1358  H     0.86620   0.14653   0.87670   0.00000  Uiso   1.00
H1359  H     0.92263   0.13129   0.86086   0.00000  Uiso   1.00
H1360  H     0.83933   0.08676   0.81472   0.00000  Uiso   1.00
H1361  H     0.89611   0.07225   0.79959   0.00000  Uiso   1.00
H1362  H     0.87562   0.06082   0.86158   0.00000  Uiso   1.00
H1363  H     0.87768   0.33709   0.75375   0.00000  Uiso   1.00
H1364  H     0.92503   0.36858   0.77855   0.00000  Uiso   1.00
H1365  H     0.86898   0.42303   0.82314   0.00000  Uiso   1.00
H1366  H     0.87236   0.42743   0.75603   0.00000  Uiso   1.00
H1367  H     0.82714   0.39614   0.78344   0.00000  Uiso   1.00
H1368  H     0.67100   0.09248   0.74377   0.00000  Uiso   1.00
H1369  H     0.62710   0.13703   0.82158   0.00000  Uiso   1.00
H1370  H     0.57694   0.12362   0.85498   0.00000  Uiso   1.00
H1371  H     0.67101   0.11122   0.89801   0.00000  Uiso   1.00
H1372  H     0.61958   0.09299   0.92587   0.00000  Uiso   1.00
H1373  H     0.63883   0.06519   0.86908   0.00000  Uiso   1.00
H1374  H     0.69663   0.10299   0.99046   0.00000  Uiso   1.00
H1375  H     0.64621   0.13629   0.66868   0.00000  Uiso   1.00
H1376  H     0.69871   0.16595   0.99949   0.00000  Uiso   1.00
N1377  N     0.75000   0.12623   0.83333   0.00000  Uiso   1.00
N1378  N     0.75000   0.37376   0.83333   0.00000  Uiso   1.00
O1379  O     0.68453   0.28974   0.83334   0.00000  Uiso   1.00
O1380  O     0.80260   0.37031   0.89909   0.00000  Uiso   1.00
O1381  O     0.76861   0.12700   0.92008   0.00000  Uiso   1.00
O1382  O     0.70161   0.37234   0.76319   0.00000  Uiso   1.00
O1383  O     0.52843   0.31155   0.76111   0.00000  Uiso   1.00
O1384  O     0.97504   0.16456   0.79822   0.00000  Uiso   1.00
O1385  O     0.97742   0.33103   0.83778   0.00000  Uiso   1.00
O1386  O     0.52213   0.18509   0.88318   0.00000  Uiso   1.00
O1387  O     0.61289   0.32920   0.79721   0.00000  Uiso   1.00
O1388  O     0.88412   0.16523   0.80478   0.00000  Uiso   1.00
O1389  O     0.88627   0.33469   0.83163   0.00000  Uiso   1.00
O1390  O     0.81547   0.21026   0.83333   0.00000  Uiso   1.00
O1391  O     0.61430   0.17969   0.88346   0.00000  Uiso   1.00
O1392  O     0.81547   0.28974   0.83333   0.00000  Uiso   1.00
O1393  O     0.68453   0.21026   0.83334   0.00000  Uiso   1.00
O1394  O     0.75000   0.28973   0.76178   0.00000  Uiso   1.00
O1395  O     0.75000   0.21027   0.90489   0.00000  Uiso   1.00
O1396  O     0.75000   0.28973   0.90489   0.00000  Uiso   1.00
O1397  O     0.75000   0.21027   0.76178   0.00000  Uiso   1.00
O1398  O     0.73399   0.12489   0.74554   0.00000  Uiso   1.00
Zn1399 Zn    0.75000   0.30307   0.83333   0.00000  Uiso   1.00
Zn1400 Zn    0.75000   0.19693   0.83333   0.00000  Uiso   1.00
C1401  C     0.16386   0.75025   0.83427   0.00000  Uiso   1.00
C1402  C     0.22541   0.94745   0.79792   0.00000  Uiso   1.00
C1403  C     0.25000   0.74999   0.73954   0.00000  Uiso   1.00
C1404  C     0.25013   0.75005   0.92712   0.00000  Uiso   1.00
C1405  C     0.25055   0.52614   0.83293   0.00000  Uiso   1.00
C1406  C     0.25075   0.97290   0.83281   0.00000  Uiso   1.00
C1407  C     0.25013   0.75008   0.68846   0.00000  Uiso   1.00
C1408  C     0.25017   0.75016   0.97821   0.00000  Uiso   1.00
C1409  C     0.04875   0.77953   0.79320   0.00000  Uiso   1.00
C1410  C     0.45284   0.70635   0.80862   0.00000  Uiso   1.00
C1411  C     0.45412   0.78993   0.82990   0.00000  Uiso   1.00
C1412  C     0.33621   0.74972   0.83108   0.00000  Uiso   1.00
C1413  C     0.04622   0.71458   0.85283   0.00000  Uiso   1.00
C1414  C     0.09284   0.78652   0.80688   0.00000  Uiso   1.00
C1415  C     0.40697   0.70620   0.81490   0.00000  Uiso   1.00
C1416  C     0.40797   0.79157   0.82782   0.00000  Uiso   1.00
C1417  C     0.09244   0.71312   0.85439   0.00000  Uiso   1.00
C1418  C     0.11580   0.75037   0.83251   0.00000  Uiso   1.00
C1419  C     0.38429   0.74906   0.82495   0.00000  Uiso   1.00
C1420  C     0.02456   0.74599   0.81997   0.00000  Uiso   1.00
C1421  C     0.47638   0.74754   0.81908   0.00000  Uiso   1.00
C1422  C     0.18818   0.62572   0.73384   0.00000  Uiso   1.00
C1423  C     0.24086   0.60165   0.79014   0.00000  Uiso   1.00
C1424  C     0.18211   0.63323   0.67791   0.00000  Uiso   1.00
C1425  C     0.30178   0.88560   0.94950   0.00000  Uiso   1.00
C1426  C     0.34776   0.90203   0.96515   0.00000  Uiso   1.00
C1427  C     0.30049   0.60515   0.95184   0.00000  Uiso   1.00
C1428  C     0.32114   0.64217   0.98568   0.00000  Uiso   1.00
C1429  C     0.21091   0.88497   0.71311   0.00000  Uiso   1.00
C1430  C     0.16866   0.90258   0.68732   0.00000  Uiso   1.00
C1431  C     0.01456   0.78853   0.71706   0.00000  Uiso   1.00
C1432  C     0.49220   0.82415   0.68278   0.00000  Uiso   1.00
C1433  C     0.47811   0.65874   0.74600   0.00000  Uiso   1.00
C1434  C     0.27494   0.89694   0.86819   0.00000  Uiso   1.00
C1435  C     0.49379   0.60885   0.73479   0.00000  Uiso   1.00
C1436  C     0.47662   0.84345   0.88885   0.00000  Uiso   1.00
C1437  C     0.47906   0.89665   0.89367   0.00000  Uiso   1.00
C1438  C     0.01492   0.70709   0.92997   0.00000  Uiso   1.00
C1439  C     0.46867   0.69516   0.94802   0.00000  Uiso   1.00
C1440  C     0.09202   0.86444   0.82694   0.00000  Uiso   1.00
C1441  C     0.12246   0.90602   0.83427   0.00000  Uiso   1.00
C1442  C     0.38808   0.63430   0.84597   0.00000  Uiso   1.00
C1443  C     0.37384   0.58548   0.82947   0.00000  Uiso   1.00
C1444  C     0.39006   0.85882   0.78562   0.00000  Uiso   1.00
C1445  C     0.26014   0.60176   0.87654   0.00000  Uiso   1.00
C1446  C     0.36289   0.90416   0.78735   0.00000  Uiso   1.00
C1447  C     0.11181   0.63552   0.85920   0.00000  Uiso   1.00
C1448  C     0.13692   0.59892   0.89001   0.00000  Uiso   1.00
C1449  C     0.22688   0.89769   0.79713   0.00000  Uiso   1.00
C1450  C     0.24266   0.55208   0.78921   0.00000  Uiso   1.00
C1451  C     0.27664   0.94680   0.86723   0.00000  Uiso   1.00
C1452  C     0.25823   0.55176   0.87691   0.00000  Uiso   1.00
H1453  H     0.23803   0.53435   0.75372   0.00000  Uiso   1.00
H1454  H     0.29328   0.85499   0.97316   0.00000  Uiso   1.00
H1455  H     0.27653   0.91344   0.95783   0.00000  Uiso   1.00
H1456  H     0.35821   0.93191   0.94153   0.00000  Uiso   1.00
H1457  H     0.34722   0.91358   0.67144   0.00000  Uiso   1.00
H1458  H     0.37224   0.87277   0.96117   0.00000  Uiso   1.00
H1459  H     0.32770   0.58782   0.93046   0.00000  Uiso   1.00
H1460  H     0.28413   0.57893   0.97610   0.00000  Uiso   1.00
H1461  H     0.34685   0.62560   0.67682   0.00000  Uiso   1.00
H1462  H     0.33678   0.66992   0.96284   0.00000  Uiso   1.00
H1463  H     0.29527   0.65848   0.67625   0.00000  Uiso   1.00
H1464  H     0.29896   0.96488   0.89238   0.00000  Uiso   1.00
H1465  H     0.22240   0.85295   0.69303   0.00000  Uiso   1.00
H1466  H     0.23758   0.91151   0.70874   0.00000  Uiso   1.00
H1467  H     0.15652   0.93536   0.70546   0.00000  Uiso   1.00
H1468  H     0.17545   0.90998   0.98068   0.00000  Uiso   1.00
H1469  H     0.14252   0.87546   0.68953   0.00000  Uiso   1.00
H1470  H     0.48954   0.76140   0.72496   0.00000  Uiso   1.00
H1471  H     0.04330   0.77221   0.69733   0.00000  Uiso   1.00
H1472  H     0.01708   0.84883   0.66786   0.00000  Uiso   1.00
H1473  H     0.47582   0.80517   0.98498   0.00000  Uiso   1.00
H1474  H     0.46640   0.84433   0.70334   0.00000  Uiso   1.00
H1475  H     0.26213   0.53285   0.91170   0.00000  Uiso   1.00
H1476  H     0.00307   0.68314   0.73073   0.00000  Uiso   1.00
H1477  H     0.44546   0.66445   0.72686   0.00000  Uiso   1.00
H1478  H     0.49701   0.60396   0.69375   0.00000  Uiso   1.00
H1479  H     0.02659   0.60215   0.75285   0.00000  Uiso   1.00
H1480  H     0.46950   0.58324   0.74919   0.00000  Uiso   1.00
H1481  H     0.00624   0.82765   0.90753   0.00000  Uiso   1.00
H1482  H     0.44607   0.83200   0.90850   0.00000  Uiso   1.00
H1483  H     0.47904   0.90682   0.93379   0.00000  Uiso   1.00
H1484  H     0.44990   0.91330   0.87482   0.00000  Uiso   1.00
H1485  H     0.00989   0.90962   0.87627   0.00000  Uiso   1.00
H1486  H     0.20400   0.96581   0.77164   0.00000  Uiso   1.00
H1487  H     0.01731   0.74622   0.92907   0.00000  Uiso   1.00
H1488  H     0.03980   0.69352   0.95744   0.00000  Uiso   1.00
H1489  H     0.46546   0.65651   0.95222   0.00000  Uiso   1.00
H1490  H     0.46247   0.71238   0.98458   0.00000  Uiso   1.00
H1491  H     0.44333   0.70812   0.92082   0.00000  Uiso   1.00
H1492  H     0.08334   0.85146   0.86501   0.00000  Uiso   1.00
H1493  H     0.06138   0.87760   0.80798   0.00000  Uiso   1.00
H1494  H     0.13123   0.92108   0.79747   0.00000  Uiso   1.00
H1495  H     0.10527   0.93367   0.85649   0.00000  Uiso   1.00
H1496  H     0.15277   0.89470   0.85502   0.00000  Uiso   1.00
H1497  H     0.17200   0.65558   0.75363   0.00000  Uiso   1.00
H1498  H     0.36620   0.64653   0.87670   0.00000  Uiso   1.00
H1499  H     0.42263   0.63129   0.86086   0.00000  Uiso   1.00
H1500  H     0.33933   0.58676   0.81472   0.00000  Uiso   1.00
H1501  H     0.39611   0.57225   0.79959   0.00000  Uiso   1.00
H1502  H     0.37562   0.56082   0.86158   0.00000  Uiso   1.00
H1503  H     0.37768   0.83709   0.75375   0.00000  Uiso   1.00
H1504  H     0.42503   0.86858   0.77855   0.00000  Uiso   1.00
H1505  H     0.36898   0.92303   0.82314   0.00000  Uiso   1.00
H1506  H     0.37236   0.92743   0.75603   0.00000  Uiso   1.00
H1507  H     0.32714   0.89614   0.78344   0.00000  Uiso   1.00
H1508  H     0.17100   0.59248   0.74377   0.00000  Uiso   1.00
H1509  H     0.12710   0.63703   0.82158   0.00000  Uiso   1.00
H1510  H     0.07694   0.62362   0.85498   0.00000  Uiso   1.00
H1511  H     0.17101   0.61122   0.89801   0.00000  Uiso   1.00
H1512  H     0.11958   0.59299   0.92587   0.00000  Uiso   1.00
H1513  H     0.13883   0.56519   0.86908   0.00000  Uiso   1.00
H1514  H     0.19663   0.60299   0.99046   0.00000  Uiso   1.00
H1515  H     0.14621   0.63629   0.66868   0.00000  Uiso   1.00
H1516  H     0.19871   0.66595   0.99949   0.00000  Uiso   1.00
N1517  N     0.25000   0.62623   0.83333   0.00000  Uiso   1.00
N1518  N     0.25000   0.87376   0.83333   0.00000  Uiso   1.00
O1519  O     0.18453   0.78974   0.83334   0.00000  Uiso   1.00
O1520  O     0.30260   0.87031   0.89909   0.00000  Uiso   1.00
O1521  O     0.26861   0.62700   0.92008   0.00000  Uiso   1.00
O1522  O     0.20161   0.87234   0.76319   0.00000  Uiso   1.00
O1523  O     0.02843   0.81155   0.76111   0.00000  Uiso   1.00
O1524  O     0.47504   0.66456   0.79822   0.00000  Uiso   1.00
O1525  O     0.47742   0.83103   0.83778   0.00000  Uiso   1.00
O1526  O     0.02213   0.68509   0.88318   0.00000  Uiso   1.00
O1527  O     0.11289   0.82920   0.79721   0.00000  Uiso   1.00
O1528  O     0.38412   0.66523   0.80478   0.00000  Uiso   1.00
O1529  O     0.38627   0.83469   0.83163   0.00000  Uiso   1.00
O1530  O     0.31547   0.71026   0.83333   0.00000  Uiso   1.00
O1531  O     0.11430   0.67969   0.88346   0.00000  Uiso   1.00
O1532  O     0.31547   0.78974   0.83333   0.00000  Uiso   1.00
O1533  O     0.18453   0.71026   0.83334   0.00000  Uiso   1.00
O1534  O     0.25000   0.78973   0.76178   0.00000  Uiso   1.00
O1535  O     0.25000   0.71027   0.90489   0.00000  Uiso   1.00
O1536  O     0.25000   0.78973   0.90489   0.00000  Uiso   1.00
O1537  O     0.25000   0.71027   0.76178   0.00000  Uiso   1.00
O1538  O     0.23399   0.62489   0.74554   0.00000  Uiso   1.00
Zn1539 Zn    0.25000   0.80307   0.83333   0.00000  Uiso   1.00
Zn1540 Zn    0.25000   0.69693   0.83333   0.00000  Uiso   1.00
C1541  C     0.66386   0.75025   0.83427   0.00000  Uiso   1.00
C1542  C     0.72541   0.94745   0.79792   0.00000  Uiso   1.00
C1543  C     0.75000   0.74999   0.73954   0.00000  Uiso   1.00
C1544  C     0.75013   0.75005   0.92712   0.00000  Uiso   1.00
C1545  C     0.75055   0.52614   0.83293   0.00000  Uiso   1.00
C1546  C     0.75075   0.97290   0.83281   0.00000  Uiso   1.00
C1547  C     0.75013   0.75008   0.68846   0.00000  Uiso   1.00
C1548  C     0.75017   0.75016   0.97821   0.00000  Uiso   1.00
C1549  C     0.54875   0.77953   0.79320   0.00000  Uiso   1.00
C1550  C     0.95284   0.70635   0.80862   0.00000  Uiso   1.00
C1551  C     0.95412   0.78993   0.82990   0.00000  Uiso   1.00
C1552  C     0.83621   0.74972   0.83108   0.00000  Uiso   1.00
C1553  C     0.54622   0.71458   0.85283   0.00000  Uiso   1.00
C1554  C     0.59284   0.78652   0.80688   0.00000  Uiso   1.00
C1555  C     0.90697   0.70620   0.81490   0.00000  Uiso   1.00
C1556  C     0.90797   0.79157   0.82782   0.00000  Uiso   1.00
C1557  C     0.59244   0.71312   0.85439   0.00000  Uiso   1.00
C1558  C     0.61580   0.75037   0.83251   0.00000  Uiso   1.00
C1559  C     0.88429   0.74906   0.82495   0.00000  Uiso   1.00
C1560  C     0.52456   0.74599   0.81997   0.00000  Uiso   1.00
C1561  C     0.97638   0.74754   0.81908   0.00000  Uiso   1.00
C1562  C     0.68818   0.62572   0.73384   0.00000  Uiso   1.00
C1563  C     0.74086   0.60165   0.79014   0.00000  Uiso   1.00
C1564  C     0.68211   0.63323   0.67791   0.00000  Uiso   1.00
C1565  C     0.80178   0.88560   0.94950   0.00000  Uiso   1.00
C1566  C     0.84776   0.90203   0.96515   0.00000  Uiso   1.00
C1567  C     0.80049   0.60515   0.95184   0.00000  Uiso   1.00
C1568  C     0.82114   0.64217   0.98568   0.00000  Uiso   1.00
C1569  C     0.71091   0.88497   0.71311   0.00000  Uiso   1.00
C1570  C     0.66866   0.90258   0.68732   0.00000  Uiso   1.00
C1571  C     0.51456   0.78853   0.71706   0.00000  Uiso   1.00
C1572  C     0.99220   0.82415   0.68278   0.00000  Uiso   1.00
C1573  C     0.97811   0.65874   0.74600   0.00000  Uiso   1.00
C1574  C     0.77494   0.89694   0.86819   0.00000  Uiso   1.00
C1575  C     0.99379   0.60885   0.73479   0.00000  Uiso   1.00
C1576  C     0.97662   0.84345   0.88885   0.00000  Uiso   1.00
C1577  C     0.97906   0.89665   0.89367   0.00000  Uiso   1.00
C1578  C     0.51492   0.70709   0.92997   0.00000  Uiso   1.00
C1579  C     0.96867   0.69516   0.94802   0.00000  Uiso   1.00
C1580  C     0.59202   0.86444   0.82694   0.00000  Uiso   1.00
C1581  C     0.62246   0.90602   0.83427   0.00000  Uiso   1.00
C1582  C     0.88808   0.63430   0.84597   0.00000  Uiso   1.00
C1583  C     0.87384   0.58548   0.82947   0.00000  Uiso   1.00
C1584  C     0.89006   0.85882   0.78562   0.00000  Uiso   1.00
C1585  C     0.76014   0.60176   0.87654   0.00000  Uiso   1.00
C1586  C     0.86289   0.90416   0.78735   0.00000  Uiso   1.00
C1587  C     0.61181   0.63552   0.85920   0.00000  Uiso   1.00
C1588  C     0.63692   0.59892   0.89001   0.00000  Uiso   1.00
C1589  C     0.72688   0.89769   0.79713   0.00000  Uiso   1.00
C1590  C     0.74266   0.55208   0.78921   0.00000  Uiso   1.00
C1591  C     0.77664   0.94680   0.86723   0.00000  Uiso   1.00
C1592  C     0.75823   0.55176   0.87691   0.00000  Uiso   1.00
H1593  H     0.73803   0.53435   0.75372   0.00000  Uiso   1.00
H1594  H     0.79328   0.85499   0.97316   0.00000  Uiso   1.00
H1595  H     0.77653   0.91344   0.95783   0.00000  Uiso   1.00
H1596  H     0.85821   0.93191   0.94153   0.00000  Uiso   1.00
H1597  H     0.84722   0.91358   0.67144   0.00000  Uiso   1.00
H1598  H     0.87224   0.87277   0.96117   0.00000  Uiso   1.00
H1599  H     0.82770   0.58782   0.93046   0.00000  Uiso   1.00
H1600  H     0.78413   0.57893   0.97610   0.00000  Uiso   1.00
H1601  H     0.84685   0.62560   0.67682   0.00000  Uiso   1.00
H1602  H     0.83678   0.66992   0.96284   0.00000  Uiso   1.00
H1603  H     0.79527   0.65848   0.67625   0.00000  Uiso   1.00
H1604  H     0.79896   0.96488   0.89238   0.00000  Uiso   1.00
H1605  H     0.72240   0.85295   0.69303   0.00000  Uiso   1.00
H1606  H     0.73758   0.91151   0.70874   0.00000  Uiso   1.00
H1607  H     0.65652   0.93536   0.70546   0.00000  Uiso   1.00
H1608  H     0.67545   0.90998   0.98068   0.00000  Uiso   1.00
H1609  H     0.64252   0.87546   0.68953   0.00000  Uiso   1.00
H1610  H     0.98954   0.76140   0.72496   0.00000  Uiso   1.00
H1611  H     0.54330   0.77221   0.69733   0.00000  Uiso   1.00
H1612  H     0.51708   0.84883   0.66786   0.00000  Uiso   1.00
H1613  H     0.97582   0.80517   0.98498   0.00000  Uiso   1.00
H1614  H     0.96640   0.84433   0.70334   0.00000  Uiso   1.00
H1615  H     0.76213   0.53285   0.91170   0.00000  Uiso   1.00
H1616  H     0.50307   0.68314   0.73073   0.00000  Uiso   1.00
H1617  H     0.94546   0.66445   0.72686   0.00000  Uiso   1.00
H1618  H     0.99701   0.60396   0.69375   0.00000  Uiso   1.00
H1619  H     0.52659   0.60215   0.75285   0.00000  Uiso   1.00
H1620  H     0.96950   0.58324   0.74919   0.00000  Uiso   1.00
H1621  H     0.50624   0.82765   0.90753   0.00000  Uiso   1.00
H1622  H     0.94607   0.83200   0.90850   0.00000  Uiso   1.00
H1623  H     0.97904   0.90682   0.93379   0.00000  Uiso   1.00
H1624  H     0.94990   0.91330   0.87482   0.00000  Uiso   1.00
H1625  H     0.50989   0.90962   0.87627   0.00000  Uiso   1.00
H1626  H     0.70400   0.96581   0.77164   0.00000  Uiso   1.00
H1627  H     0.51731   0.74622   0.92907   0.00000  Uiso   1.00
H1628  H     0.53980   0.69352   0.95744   0.00000  Uiso   1.00
H1629  H     0.96546   0.65651   0.95222   0.00000  Uiso   1.00
H1630  H     0.96247   0.71238   0.98458   0.00000  Uiso   1.00
H1631  H     0.94333   0.70812   0.92082   0.00000  Uiso   1.00
H1632  H     0.58334   0.85146   0.86501   0.00000  Uiso   1.00
H1633  H     0.56138   0.87760   0.80798   0.00000  Uiso   1.00
H1634  H     0.63123   0.92108   0.79747   0.00000  Uiso   1.00
H1635  H     0.60527   0.93367   0.85649   0.00000  Uiso   1.00
H1636  H     0.65277   0.89470   0.85502   0.00000  Uiso   1.00
H1637  H     0.67200   0.65558   0.75363   0.00000  Uiso   1.00
H1638  H     0.86620   0.64653   0.87670   0.00000  Uiso   1.00
H1639  H     0.92263   0.63129   0.86086   0.00000  Uiso   1.00
H1640  H     0.83933   0.58676   0.81472   0.00000  Uiso   1.00
H1641  H     0.89611   0.57225   0.79959   0.00000  Uiso   1.00
H1642  H     0.87562   0.56082   0.86158   0.00000  Uiso   1.00
H1643  H     0.87768   0.83709   0.75375   0.00000  Uiso   1.00
H1644  H     0.92503   0.86858   0.77855   0.00000  Uiso   1.00
H1645  H     0.86898   0.92303   0.82314   0.00000  Uiso   1.00
H1646  H     0.87236   0.92743   0.75603   0.00000  Uiso   1.00
H1647  H     0.82714   0.89614   0.78344   0.00000  Uiso   1.00
H1648  H     0.67100   0.59248   0.74377   0.00000  Uiso   1.00
H1649  H     0.62710   0.63703   0.82158   0.00000  Uiso   1.00
H1650  H     0.57694   0.62362   0.85498   0.00000  Uiso   1.00
H1651  H     0.67101   0.61122   0.89801   0.00000  Uiso   1.00
H1652  H     0.61958   0.59299   0.92587   0.00000  Uiso   1.00
H1653  H     0.63883   0.56519   0.86908   0.00000  Uiso   1.00
H1654  H     0.69663   0.60299   0.99046   0.00000  Uiso   1.00
H1655  H     0.64621   0.63629   0.66868   0.00000  Uiso   1.00
H1656  H     0.69871   0.66595   0.99949   0.00000  Uiso   1.00
N1657  N     0.75000   0.62623   0.83333   0.00000  Uiso   1.00
N1658  N     0.75000   0.87376   0.83333   0.00000  Uiso   1.00
O1659  O     0.68453   0.78974   0.83334   0.00000  Uiso   1.00
O1660  O     0.80260   0.87031   0.89909   0.00000  Uiso   1.00
O1661  O     0.76861   0.62700   0.92008   0.00000  Uiso   1.00
O1662  O     0.70161   0.87234   0.76319   0.00000  Uiso   1.00
O1663  O     0.52843   0.81155   0.76111   0.00000  Uiso   1.00
O1664  O     0.97504   0.66456   0.79822   0.00000  Uiso   1.00
O1665  O     0.97742   0.83103   0.83778   0.00000  Uiso   1.00
O1666  O     0.52213   0.68509   0.88318   0.00000  Uiso   1.00
O1667  O     0.61289   0.82920   0.79721   0.00000  Uiso   1.00
O1668  O     0.88412   0.66523   0.80478   0.00000  Uiso   1.00
O1669  O     0.88627   0.83469   0.83163   0.00000  Uiso   1.00
O1670  O     0.81547   0.71026   0.83333   0.00000  Uiso   1.00
O1671  O     0.61430   0.67969   0.88346   0.00000  Uiso   1.00
O1672  O     0.81547   0.78974   0.83333   0.00000  Uiso   1.00
O1673  O     0.68453   0.71026   0.83334   0.00000  Uiso   1.00
O1674  O     0.75000   0.78973   0.76178   0.00000  Uiso   1.00
O1675  O     0.75000   0.71027   0.90489   0.00000  Uiso   1.00
O1676  O     0.75000   0.78973   0.90489   0.00000  Uiso   1.00
O1677  O     0.75000   0.71027   0.76178   0.00000  Uiso   1.00
O1678  O     0.73399   0.62489   0.74554   0.00000  Uiso   1.00
Zn1679 Zn    0.75000   0.80307   0.83333   0.00000  Uiso   1.00
Zn1680 Zn    0.75000   0.69693   0.83333   0.00000  Uiso   1.00
loop_
_geom_bond_atom_site_label_1
_geom_bond_atom_site_label_2
_geom_bond_distance
_geom_bond_site_symmetry_2
_ccdc_geom_bond_type
C1     O119    1.291   .     A
C1     O133    1.290   .     A
C1     C18     1.449   .     S
C2     C6      1.405   .     A
C2     C49     1.415   .     A
C2     H86     1.081   .     S
C3     C7      1.366   .     S
C3     O137    1.277   .     A
C3     O134    1.276   .     A
C4     C8      1.366   .     S
C4     O136    1.276   .     A
C4     O135    1.277   .     A
C5     C52     1.401   .     A
C5     C50     1.400   .     A
C5     C286    1.514   1_545 S
C6     C51     1.408   .     A
C6     C285    1.514   .     S
C7     C1128   1.165   1_554 S
C8     C567    1.165   .     S
C9     C20     1.408   .     A
C9     O123    1.386   .     S
C9     C14     1.391   .     A
C10    C15     1.394   .     A
C10    C21     1.403   .     A
C10    O124    1.386   .     S
C11    O125    1.385   .     S
C11    C21     1.403   .     A
C11    C16     1.392   .     A
C12    O130    1.293   .     A
C12    O132    1.293   .     A
C12    C19     1.460   .     S
C13    O126    1.385   .     S
C13    C20     1.405   .     A
C13    C17     1.393   .     A
C14    C18     1.408   .     A
C14    O127    1.388   .     S
C15    C19     1.417   .     A
C15    O128    1.385   .     S
C16    O129    1.387   .     S
C16    C19     1.412   .     A
C17    O131    1.386   .     S
C17    C18     1.410   .     A
C20    C161    1.452   1_455 S
C21    C160    1.452   .     S
C22    H97     1.110   .     S
C22    C24     1.520   .     S
C22    O138    1.413   .     S
C22    H108    1.117   .     S
C23    O138    1.377   .     S
C23    C50     1.410   .     A
C23    N117    1.376   .     A
C24    H115    1.110   .     S
C24    H1234   1.111   1_554 S
C24    H1236   1.109   1_554 S
C25    H54     1.110   .     S
C25    O120    1.416   .     S
C25    H55     1.115   .     S
C25    C26     1.523   .     S
C26    H58     1.111   .     S
C26    H56     1.110   .     S
C26    H617    1.109   .     S
C27    H60     1.112   .     S
C27    H59     1.113   .     S
C27    C28     1.521   .     S
C27    O121    1.415   .     S
C28    H62     1.111   .     S
C28    H621    1.111   .     S
C28    H623    1.109   .     S
C29    O122    1.418   .     S
C29    C30     1.522   .     S
C29    H65     1.110   .     S
C29    H66     1.116   .     S
C30    H67     1.110   .     S
C30    H69     1.111   .     S
C30    H1188   1.111   1_554 S
C31    H71     1.114   .     S
C31    O123    1.409   .     S
C31    C172    1.515   1_455 S
C31    H210    1.107   1_455 S
C32    H74     1.110   .     S
C32    C171    1.515   .     S
C32    H212    1.110   .     S
C32    H1193   1.107   1_554 S
C33    O124    1.409   .     S
C33    H77     1.115   .     S
C33    C35     1.520   .     S
C33    H216    1.110   .     S
C34    N118    1.365   .     A
C34    C51     1.420   .     A
C34    O120    1.388   .     S
C35    H80     1.110   .     S
C35    H78     1.110   .     S
C35    H219    1.111   .     S
C36    O125    1.410   .     S
C36    C37     1.521   .     S
C36    H82     1.116   .     S
C36    H221    1.110   .     S
C37    H84     1.111   .     S
C37    H83     1.110   .     S
C37    H225    1.110   .     S
C38    O126    1.415   .     S
C38    H87     1.116   .     S
C38    H88     1.111   .     S
C38    C179    1.521   1_455 S
C39    H90     1.109   .     S
C39    H91     1.110   .     S
C39    H89     1.110   .     S
C39    C178    1.521   .     S
C40    H93     1.111   .     S
C40    O127    1.422   .     S
C40    H92     1.118   .     S
C40    C41     1.516   .     S
C41    H96     1.109   .     S
C41    H94     1.109   .     S
C41    H95     1.111   .     S
C42    H98     1.111   .     S
C42    O128    1.414   .     S
C42    C43     1.521   .     S
C42    H99     1.114   .     S
C43    H100    1.109   .     S
C43    H101    1.110   .     S
C43    H102    1.110   .     S
C44    H104    1.111   .     S
C44    H103    1.116   .     S
C44    C46     1.520   .     S
C44    O129    1.416   .     S
C45    C52     1.424   .     A
C45    O121    1.390   .     S
C45    N117    1.380   .     A
C46    H105    1.111   .     S
C46    H107    1.108   .     S
C46    H106    1.110   .     S
C47    H109    1.111   .     S
C47    O131    1.415   .     S
C47    C48     1.519   .     S
C47    H110    1.112   .     S
C48    H112    1.110   .     S
C48    H111    1.108   .     S
C48    H113    1.111   .     S
C49    O122    1.386   .     S
C49    N118    1.365   .     A
C50    H53     1.082   .     S
C51    H64     1.080   .     S
C52    H75     1.080   .     S
H57    C1146   1.109   1_554 S
H61    C1148   1.111   1_554 S
H63    C1148   1.109   1_554 S
H68    C590    1.111   .     S
H70    C171    1.107   .     S
H72    C172    1.110   1_455 S
H73    C592    1.107   .     S
H76    C173    1.110   1_455 S
H79    C175    1.111   1_455 S
H81    C176    1.110   1_455 S
H85    C177    1.110   1_455 S
H114   C584    1.111   .     S
H116   C584    1.109   .     S
N117   Zn140   2.010   .     S
N118   Zn139   2.010   .     S
O119   Zn139   2.014   .     S
O130   Zn140   2.014   .     S
O132   Zn139   2.005   .     S
O133   Zn140   2.005   .     S
O134   Zn139   1.949   .     S
O135   Zn140   1.949   .     S
O136   Zn139   1.951   .     S
O137   Zn140   1.951   .     S
C141   O259    1.291   .     A
C141   O273    1.290   .     A
C141   C158    1.449   .     S
C142   C146    1.405   .     A
C142   C189    1.415   .     A
C142   H226    1.081   .     S
C143   C147    1.366   .     S
C143   O277    1.277   .     A
C143   O274    1.276   .     A
C144   C148    1.366   .     S
C144   O276    1.276   .     A
C144   O275    1.277   .     A
C145   C192    1.401   .     A
C145   C190    1.400   .     A
C145   C426    1.514   1_545 S
C146   C191    1.408   .     A
C146   C425    1.514   .     S
C147   C1268   1.165   1_554 S
C148   C707    1.165   .     S
C149   C160    1.408   .     A
C149   O263    1.386   .     S
C149   C154    1.391   .     A
C150   C155    1.394   .     A
C150   C161    1.403   .     A
C150   O264    1.386   .     S
C151   O265    1.385   .     S
C151   C161    1.403   .     A
C151   C156    1.392   .     A
C152   O270    1.293   .     A
C152   O272    1.293   .     A
C152   C159    1.460   .     S
C153   O266    1.385   .     S
C153   C160    1.405   .     A
C153   C157    1.393   .     A
C154   C158    1.408   .     A
C154   O267    1.388   .     S
C155   C159    1.417   .     A
C155   O268    1.385   .     S
C156   O269    1.387   .     S
C156   C159    1.412   .     A
C157   O271    1.386   .     S
C157   C158    1.410   .     A
C161   C20     1.452   1_655 S
C162   H237    1.110   .     S
C162   C164    1.520   .     S
C162   O278    1.413   .     S
C162   H248    1.117   .     S
C163   O278    1.377   .     S
C163   C190    1.410   .     A
C163   N257    1.376   .     A
C164   H255    1.110   .     S
C164   H1374   1.111   1_554 S
C164   H1376   1.109   1_554 S
C165   H194    1.110   .     S
C165   O260    1.416   .     S
C165   H195    1.115   .     S
C165   C166    1.523   .     S
C166   H198    1.111   .     S
C166   H196    1.110   .     S
C166   H757    1.109   .     S
C167   H200    1.112   .     S
C167   H199    1.113   .     S
C167   C168    1.521   .     S
C167   O261    1.415   .     S
C168   H202    1.111   .     S
C168   H761    1.111   .     S
C168   H763    1.109   .     S
C169   O262    1.418   .     S
C169   C170    1.522   .     S
C169   H205    1.110   .     S
C169   H206    1.116   .     S
C170   H207    1.110   .     S
C170   H209    1.111   .     S
C170   H1328   1.111   1_554 S
C171   H211    1.114   .     S
C171   O263    1.409   .     S
C172   H214    1.110   .     S
C172   C31     1.515   1_655 S
C172   H72     1.110   1_655 S
C172   H1333   1.107   1_554 S
C173   O264    1.409   .     S
C173   H217    1.115   .     S
C173   C175    1.520   .     S
C173   H76     1.110   1_655 S
C174   N258    1.365   .     A
C174   C191    1.420   .     A
C174   O260    1.388   .     S
C175   H220    1.110   .     S
C175   H218    1.110   .     S
C175   H79     1.111   1_655 S
C176   O265    1.410   .     S
C176   C177    1.521   .     S
C176   H222    1.116   .     S
C176   H81     1.110   1_655 S
C177   H224    1.111   .     S
C177   H223    1.110   .     S
C177   H85     1.110   1_655 S
C178   O266    1.415   .     S
C178   H227    1.116   .     S
C178   H228    1.111   .     S
C179   H230    1.109   .     S
C179   H231    1.110   .     S
C179   H229    1.110   .     S
C179   C38     1.521   1_655 S
C180   H233    1.111   .     S
C180   O267    1.422   .     S
C180   H232    1.118   .     S
C180   C181    1.516   .     S
C181   H236    1.109   .     S
C181   H234    1.109   .     S
C181   H235    1.111   .     S
C182   H238    1.111   .     S
C182   O268    1.414   .     S
C182   C183    1.521   .     S
C182   H239    1.114   .     S
C183   H240    1.109   .     S
C183   H241    1.110   .     S
C183   H242    1.110   .     S
C184   H244    1.111   .     S
C184   H243    1.116   .     S
C184   C186    1.520   .     S
C184   O269    1.416   .     S
C185   C192    1.424   .     A
C185   O261    1.390   .     S
C185   N257    1.380   .     A
C186   H245    1.111   .     S
C186   H247    1.108   .     S
C186   H246    1.110   .     S
C187   H249    1.111   .     S
C187   O271    1.415   .     S
C187   C188    1.519   .     S
C187   H250    1.112   .     S
C188   H252    1.110   .     S
C188   H251    1.108   .     S
C188   H253    1.111   .     S
C189   O262    1.386   .     S
C189   N258    1.365   .     A
C190   H193    1.082   .     S
C191   H204    1.080   .     S
C192   H215    1.080   .     S
H197   C1286   1.109   1_554 S
H201   C1288   1.111   1_554 S
H203   C1288   1.109   1_554 S
H208   C730    1.111   .     S
H210   C31     1.107   1_655 S
H213   C732    1.107   .     S
H254   C724    1.111   .     S
H256   C724    1.109   .     S
N257   Zn280   2.010   .     S
N258   Zn279   2.010   .     S
O259   Zn279   2.014   .     S
O270   Zn280   2.014   .     S
O272   Zn279   2.005   .     S
O273   Zn280   2.005   .     S
O274   Zn279   1.949   .     S
O275   Zn280   1.949   .     S
O276   Zn279   1.951   .     S
O277   Zn280   1.951   .     S
C281   O399    1.291   .     A
C281   O413    1.290   .     A
C281   C298    1.449   .     S
C282   C286    1.405   .     A
C282   C329    1.415   .     A
C282   H366    1.081   .     S
C283   C287    1.366   .     S
C283   O417    1.277   .     A
C283   O414    1.276   .     A
C284   C288    1.366   .     S
C284   O416    1.276   .     A
C284   O415    1.277   .     A
C285   C332    1.401   .     A
C285   C330    1.400   .     A
C286   C331    1.408   .     A
C286   C5      1.514   1_565 S
C287   C1408   1.165   1_554 S
C288   C847    1.165   .     S
C289   C300    1.408   .     A
C289   O403    1.386   .     S
C289   C294    1.391   .     A
C290   C295    1.394   .     A
C290   C301    1.403   .     A
C290   O404    1.386   .     S
C291   O405    1.385   .     S
C291   C301    1.403   .     A
C291   C296    1.392   .     A
C292   O410    1.293   .     A
C292   O412    1.293   .     A
C292   C299    1.460   .     S
C293   O406    1.385   .     S
C293   C300    1.405   .     A
C293   C297    1.393   .     A
C294   C298    1.408   .     A
C294   O407    1.388   .     S
C295   C299    1.417   .     A
C295   O408    1.385   .     S
C296   O409    1.387   .     S
C296   C299    1.412   .     A
C297   O411    1.386   .     S
C297   C298    1.410   .     A
C300   C441    1.452   1_455 S
C301   C440    1.452   .     S
C302   H377    1.110   .     S
C302   C304    1.520   .     S
C302   O418    1.413   .     S
C302   H388    1.117   .     S
C303   O418    1.377   .     S
C303   C330    1.410   .     A
C303   N397    1.376   .     A
C304   H395    1.110   .     S
C304   H1514   1.111   1_554 S
C304   H1516   1.109   1_554 S
C305   H334    1.110   .     S
C305   O400    1.416   .     S
C305   H335    1.115   .     S
C305   C306    1.523   .     S
C306   H338    1.111   .     S
C306   H336    1.110   .     S
C306   H897    1.109   .     S
C307   H340    1.112   .     S
C307   H339    1.113   .     S
C307   C308    1.521   .     S
C307   O401    1.415   .     S
C308   H342    1.111   .     S
C308   H901    1.111   .     S
C308   H903    1.109   .     S
C309   O402    1.418   .     S
C309   C310    1.522   .     S
C309   H345    1.110   .     S
C309   H346    1.116   .     S
C310   H347    1.110   .     S
C310   H349    1.111   .     S
C310   H1468   1.111   1_554 S
C311   H351    1.114   .     S
C311   O403    1.409   .     S
C311   C452    1.515   1_455 S
C311   H490    1.107   1_455 S
C312   H354    1.110   .     S
C312   C451    1.515   .     S
C312   H492    1.110   .     S
C312   H1473   1.107   1_554 S
C313   O404    1.409   .     S
C313   H357    1.115   .     S
C313   C315    1.520   .     S
C313   H496    1.110   .     S
C314   N398    1.365   .     A
C314   C331    1.420   .     A
C314   O400    1.388   .     S
C315   H360    1.110   .     S
C315   H358    1.110   .     S
C315   H499    1.111   .     S
C316   O405    1.410   .     S
C316   C317    1.521   .     S
C316   H362    1.116   .     S
C316   H501    1.110   .     S
C317   H364    1.111   .     S
C317   H363    1.110   .     S
C317   H505    1.110   .     S
C318   O406    1.415   .     S
C318   H367    1.116   .     S
C318   H368    1.111   .     S
C318   C459    1.521   1_455 S
C319   H370    1.109   .     S
C319   H371    1.110   .     S
C319   H369    1.110   .     S
C319   C458    1.521   .     S
C320   H373    1.111   .     S
C320   O407    1.422   .     S
C320   H372    1.118   .     S
C320   C321    1.516   .     S
C321   H376    1.109   .     S
C321   H374    1.109   .     S
C321   H375    1.111   .     S
C322   H378    1.111   .     S
C322   O408    1.414   .     S
C322   C323    1.521   .     S
C322   H379    1.114   .     S
C323   H380    1.109   .     S
C323   H381    1.110   .     S
C323   H382    1.110   .     S
C324   H384    1.111   .     S
C324   H383    1.116   .     S
C324   C326    1.520   .     S
C324   O409    1.416   .     S
C325   C332    1.424   .     A
C325   O401    1.390   .     S
C325   N397    1.380   .     A
C326   H385    1.111   .     S
C326   H387    1.108   .     S
C326   H386    1.110   .     S
C327   H389    1.111   .     S
C327   O411    1.415   .     S
C327   C328    1.519   .     S
C327   H390    1.112   .     S
C328   H392    1.110   .     S
C328   H391    1.108   .     S
C328   H393    1.111   .     S
C329   O402    1.386   .     S
C329   N398    1.365   .     A
C330   H333    1.082   .     S
C331   H344    1.080   .     S
C332   H355    1.080   .     S
H337   C1426   1.109   1_554 S
H341   C1428   1.111   1_554 S
H343   C1428   1.109   1_554 S
H348   C870    1.111   .     S
H350   C451    1.107   .     S
H352   C452    1.110   1_455 S
H353   C872    1.107   .     S
H356   C453    1.110   1_455 S
H359   C455    1.111   1_455 S
H361   C456    1.110   1_455 S
H365   C457    1.110   1_455 S
H394   C864    1.111   .     S
H396   C864    1.109   .     S
N397   Zn420   2.010   .     S
N398   Zn419   2.010   .     S
O399   Zn419   2.014   .     S
O410   Zn420   2.014   .     S
O412   Zn419   2.005   .     S
O413   Zn420   2.005   .     S
O414   Zn419   1.949   .     S
O415   Zn420   1.949   .     S
O416   Zn419   1.951   .     S
O417   Zn420   1.951   .     S
C421   O539    1.291   .     A
C421   O553    1.290   .     A
C421   C438    1.449   .     S
C422   C426    1.405   .     A
C422   C469    1.415   .     A
C422   H506    1.081   .     S
C423   C427    1.366   .     S
C423   O557    1.277   .     A
C423   O554    1.276   .     A
C424   C428    1.366   .     S
C424   O556    1.276   .     A
C424   O555    1.277   .     A
C425   C472    1.401   .     A
C425   C470    1.400   .     A
C426   C471    1.408   .     A
C426   C145    1.514   1_565 S
C427   C1548   1.165   1_554 S
C428   C987    1.165   .     S
C429   C440    1.408   .     A
C429   O543    1.386   .     S
C429   C434    1.391   .     A
C430   C435    1.394   .     A
C430   C441    1.403   .     A
C430   O544    1.386   .     S
C431   O545    1.385   .     S
C431   C441    1.403   .     A
C431   C436    1.392   .     A
C432   O550    1.293   .     A
C432   O552    1.293   .     A
C432   C439    1.460   .     S
C433   O546    1.385   .     S
C433   C440    1.405   .     A
C433   C437    1.393   .     A
C434   C438    1.408   .     A
C434   O547    1.388   .     S
C435   C439    1.417   .     A
C435   O548    1.385   .     S
C436   O549    1.387   .     S
C436   C439    1.412   .     A
C437   O551    1.386   .     S
C437   C438    1.410   .     A
C441   C300    1.452   1_655 S
C442   H517    1.110   .     S
C442   C444    1.520   .     S
C442   O558    1.413   .     S
C442   H528    1.117   .     S
C443   O558    1.377   .     S
C443   C470    1.410   .     A
C443   N537    1.376   .     A
C444   H535    1.110   .     S
C444   H1654   1.111   1_554 S
C444   H1656   1.109   1_554 S
C445   H474    1.110   .     S
C445   O540    1.416   .     S
C445   H475    1.115   .     S
C445   C446    1.523   .     S
C446   H478    1.111   .     S
C446   H476    1.110   .     S
C446   H1037   1.109   .     S
C447   H480    1.112   .     S
C447   H479    1.113   .     S
C447   C448    1.521   .     S
C447   O541    1.415   .     S
C448   H482    1.111   .     S
C448   H1041   1.111   .     S
C448   H1043   1.109   .     S
C449   O542    1.418   .     S
C449   C450    1.522   .     S
C449   H485    1.110   .     S
C449   H486    1.116   .     S
C450   H487    1.110   .     S
C450   H489    1.111   .     S
C450   H1608   1.111   1_554 S
C451   H491    1.114   .     S
C451   O543    1.409   .     S
C452   H494    1.110   .     S
C452   C311    1.515   1_655 S
C452   H352    1.110   1_655 S
C452   H1613   1.107   1_554 S
C453   O544    1.409   .     S
C453   H497    1.115   .     S
C453   C455    1.520   .     S
C453   H356    1.110   1_655 S
C454   N538    1.365   .     A
C454   C471    1.420   .     A
C454   O540    1.388   .     S
C455   H500    1.110   .     S
C455   H498    1.110   .     S
C455   H359    1.111   1_655 S
C456   O545    1.410   .     S
C456   C457    1.521   .     S
C456   H502    1.116   .     S
C456   H361    1.110   1_655 S
C457   H504    1.111   .     S
C457   H503    1.110   .     S
C457   H365    1.110   1_655 S
C458   O546    1.415   .     S
C458   H507    1.116   .     S
C458   H508    1.111   .     S
C459   H510    1.109   .     S
C459   H511    1.110   .     S
C459   H509    1.110   .     S
C459   C318    1.521   1_655 S
C460   H513    1.111   .     S
C460   O547    1.422   .     S
C460   H512    1.118   .     S
C460   C461    1.516   .     S
C461   H516    1.109   .     S
C461   H514    1.109   .     S
C461   H515    1.111   .     S
C462   H518    1.111   .     S
C462   O548    1.414   .     S
C462   C463    1.521   .     S
C462   H519    1.114   .     S
C463   H520    1.109   .     S
C463   H521    1.110   .     S
C463   H522    1.110   .     S
C464   H524    1.111   .     S
C464   H523    1.116   .     S
C464   C466    1.520   .     S
C464   O549    1.416   .     S
C465   C472    1.424   .     A
C465   O541    1.390   .     S
C465   N537    1.380   .     A
C466   H525    1.111   .     S
C466   H527    1.108   .     S
C466   H526    1.110   .     S
C467   H529    1.111   .     S
C467   O551    1.415   .     S
C467   C468    1.519   .     S
C467   H530    1.112   .     S
C468   H532    1.110   .     S
C468   H531    1.108   .     S
C468   H533    1.111   .     S
C469   O542    1.386   .     S
C469   N538    1.365   .     A
C470   H473    1.082   .     S
C471   H484    1.080   .     S
C472   H495    1.080   .     S
H477   C1566   1.109   1_554 S
H481   C1568   1.111   1_554 S
H483   C1568   1.109   1_554 S
H488   C1010   1.111   .     S
H490   C311    1.107   1_655 S
H493   C1012   1.107   .     S
H534   C1004   1.111   .     S
H536   C1004   1.109   .     S
N537   Zn560   2.010   .     S
N538   Zn559   2.010   .     S
O539   Zn559   2.014   .     S
O550   Zn560   2.014   .     S
O552   Zn559   2.005   .     S
O553   Zn560   2.005   .     S
O554   Zn559   1.949   .     S
O555   Zn560   1.949   .     S
O556   Zn559   1.951   .     S
O557   Zn560   1.951   .     S
C561   O679    1.291   .     A
C561   O693    1.290   .     A
C561   C578    1.449   .     S
C562   C566    1.405   .     A
C562   C609    1.415   .     A
C562   H646    1.081   .     S
C563   C567    1.366   .     S
C563   O697    1.277   .     A
C563   O694    1.276   .     A
C564   C568    1.366   .     S
C564   O696    1.276   .     A
C564   O695    1.277   .     A
C565   C612    1.401   .     A
C565   C610    1.400   .     A
C565   C846    1.514   1_545 S
C566   C611    1.408   .     A
C566   C845    1.514   .     S
C568   C1127   1.165   .     S
C569   C580    1.408   .     A
C569   O683    1.386   .     S
C569   C574    1.391   .     A
C570   C575    1.394   .     A
C570   C581    1.403   .     A
C570   O684    1.386   .     S
C571   O685    1.385   .     S
C571   C581    1.403   .     A
C571   C576    1.392   .     A
C572   O690    1.293   .     A
C572   O692    1.293   .     A
C572   C579    1.460   .     S
C573   O686    1.385   .     S
C573   C580    1.405   .     A
C573   C577    1.393   .     A
C574   C578    1.408   .     A
C574   O687    1.388   .     S
C575   C579    1.417   .     A
C575   O688    1.385   .     S
C576   O689    1.387   .     S
C576   C579    1.412   .     A
C577   O691    1.386   .     S
C577   C578    1.410   .     A
C580   C721    1.452   1_455 S
C581   C720    1.452   .     S
C582   H657    1.110   .     S
C582   C584    1.520   .     S
C582   O698    1.413   .     S
C582   H668    1.117   .     S
C583   O698    1.377   .     S
C583   C610    1.410   .     A
C583   N677    1.376   .     A
C584   H675    1.110   .     S
C585   H614    1.110   .     S
C585   O680    1.416   .     S
C585   H615    1.115   .     S
C585   C586    1.523   .     S
C586   H618    1.111   .     S
C586   H616    1.110   .     S
C586   H1177   1.109   .     S
C587   H620    1.112   .     S
C587   H619    1.113   .     S
C587   C588    1.521   .     S
C587   O681    1.415   .     S
C588   H622    1.111   .     S
C588   H1181   1.111   .     S
C588   H1183   1.109   .     S
C589   O682    1.418   .     S
C589   C590    1.522   .     S
C589   H625    1.110   .     S
C589   H626    1.116   .     S
C590   H627    1.110   .     S
C590   H629    1.111   .     S
C591   H631    1.114   .     S
C591   O683    1.409   .     S
C591   C732    1.515   1_455 S
C591   H770    1.107   1_455 S
C592   H634    1.110   .     S
C592   C731    1.515   .     S
C592   H772    1.110   .     S
C593   O684    1.409   .     S
C593   H637    1.115   .     S
C593   C595    1.520   .     S
C593   H776    1.110   .     S
C594   N678    1.365   .     A
C594   C611    1.420   .     A
C594   O680    1.388   .     S
C595   H640    1.110   .     S
C595   H638    1.110   .     S
C595   H779    1.111   .     S
C596   O685    1.410   .     S
C596   C597    1.521   .     S
C596   H642    1.116   .     S
C596   H781    1.110   .     S
C597   H644    1.111   .     S
C597   H643    1.110   .     S
C597   H785    1.110   .     S
C598   O686    1.415   .     S
C598   H647    1.116   .     S
C598   H648    1.111   .     S
C598   C739    1.521   1_455 S
C599   H650    1.109   .     S
C599   H651    1.110   .     S
C599   H649    1.110   .     S
C599   C738    1.521   .     S
C600   H653    1.111   .     S
C600   O687    1.422   .     S
C600   H652    1.118   .     S
C600   C601    1.516   .     S
C601   H656    1.109   .     S
C601   H654    1.109   .     S
C601   H655    1.111   .     S
C602   H658    1.111   .     S
C602   O688    1.414   .     S
C602   C603    1.521   .     S
C602   H659    1.114   .     S
C603   H660    1.109   .     S
C603   H661    1.110   .     S
C603   H662    1.110   .     S
C604   H664    1.111   .     S
C604   H663    1.116   .     S
C604   C606    1.520   .     S
C604   O689    1.416   .     S
C605   C612    1.424   .     A
C605   O681    1.390   .     S
C605   N677    1.380   .     A
C606   H665    1.111   .     S
C606   H667    1.108   .     S
C606   H666    1.110   .     S
C607   H669    1.111   .     S
C607   O691    1.415   .     S
C607   C608    1.519   .     S
C607   H670    1.112   .     S
C608   H672    1.110   .     S
C608   H671    1.108   .     S
C608   H673    1.111   .     S
C609   O682    1.386   .     S
C609   N678    1.365   .     A
C610   H613    1.082   .     S
C611   H624    1.080   .     S
C612   H635    1.080   .     S
H628   C1150   1.111   .     S
H630   C731    1.107   .     S
H632   C732    1.110   1_455 S
H633   C1152   1.107   .     S
H636   C733    1.110   1_455 S
H639   C735    1.111   1_455 S
H641   C736    1.110   1_455 S
H645   C737    1.110   1_455 S
H674   C1144   1.111   .     S
H676   C1144   1.109   .     S
N677   Zn700   2.010   .     S
N678   Zn699   2.010   .     S
O679   Zn699   2.014   .     S
O690   Zn700   2.014   .     S
O692   Zn699   2.005   .     S
O693   Zn700   2.005   .     S
O694   Zn699   1.949   .     S
O695   Zn700   1.949   .     S
O696   Zn699   1.951   .     S
O697   Zn700   1.951   .     S
C701   O819    1.291   .     A
C701   O833    1.290   .     A
C701   C718    1.449   .     S
C702   C706    1.405   .     A
C702   C749    1.415   .     A
C702   H786    1.081   .     S
C703   C707    1.366   .     S
C703   O837    1.277   .     A
C703   O834    1.276   .     A
C704   C708    1.366   .     S
C704   O836    1.276   .     A
C704   O835    1.277   .     A
C705   C752    1.401   .     A
C705   C750    1.400   .     A
C705   C986    1.514   1_545 S
C706   C751    1.408   .     A
C706   C985    1.514   .     S
C708   C1267   1.165   .     S
C709   C720    1.408   .     A
C709   O823    1.386   .     S
C709   C714    1.391   .     A
C710   C715    1.394   .     A
C710   C721    1.403   .     A
C710   O824    1.386   .     S
C711   O825    1.385   .     S
C711   C721    1.403   .     A
C711   C716    1.392   .     A
C712   O830    1.293   .     A
C712   O832    1.293   .     A
C712   C719    1.460   .     S
C713   O826    1.385   .     S
C713   C720    1.405   .     A
C713   C717    1.393   .     A
C714   C718    1.408   .     A
C714   O827    1.388   .     S
C715   C719    1.417   .     A
C715   O828    1.385   .     S
C716   O829    1.387   .     S
C716   C719    1.412   .     A
C717   O831    1.386   .     S
C717   C718    1.410   .     A
C721   C580    1.452   1_655 S
C722   H797    1.110   .     S
C722   C724    1.520   .     S
C722   O838    1.413   .     S
C722   H808    1.117   .     S
C723   O838    1.377   .     S
C723   C750    1.410   .     A
C723   N817    1.376   .     A
C724   H815    1.110   .     S
C725   H754    1.110   .     S
C725   O820    1.416   .     S
C725   H755    1.115   .     S
C725   C726    1.523   .     S
C726   H758    1.111   .     S
C726   H756    1.110   .     S
C726   H1317   1.109   .     S
C727   H760    1.112   .     S
C727   H759    1.113   .     S
C727   C728    1.521   .     S
C727   O821    1.415   .     S
C728   H762    1.111   .     S
C728   H1321   1.111   .     S
C728   H1323   1.109   .     S
C729   O822    1.418   .     S
C729   C730    1.522   .     S
C729   H765    1.110   .     S
C729   H766    1.116   .     S
C730   H767    1.110   .     S
C730   H769    1.111   .     S
C731   H771    1.114   .     S
C731   O823    1.409   .     S
C732   H774    1.110   .     S
C732   C591    1.515   1_655 S
C732   H632    1.110   1_655 S
C733   O824    1.409   .     S
C733   H777    1.115   .     S
C733   C735    1.520   .     S
C733   H636    1.110   1_655 S
C734   N818    1.365   .     A
C734   C751    1.420   .     A
C734   O820    1.388   .     S
C735   H780    1.110   .     S
C735   H778    1.110   .     S
C735   H639    1.111   1_655 S
C736   O825    1.410   .     S
C736   C737    1.521   .     S
C736   H782    1.116   .     S
C736   H641    1.110   1_655 S
C737   H784    1.111   .     S
C737   H783    1.110   .     S
C737   H645    1.110   1_655 S
C738   O826    1.415   .     S
C738   H787    1.116   .     S
C738   H788    1.111   .     S
C739   H790    1.109   .     S
C739   H791    1.110   .     S
C739   H789    1.110   .     S
C739   C598    1.521   1_655 S
C740   H793    1.111   .     S
C740   O827    1.422   .     S
C740   H792    1.118   .     S
C740   C741    1.516   .     S
C741   H796    1.109   .     S
C741   H794    1.109   .     S
C741   H795    1.111   .     S
C742   H798    1.111   .     S
C742   O828    1.414   .     S
C742   C743    1.521   .     S
C742   H799    1.114   .     S
C743   H800    1.109   .     S
C743   H801    1.110   .     S
C743   H802    1.110   .     S
C744   H804    1.111   .     S
C744   H803    1.116   .     S
C744   C746    1.520   .     S
C744   O829    1.416   .     S
C745   C752    1.424   .     A
C745   O821    1.390   .     S
C745   N817    1.380   .     A
C746   H805    1.111   .     S
C746   H807    1.108   .     S
C746   H806    1.110   .     S
C747   H809    1.111   .     S
C747   O831    1.415   .     S
C747   C748    1.519   .     S
C747   H810    1.112   .     S
C748   H812    1.110   .     S
C748   H811    1.108   .     S
C748   H813    1.111   .     S
C749   O822    1.386   .     S
C749   N818    1.365   .     A
C750   H753    1.082   .     S
C751   H764    1.080   .     S
C752   H775    1.080   .     S
H768   C1290   1.111   .     S
H770   C591    1.107   1_655 S
H773   C1292   1.107   .     S
H814   C1284   1.111   .     S
H816   C1284   1.109   .     S
N817   Zn840   2.010   .     S
N818   Zn839   2.010   .     S
O819   Zn839   2.014   .     S
O830   Zn840   2.014   .     S
O832   Zn839   2.005   .     S
O833   Zn840   2.005   .     S
O834   Zn839   1.949   .     S
O835   Zn840   1.949   .     S
O836   Zn839   1.951   .     S
O837   Zn840   1.951   .     S
C841   O959    1.291   .     A
C841   O973    1.290   .     A
C841   C858    1.449   .     S
C842   C846    1.405   .     A
C842   C889    1.415   .     A
C842   H926    1.081   .     S
C843   C847    1.366   .     S
C843   O977    1.277   .     A
C843   O974    1.276   .     A
C844   C848    1.366   .     S
C844   O976    1.276   .     A
C844   O975    1.277   .     A
C845   C892    1.401   .     A
C845   C890    1.400   .     A
C846   C891    1.408   .     A
C846   C565    1.514   1_565 S
C848   C1407   1.165   .     S
C849   C860    1.408   .     A
C849   O963    1.386   .     S
C849   C854    1.391   .     A
C850   C855    1.394   .     A
C850   C861    1.403   .     A
C850   O964    1.386   .     S
C851   O965    1.385   .     S
C851   C861    1.403   .     A
C851   C856    1.392   .     A
C852   O970    1.293   .     A
C852   O972    1.293   .     A
C852   C859    1.460   .     S
C853   O966    1.385   .     S
C853   C860    1.405   .     A
C853   C857    1.393   .     A
C854   C858    1.408   .     A
C854   O967    1.388   .     S
C855   C859    1.417   .     A
C855   O968    1.385   .     S
C856   O969    1.387   .     S
C856   C859    1.412   .     A
C857   O971    1.386   .     S
C857   C858    1.410   .     A
C860   C1001   1.452   1_455 S
C861   C1000   1.452   .     S
C862   H937    1.110   .     S
C862   C864    1.520   .     S
C862   O978    1.413   .     S
C862   H948    1.117   .     S
C863   O978    1.377   .     S
C863   C890    1.410   .     A
C863   N957    1.376   .     A
C864   H955    1.110   .     S
C865   H894    1.110   .     S
C865   O960    1.416   .     S
C865   H895    1.115   .     S
C865   C866    1.523   .     S
C866   H898    1.111   .     S
C866   H896    1.110   .     S
C866   H1457   1.109   .     S
C867   H900    1.112   .     S
C867   H899    1.113   .     S
C867   C868    1.521   .     S
C867   O961    1.415   .     S
C868   H902    1.111   .     S
C868   H1461   1.111   .     S
C868   H1463   1.109   .     S
C869   O962    1.418   .     S
C869   C870    1.522   .     S
C869   H905    1.110   .     S
C869   H906    1.116   .     S
C870   H907    1.110   .     S
C870   H909    1.111   .     S
C871   H911    1.114   .     S
C871   O963    1.409   .     S
C871   C1012   1.515   1_455 S
C871   H1050   1.107   1_455 S
C872   H914    1.110   .     S
C872   C1011   1.515   .     S
C872   H1052   1.110   .     S
C873   O964    1.409   .     S
C873   H917    1.115   .     S
C873   C875    1.520   .     S
C873   H1056   1.110   .     S
C874   N958    1.365   .     A
C874   C891    1.420   .     A
C874   O960    1.388   .     S
C875   H920    1.110   .     S
C875   H918    1.110   .     S
C875   H1059   1.111   .     S
C876   O965    1.410   .     S
C876   C877    1.521   .     S
C876   H922    1.116   .     S
C876   H1061   1.110   .     S
C877   H924    1.111   .     S
C877   H923    1.110   .     S
C877   H1065   1.110   .     S
C878   O966    1.415   .     S
C878   H927    1.116   .     S
C878   H928    1.111   .     S
C878   C1019   1.521   1_455 S
C879   H930    1.109   .     S
C879   H931    1.110   .     S
C879   H929    1.110   .     S
C879   C1018   1.521   .     S
C880   H933    1.111   .     S
C880   O967    1.422   .     S
C880   H932    1.118   .     S
C880   C881    1.516   .     S
C881   H936    1.109   .     S
C881   H934    1.109   .     S
C881   H935    1.111   .     S
C882   H938    1.111   .     S
C882   O968    1.414   .     S
C882   C883    1.521   .     S
C882   H939    1.114   .     S
C883   H940    1.109   .     S
C883   H941    1.110   .     S
C883   H942    1.110   .     S
C884   H944    1.111   .     S
C884   H943    1.116   .     S
C884   C886    1.520   .     S
C884   O969    1.416   .     S
C885   C892    1.424   .     A
C885   O961    1.390   .     S
C885   N957    1.380   .     A
C886   H945    1.111   .     S
C886   H947    1.108   .     S
C886   H946    1.110   .     S
C887   H949    1.111   .     S
C887   O971    1.415   .     S
C887   C888    1.519   .     S
C887   H950    1.112   .     S
C888   H952    1.110   .     S
C888   H951    1.108   .     S
C888   H953    1.111   .     S
C889   O962    1.386   .     S
C889   N958    1.365   .     A
C890   H893    1.082   .     S
C891   H904    1.080   .     S
C892   H915    1.080   .     S
H908   C1430   1.111   .     S
H910   C1011   1.107   .     S
H912   C1012   1.110   1_455 S
H913   C1432   1.107   .     S
H916   C1013   1.110   1_455 S
H919   C1015   1.111   1_455 S
H921   C1016   1.110   1_455 S
H925   C1017   1.110   1_455 S
H954   C1424   1.111   .     S
H956   C1424   1.109   .     S
N957   Zn980   2.010   .     S
N958   Zn979   2.010   .     S
O959   Zn979   2.014   .     S
O970   Zn980   2.014   .     S
O972   Zn979   2.005   .     S
O973   Zn980   2.005   .     S
O974   Zn979   1.949   .     S
O975   Zn980   1.949   .     S
O976   Zn979   1.951   .     S
O977   Zn980   1.951   .     S
C981   O1099   1.291   .     A
C981   O1113   1.290   .     A
C981   C998    1.449   .     S
C982   C986    1.405   .     A
C982   C1029   1.415   .     A
C982   H1066   1.081   .     S
C983   C987    1.366   .     S
C983   O1117   1.277   .     A
C983   O1114   1.276   .     A
C984   C988    1.366   .     S
C984   O1116   1.276   .     A
C984   O1115   1.277   .     A
C985   C1032   1.401   .     A
C985   C1030   1.400   .     A
C986   C1031   1.408   .     A
C986   C705    1.514   1_565 S
C988   C1547   1.165   .     S
C989   C1000   1.408   .     A
C989   O1103   1.386   .     S
C989   C994    1.391   .     A
C990   C995    1.394   .     A
C990   C1001   1.403   .     A
C990   O1104   1.386   .     S
C991   O1105   1.385   .     S
C991   C1001   1.403   .     A
C991   C996    1.392   .     A
C992   O1110   1.293   .     A
C992   O1112   1.293   .     A
C992   C999    1.460   .     S
C993   O1106   1.385   .     S
C993   C1000   1.405   .     A
C993   C997    1.393   .     A
C994   C998    1.408   .     A
C994   O1107   1.388   .     S
C995   C999    1.417   .     A
C995   O1108   1.385   .     S
C996   O1109   1.387   .     S
C996   C999    1.412   .     A
C997   O1111   1.386   .     S
C997   C998    1.410   .     A
C1001  C860    1.452   1_655 S
C1002  H1077   1.110   .     S
C1002  C1004   1.520   .     S
C1002  O1118   1.413   .     S
C1002  H1088   1.117   .     S
C1003  O1118   1.377   .     S
C1003  C1030   1.410   .     A
C1003  N1097   1.376   .     A
C1004  H1095   1.110   .     S
C1005  H1034   1.110   .     S
C1005  O1100   1.416   .     S
C1005  H1035   1.115   .     S
C1005  C1006   1.523   .     S
C1006  H1038   1.111   .     S
C1006  H1036   1.110   .     S
C1006  H1597   1.109   .     S
C1007  H1040   1.112   .     S
C1007  H1039   1.113   .     S
C1007  C1008   1.521   .     S
C1007  O1101   1.415   .     S
C1008  H1042   1.111   .     S
C1008  H1601   1.111   .     S
C1008  H1603   1.109   .     S
C1009  O1102   1.418   .     S
C1009  C1010   1.522   .     S
C1009  H1045   1.110   .     S
C1009  H1046   1.116   .     S
C1010  H1047   1.110   .     S
C1010  H1049   1.111   .     S
C1011  H1051   1.114   .     S
C1011  O1103   1.409   .     S
C1012  H1054   1.110   .     S
C1012  C871    1.515   1_655 S
C1012  H912    1.110   1_655 S
C1013  O1104   1.409   .     S
C1013  H1057   1.115   .     S
C1013  C1015   1.520   .     S
C1013  H916    1.110   1_655 S
C1014  N1098   1.365   .     A
C1014  C1031   1.420   .     A
C1014  O1100   1.388   .     S
C1015  H1060   1.110   .     S
C1015  H1058   1.110   .     S
C1015  H919    1.111   1_655 S
C1016  O1105   1.410   .     S
C1016  C1017   1.521   .     S
C1016  H1062   1.116   .     S
C1016  H921    1.110   1_655 S
C1017  H1064   1.111   .     S
C1017  H1063   1.110   .     S
C1017  H925    1.110   1_655 S
C1018  O1106   1.415   .     S
C1018  H1067   1.116   .     S
C1018  H1068   1.111   .     S
C1019  H1070   1.109   .     S
C1019  H1071   1.110   .     S
C1019  H1069   1.110   .     S
C1019  C878    1.521   1_655 S
C1020  H1073   1.111   .     S
C1020  O1107   1.422   .     S
C1020  H1072   1.118   .     S
C1020  C1021   1.516   .     S
C1021  H1076   1.109   .     S
C1021  H1074   1.109   .     S
C1021  H1075   1.111   .     S
C1022  H1078   1.111   .     S
C1022  O1108   1.414   .     S
C1022  C1023   1.521   .     S
C1022  H1079   1.114   .     S
C1023  H1080   1.109   .     S
C1023  H1081   1.110   .     S
C1023  H1082   1.110   .     S
C1024  H1084   1.111   .     S
C1024  H1083   1.116   .     S
C1024  C1026   1.520   .     S
C1024  O1109   1.416   .     S
C1025  C1032   1.424   .     A
C1025  O1101   1.390   .     S
C1025  N1097   1.380   .     A
C1026  H1085   1.111   .     S
C1026  H1087   1.108   .     S
C1026  H1086   1.110   .     S
C1027  H1089   1.111   .     S
C1027  O1111   1.415   .     S
C1027  C1028   1.519   .     S
C1027  H1090   1.112   .     S
C1028  H1092   1.110   .     S
C1028  H1091   1.108   .     S
C1028  H1093   1.111   .     S
C1029  O1102   1.386   .     S
C1029  N1098   1.365   .     A
C1030  H1033   1.082   .     S
C1031  H1044   1.080   .     S
C1032  H1055   1.080   .     S
H1048  C1570   1.111   .     S
H1050  C871    1.107   1_655 S
H1053  C1572   1.107   .     S
H1094  C1564   1.111   .     S
H1096  C1564   1.109   .     S
N1097  Zn1120  2.010   .     S
N1098  Zn1119  2.010   .     S
O1099  Zn1119  2.014   .     S
O1110  Zn1120  2.014   .     S
O1112  Zn1119  2.005   .     S
O1113  Zn1120  2.005   .     S
O1114  Zn1119  1.949   .     S
O1115  Zn1120  1.949   .     S
O1116  Zn1119  1.951   .     S
O1117  Zn1120  1.951   .     S
C1121  O1239   1.291   .     A
C1121  O1253   1.290   .     A
C1121  C1138   1.449   .     S
C1122  C1126   1.405   .     A
C1122  C1169   1.415   .     A
C1122  H1206   1.081   .     S
C1123  C1127   1.366   .     S
C1123  O1257   1.277   .     A
C1123  O1254   1.276   .     A
C1124  C1128   1.366   .     S
C1124  O1256   1.276   .     A
C1124  O1255   1.277   .     A
C1125  C1172   1.401   .     A
C1125  C1170   1.400   .     A
C1125  C1406   1.514   1_545 S
C1126  C1171   1.408   .     A
C1126  C1405   1.514   .     S
C1128  C7      1.165   1_556 S
C1129  C1140   1.408   .     A
C1129  O1243   1.386   .     S
C1129  C1134   1.391   .     A
C1130  C1135   1.394   .     A
C1130  C1141   1.403   .     A
C1130  O1244   1.386   .     S
C1131  O1245   1.385   .     S
C1131  C1141   1.403   .     A
C1131  C1136   1.392   .     A
C1132  O1250   1.293   .     A
C1132  O1252   1.293   .     A
C1132  C1139   1.460   .     S
C1133  O1246   1.385   .     S
C1133  C1140   1.405   .     A
C1133  C1137   1.393   .     A
C1134  C1138   1.408   .     A
C1134  O1247   1.388   .     S
C1135  C1139   1.417   .     A
C1135  O1248   1.385   .     S
C1136  O1249   1.387   .     S
C1136  C1139   1.412   .     A
C1137  O1251   1.386   .     S
C1137  C1138   1.410   .     A
C1140  C1281   1.452   1_455 S
C1141  C1280   1.452   .     S
C1142  H1217   1.110   .     S
C1142  C1144   1.520   .     S
C1142  O1258   1.413   .     S
C1142  H1228   1.117   .     S
C1143  O1258   1.377   .     S
C1143  C1170   1.410   .     A
C1143  N1237   1.376   .     A
C1144  H1235   1.110   .     S
C1145  H1174   1.110   .     S
C1145  O1240   1.416   .     S
C1145  H1175   1.115   .     S
C1145  C1146   1.523   .     S
C1146  H1178   1.111   .     S
C1146  H1176   1.110   .     S
C1146  H57     1.109   1_556 S
C1147  H1180   1.112   .     S
C1147  H1179   1.113   .     S
C1147  C1148   1.521   .     S
C1147  O1241   1.415   .     S
C1148  H1182   1.111   .     S
C1148  H61     1.111   1_556 S
C1148  H63     1.109   1_556 S
C1149  O1242   1.418   .     S
C1149  C1150   1.522   .     S
C1149  H1185   1.110   .     S
C1149  H1186   1.116   .     S
C1150  H1187   1.110   .     S
C1150  H1189   1.111   .     S
C1151  H1191   1.114   .     S
C1151  O1243   1.409   .     S
C1151  C1292   1.515   1_455 S
C1151  H1330   1.107   1_455 S
C1152  H1194   1.110   .     S
C1152  C1291   1.515   .     S
C1152  H1332   1.110   .     S
C1153  O1244   1.409   .     S
C1153  H1197   1.115   .     S
C1153  C1155   1.520   .     S
C1153  H1336   1.110   .     S
C1154  N1238   1.365   .     A
C1154  C1171   1.420   .     A
C1154  O1240   1.388   .     S
C1155  H1200   1.110   .     S
C1155  H1198   1.110   .     S
C1155  H1339   1.111   .     S
C1156  O1245   1.410   .     S
C1156  C1157   1.521   .     S
C1156  H1202   1.116   .     S
C1156  H1341   1.110   .     S
C1157  H1204   1.111   .     S
C1157  H1203   1.110   .     S
C1157  H1345   1.110   .     S
C1158  O1246   1.415   .     S
C1158  H1207   1.116   .     S
C1158  H1208   1.111   .     S
C1158  C1299   1.521   1_455 S
C1159  H1210   1.109   .     S
C1159  H1211   1.110   .     S
C1159  H1209   1.110   .     S
C1159  C1298   1.521   .     S
C1160  H1213   1.111   .     S
C1160  O1247   1.422   .     S
C1160  H1212   1.118   .     S
C1160  C1161   1.516   .     S
C1161  H1216   1.109   .     S
C1161  H1214   1.109   .     S
C1161  H1215   1.111   .     S
C1162  H1218   1.111   .     S
C1162  O1248   1.414   .     S
C1162  C1163   1.521   .     S
C1162  H1219   1.114   .     S
C1163  H1220   1.109   .     S
C1163  H1221   1.110   .     S
C1163  H1222   1.110   .     S
C1164  H1224   1.111   .     S
C1164  H1223   1.116   .     S
C1164  C1166   1.520   .     S
C1164  O1249   1.416   .     S
C1165  C1172   1.424   .     A
C1165  O1241   1.390   .     S
C1165  N1237   1.380   .     A
C1166  H1225   1.111   .     S
C1166  H1227   1.108   .     S
C1166  H1226   1.110   .     S
C1167  H1229   1.111   .     S
C1167  O1251   1.415   .     S
C1167  C1168   1.519   .     S
C1167  H1230   1.112   .     S
C1168  H1232   1.110   .     S
C1168  H1231   1.108   .     S
C1168  H1233   1.111   .     S
C1169  O1242   1.386   .     S
C1169  N1238   1.365   .     A
C1170  H1173   1.082   .     S
C1171  H1184   1.080   .     S
C1172  H1195   1.080   .     S
H1188  C30     1.111   1_556 S
H1190  C1291   1.107   .     S
H1192  C1292   1.110   1_455 S
H1193  C32     1.107   1_556 S
H1196  C1293   1.110   1_455 S
H1199  C1295   1.111   1_455 S
H1201  C1296   1.110   1_455 S
H1205  C1297   1.110   1_455 S
H1234  C24     1.111   1_556 S
H1236  C24     1.109   1_556 S
N1237  Zn1260  2.010   .     S
N1238  Zn1259  2.010   .     S
O1239  Zn1259  2.014   .     S
O1250  Zn1260  2.014   .     S
O1252  Zn1259  2.005   .     S
O1253  Zn1260  2.005   .     S
O1254  Zn1259  1.949   .     S
O1255  Zn1260  1.949   .     S
O1256  Zn1259  1.951   .     S
O1257  Zn1260  1.951   .     S
C1261  O1379   1.291   .     A
C1261  O1393   1.290   .     A
C1261  C1278   1.449   .     S
C1262  C1266   1.405   .     A
C1262  C1309   1.415   .     A
C1262  H1346   1.081   .     S
C1263  C1267   1.366   .     S
C1263  O1397   1.277   .     A
C1263  O1394   1.276   .     A
C1264  C1268   1.366   .     S
C1264  O1396   1.276   .     A
C1264  O1395   1.277   .     A
C1265  C1312   1.401   .     A
C1265  C1310   1.400   .     A
C1265  C1546   1.514   1_545 S
C1266  C1311   1.408   .     A
C1266  C1545   1.514   .     S
C1268  C147    1.165   1_556 S
C1269  C1280   1.408   .     A
C1269  O1383   1.386   .     S
C1269  C1274   1.391   .     A
C1270  C1275   1.394   .     A
C1270  C1281   1.403   .     A
C1270  O1384   1.386   .     S
C1271  O1385   1.385   .     S
C1271  C1281   1.403   .     A
C1271  C1276   1.392   .     A
C1272  O1390   1.293   .     A
C1272  O1392   1.293   .     A
C1272  C1279   1.460   .     S
C1273  O1386   1.385   .     S
C1273  C1280   1.405   .     A
C1273  C1277   1.393   .     A
C1274  C1278   1.408   .     A
C1274  O1387   1.388   .     S
C1275  C1279   1.417   .     A
C1275  O1388   1.385   .     S
C1276  O1389   1.387   .     S
C1276  C1279   1.412   .     A
C1277  O1391   1.386   .     S
C1277  C1278   1.410   .     A
C1281  C1140   1.452   1_655 S
C1282  H1357   1.110   .     S
C1282  C1284   1.520   .     S
C1282  O1398   1.413   .     S
C1282  H1368   1.117   .     S
C1283  O1398   1.377   .     S
C1283  C1310   1.410   .     A
C1283  N1377   1.376   .     A
C1284  H1375   1.110   .     S
C1285  H1314   1.110   .     S
C1285  O1380   1.416   .     S
C1285  H1315   1.115   .     S
C1285  C1286   1.523   .     S
C1286  H1318   1.111   .     S
C1286  H1316   1.110   .     S
C1286  H197    1.109   1_556 S
C1287  H1320   1.112   .     S
C1287  H1319   1.113   .     S
C1287  C1288   1.521   .     S
C1287  O1381   1.415   .     S
C1288  H1322   1.111   .     S
C1288  H201    1.111   1_556 S
C1288  H203    1.109   1_556 S
C1289  O1382   1.418   .     S
C1289  C1290   1.522   .     S
C1289  H1325   1.110   .     S
C1289  H1326   1.116   .     S
C1290  H1327   1.110   .     S
C1290  H1329   1.111   .     S
C1291  H1331   1.114   .     S
C1291  O1383   1.409   .     S
C1292  H1334   1.110   .     S
C1292  C1151   1.515   1_655 S
C1292  H1192   1.110   1_655 S
C1293  O1384   1.409   .     S
C1293  H1337   1.115   .     S
C1293  C1295   1.520   .     S
C1293  H1196   1.110   1_655 S
C1294  N1378   1.365   .     A
C1294  C1311   1.420   .     A
C1294  O1380   1.388   .     S
C1295  H1340   1.110   .     S
C1295  H1338   1.110   .     S
C1295  H1199   1.111   1_655 S
C1296  O1385   1.410   .     S
C1296  C1297   1.521   .     S
C1296  H1342   1.116   .     S
C1296  H1201   1.110   1_655 S
C1297  H1344   1.111   .     S
C1297  H1343   1.110   .     S
C1297  H1205   1.110   1_655 S
C1298  O1386   1.415   .     S
C1298  H1347   1.116   .     S
C1298  H1348   1.111   .     S
C1299  H1350   1.109   .     S
C1299  H1351   1.110   .     S
C1299  H1349   1.110   .     S
C1299  C1158   1.521   1_655 S
C1300  H1353   1.111   .     S
C1300  O1387   1.422   .     S
C1300  H1352   1.118   .     S
C1300  C1301   1.516   .     S
C1301  H1356   1.109   .     S
C1301  H1354   1.109   .     S
C1301  H1355   1.111   .     S
C1302  H1358   1.111   .     S
C1302  O1388   1.414   .     S
C1302  C1303   1.521   .     S
C1302  H1359   1.114   .     S
C1303  H1360   1.109   .     S
C1303  H1361   1.110   .     S
C1303  H1362   1.110   .     S
C1304  H1364   1.111   .     S
C1304  H1363   1.116   .     S
C1304  C1306   1.520   .     S
C1304  O1389   1.416   .     S
C1305  C1312   1.424   .     A
C1305  O1381   1.390   .     S
C1305  N1377   1.380   .     A
C1306  H1365   1.111   .     S
C1306  H1367   1.108   .     S
C1306  H1366   1.110   .     S
C1307  H1369   1.111   .     S
C1307  O1391   1.415   .     S
C1307  C1308   1.519   .     S
C1307  H1370   1.112   .     S
C1308  H1372   1.110   .     S
C1308  H1371   1.108   .     S
C1308  H1373   1.111   .     S
C1309  O1382   1.386   .     S
C1309  N1378   1.365   .     A
C1310  H1313   1.082   .     S
C1311  H1324   1.080   .     S
C1312  H1335   1.080   .     S
H1328  C170    1.111   1_556 S
H1330  C1151   1.107   1_655 S
H1333  C172    1.107   1_556 S
H1374  C164    1.111   1_556 S
H1376  C164    1.109   1_556 S
N1377  Zn1400  2.010   .     S
N1378  Zn1399  2.010   .     S
O1379  Zn1399  2.014   .     S
O1390  Zn1400  2.014   .     S
O1392  Zn1399  2.005   .     S
O1393  Zn1400  2.005   .     S
O1394  Zn1399  1.949   .     S
O1395  Zn1400  1.949   .     S
O1396  Zn1399  1.951   .     S
O1397  Zn1400  1.951   .     S
C1401  O1519   1.291   .     A
C1401  O1533   1.290   .     A
C1401  C1418   1.449   .     S
C1402  C1406   1.405   .     A
C1402  C1449   1.415   .     A
C1402  H1486   1.081   .     S
C1403  C1407   1.366   .     S
C1403  O1537   1.277   .     A
C1403  O1534   1.276   .     A
C1404  C1408   1.366   .     S
C1404  O1536   1.276   .     A
C1404  O1535   1.277   .     A
C1405  C1452   1.401   .     A
C1405  C1450   1.400   .     A
C1406  C1451   1.408   .     A
C1406  C1125   1.514   1_565 S
C1408  C287    1.165   1_556 S
C1409  C1420   1.408   .     A
C1409  O1523   1.386   .     S
C1409  C1414   1.391   .     A
C1410  C1415   1.394   .     A
C1410  C1421   1.403   .     A
C1410  O1524   1.386   .     S
C1411  O1525   1.385   .     S
C1411  C1421   1.403   .     A
C1411  C1416   1.392   .     A
C1412  O1530   1.293   .     A
C1412  O1532   1.293   .     A
C1412  C1419   1.460   .     S
C1413  O1526   1.385   .     S
C1413  C1420   1.405   .     A
C1413  C1417   1.393   .     A
C1414  C1418   1.408   .     A
C1414  O1527   1.388   .     S
C1415  C1419   1.417   .     A
C1415  O1528   1.385   .     S
C1416  O1529   1.387   .     S
C1416  C1419   1.412   .     A
C1417  O1531   1.386   .     S
C1417  C1418   1.410   .     A
C1420  C1561   1.452   1_455 S
C1421  C1560   1.452   .     S
C1422  H1497   1.110   .     S
C1422  C1424   1.520   .     S
C1422  O1538   1.413   .     S
C1422  H1508   1.117   .     S
C1423  O1538   1.377   .     S
C1423  C1450   1.410   .     A
C1423  N1517   1.376   .     A
C1424  H1515   1.110   .     S
C1425  H1454   1.110   .     S
C1425  O1520   1.416   .     S
C1425  H1455   1.115   .     S
C1425  C1426   1.523   .     S
C1426  H1458   1.111   .     S
C1426  H1456   1.110   .     S
C1426  H337    1.109   1_556 S
C1427  H1460   1.112   .     S
C1427  H1459   1.113   .     S
C1427  C1428   1.521   .     S
C1427  O1521   1.415   .     S
C1428  H1462   1.111   .     S
C1428  H341    1.111   1_556 S
C1428  H343    1.109   1_556 S
C1429  O1522   1.418   .     S
C1429  C1430   1.522   .     S
C1429  H1465   1.110   .     S
C1429  H1466   1.116   .     S
C1430  H1467   1.110   .     S
C1430  H1469   1.111   .     S
C1431  H1471   1.114   .     S
C1431  O1523   1.409   .     S
C1431  C1572   1.515   1_455 S
C1431  H1610   1.107   1_455 S
C1432  H1474   1.110   .     S
C1432  C1571   1.515   .     S
C1432  H1612   1.110   .     S
C1433  O1524   1.409   .     S
C1433  H1477   1.115   .     S
C1433  C1435   1.520   .     S
C1433  H1616   1.110   .     S
C1434  N1518   1.365   .     A
C1434  C1451   1.420   .     A
C1434  O1520   1.388   .     S
C1435  H1480   1.110   .     S
C1435  H1478   1.110   .     S
C1435  H1619   1.111   .     S
C1436  O1525   1.410   .     S
C1436  C1437   1.521   .     S
C1436  H1482   1.116   .     S
C1436  H1621   1.110   .     S
C1437  H1484   1.111   .     S
C1437  H1483   1.110   .     S
C1437  H1625   1.110   .     S
C1438  O1526   1.415   .     S
C1438  H1487   1.116   .     S
C1438  H1488   1.111   .     S
C1438  C1579   1.521   1_455 S
C1439  H1490   1.109   .     S
C1439  H1491   1.110   .     S
C1439  H1489   1.110   .     S
C1439  C1578   1.521   .     S
C1440  H1493   1.111   .     S
C1440  O1527   1.422   .     S
C1440  H1492   1.118   .     S
C1440  C1441   1.516   .     S
C1441  H1496   1.109   .     S
C1441  H1494   1.109   .     S
C1441  H1495   1.111   .     S
C1442  H1498   1.111   .     S
C1442  O1528   1.414   .     S
C1442  C1443   1.521   .     S
C1442  H1499   1.114   .     S
C1443  H1500   1.109   .     S
C1443  H1501   1.110   .     S
C1443  H1502   1.110   .     S
C1444  H1504   1.111   .     S
C1444  H1503   1.116   .     S
C1444  C1446   1.520   .     S
C1444  O1529   1.416   .     S
C1445  C1452   1.424   .     A
C1445  O1521   1.390   .     S
C1445  N1517   1.380   .     A
C1446  H1505   1.111   .     S
C1446  H1507   1.108   .     S
C1446  H1506   1.110   .     S
C1447  H1509   1.111   .     S
C1447  O1531   1.415   .     S
C1447  C1448   1.519   .     S
C1447  H1510   1.112   .     S
C1448  H1512   1.110   .     S
C1448  H1511   1.108   .     S
C1448  H1513   1.111   .     S
C1449  O1522   1.386   .     S
C1449  N1518   1.365   .     A
C1450  H1453   1.082   .     S
C1451  H1464   1.080   .     S
C1452  H1475   1.080   .     S
H1468  C310    1.111   1_556 S
H1470  C1571   1.107   .     S
H1472  C1572   1.110   1_455 S
H1473  C312    1.107   1_556 S
H1476  C1573   1.110   1_455 S
H1479  C1575   1.111   1_455 S
H1481  C1576   1.110   1_455 S
H1485  C1577   1.110   1_455 S
H1514  C304    1.111   1_556 S
H1516  C304    1.109   1_556 S
N1517  Zn1540  2.010   .     S
N1518  Zn1539  2.010   .     S
O1519  Zn1539  2.014   .     S
O1530  Zn1540  2.014   .     S
O1532  Zn1539  2.005   .     S
O1533  Zn1540  2.005   .     S
O1534  Zn1539  1.949   .     S
O1535  Zn1540  1.949   .     S
O1536  Zn1539  1.951   .     S
O1537  Zn1540  1.951   .     S
C1541  O1659   1.291   .     A
C1541  O1673   1.290   .     A
C1541  C1558   1.449   .     S
C1542  C1546   1.405   .     A
C1542  C1589   1.415   .     A
C1542  H1626   1.081   .     S
C1543  C1547   1.366   .     S
C1543  O1677   1.277   .     A
C1543  O1674   1.276   .     A
C1544  C1548   1.366   .     S
C1544  O1676   1.276   .     A
C1544  O1675   1.277   .     A
C1545  C1592   1.401   .     A
C1545  C1590   1.400   .     A
C1546  C1591   1.408   .     A
C1546  C1265   1.514   1_565 S
C1548  C427    1.165   1_556 S
C1549  C1560   1.408   .     A
C1549  O1663   1.386   .     S
C1549  C1554   1.391   .     A
C1550  C1555   1.394   .     A
C1550  C1561   1.403   .     A
C1550  O1664   1.386   .     S
C1551  O1665   1.385   .     S
C1551  C1561   1.403   .     A
C1551  C1556   1.392   .     A
C1552  O1670   1.293   .     A
C1552  O1672   1.293   .     A
C1552  C1559   1.460   .     S
C1553  O1666   1.385   .     S
C1553  C1560   1.405   .     A
C1553  C1557   1.393   .     A
C1554  C1558   1.408   .     A
C1554  O1667   1.388   .     S
C1555  C1559   1.417   .     A
C1555  O1668   1.385   .     S
C1556  O1669   1.387   .     S
C1556  C1559   1.412   .     A
C1557  O1671   1.386   .     S
C1557  C1558   1.410   .     A
C1561  C1420   1.452   1_655 S
C1562  H1637   1.110   .     S
C1562  C1564   1.520   .     S
C1562  O1678   1.413   .     S
C1562  H1648   1.117   .     S
C1563  O1678   1.377   .     S
C1563  C1590   1.410   .     A
C1563  N1657   1.376   .     A
C1564  H1655   1.110   .     S
C1565  H1594   1.110   .     S
C1565  O1660   1.416   .     S
C1565  H1595   1.115   .     S
C1565  C1566   1.523   .     S
C1566  H1598   1.111   .     S
C1566  H1596   1.110   .     S
C1566  H477    1.109   1_556 S
C1567  H1600   1.112   .     S
C1567  H1599   1.113   .     S
C1567  C1568   1.521   .     S
C1567  O1661   1.415   .     S
C1568  H1602   1.111   .     S
C1568  H481    1.111   1_556 S
C1568  H483    1.109   1_556 S
C1569  O1662   1.418   .     S
C1569  C1570   1.522   .     S
C1569  H1605   1.110   .     S
C1569  H1606   1.116   .     S
C1570  H1607   1.110   .     S
C1570  H1609   1.111   .     S
C1571  H1611   1.114   .     S
C1571  O1663   1.409   .     S
C1572  H1614   1.110   .     S
C1572  C1431   1.515   1_655 S
C1572  H1472   1.110   1_655 S
C1573  O1664   1.409   .     S
C1573  H1617   1.115   .     S
C1573  C1575   1.520   .     S
C1573  H1476   1.110   1_655 S
C1574  N1658   1.365   .     A
C1574  C1591   1.420   .     A
C1574  O1660   1.388   .     S
C1575  H1620   1.110   .     S
C1575  H1618   1.110   .     S
C1575  H1479   1.111   1_655 S
C1576  O1665   1.410   .     S
C1576  C1577   1.521   .     S
C1576  H1622   1.116   .     S
C1576  H1481   1.110   1_655 S
C1577  H1624   1.111   .     S
C1577  H1623   1.110   .     S
C1577  H1485   1.110   1_655 S
C1578  O1666   1.415   .     S
C1578  H1627   1.116   .     S
C1578  H1628   1.111   .     S
C1579  H1630   1.109   .     S
C1579  H1631   1.110   .     S
C1579  H1629   1.110   .     S
C1579  C1438   1.521   1_655 S
C1580  H1633   1.111   .     S
C1580  O1667   1.422   .     S
C1580  H1632   1.118   .     S
C1580  C1581   1.516   .     S
C1581  H1636   1.109   .     S
C1581  H1634   1.109   .     S
C1581  H1635   1.111   .     S
C1582  H1638   1.111   .     S
C1582  O1668   1.414   .     S
C1582  C1583   1.521   .     S
C1582  H1639   1.114   .     S
C1583  H1640   1.109   .     S
C1583  H1641   1.110   .     S
C1583  H1642   1.110   .     S
C1584  H1644   1.111   .     S
C1584  H1643   1.116   .     S
C1584  C1586   1.520   .     S
C1584  O1669   1.416   .     S
C1585  C1592   1.424   .     A
C1585  O1661   1.390   .     S
C1585  N1657   1.380   .     A
C1586  H1645   1.111   .     S
C1586  H1647   1.108   .     S
C1586  H1646   1.110   .     S
C1587  H1649   1.111   .     S
C1587  O1671   1.415   .     S
C1587  C1588   1.519   .     S
C1587  H1650   1.112   .     S
C1588  H1652   1.110   .     S
C1588  H1651   1.108   .     S
C1588  H1653   1.111   .     S
C1589  O1662   1.386   .     S
C1589  N1658   1.365   .     A
C1590  H1593   1.082   .     S
C1591  H1604   1.080   .     S
C1592  H1615   1.080   .     S
H1608  C450    1.111   1_556 S
H1610  C1431   1.107   1_655 S
H1613  C452    1.107   1_556 S
H1654  C444    1.111   1_556 S
H1656  C444    1.109   1_556 S
N1657  Zn1680  2.010   .     S
N1658  Zn1679  2.010   .     S
O1659  Zn1679  2.014   .     S
O1670  Zn1680  2.014   .     S
O1672  Zn1679  2.005   .     S
O1673  Zn1680  2.005   .     S
O1674  Zn1679  1.949   .     S
O1675  Zn1680  1.949   .     S
O1676  Zn1679  1.951   .     S
O1677  Zn1680  1.951   .     S
