data_str_m2_o1_o17_pcu_sym.189
_audit_creation_date              2020-01-03
_audit_creation_method            'Materials Studio'
_symmetry_space_group_name_H-M    'P1'
_symmetry_Int_Tables_number       1
_symmetry_cell_setting            triclinic
loop_
_symmetry_equiv_pos_as_xyz
  x,y,z
_cell_length_a                    32.4004
_cell_length_b                    28.5424
_cell_length_c                    30.3456
_cell_angle_alpha                 91.3346
_cell_angle_beta                  90.1746
_cell_angle_gamma                 89.9980
loop_
_atom_site_label
_atom_site_type_symbol
_atom_site_fract_x
_atom_site_fract_y
_atom_site_fract_z
_atom_site_U_iso_or_equiv
_atom_site_adp_type
_atom_site_occupancy
C1     C     0.08753   0.16666   0.24999   0.00000  Uiso   1.00
C2     C     0.24580   0.16668   0.25001   0.00000  Uiso   1.00
C3     C     0.14352   0.08481   0.01902   0.00000  Uiso   1.00
C4     C     0.18982   0.24852   0.48098   0.00000  Uiso   1.00
C5     C     0.02165   0.14387   0.28382   0.00000  Uiso   1.00
C6     C     0.31168   0.18947   0.21618   0.00000  Uiso   1.00
C7     C     0.31186   0.14399   0.28388   0.00000  Uiso   1.00
C8     C     0.02148   0.18935   0.21612   0.00000  Uiso   1.00
C9     C     0.29046   0.16672   0.25003   0.00000  Uiso   1.00
C10    C     0.04287   0.16662   0.24997   0.00000  Uiso   1.00
C11    C     0.13458   0.02433   0.23195   0.00000  Uiso   1.00
C12    C     0.19875   0.30900   0.26805   0.00000  Uiso   1.00
C13    C     0.19867   0.02524   0.26825   0.00000  Uiso   1.00
C14    C     0.13466   0.30810   0.23175   0.00000  Uiso   1.00
C15    C     0.16558   0.16606   0.16430   0.00000  Uiso   1.00
C16    C     0.16775   0.16728   0.33570   0.00000  Uiso   1.00
C17    C     0.18109   0.20883   0.40897   0.00000  Uiso   1.00
C18    C     0.15224   0.12451   0.09103   0.00000  Uiso   1.00
C19    C     0.16887   0.16851   0.38420   0.00000  Uiso   1.00
C20    C     0.16447   0.16482   0.11580   0.00000  Uiso   1.00
C21    C     0.15716   0.12793   0.40583   0.00000  Uiso   1.00
C22    C     0.17617   0.20540   0.09417   0.00000  Uiso   1.00
C23    C     0.15644   0.12640   0.45176   0.00000  Uiso   1.00
C24    C     0.17689   0.20694   0.04824   0.00000  Uiso   1.00
C25    C     0.16728   0.16704   0.47677   0.00000  Uiso   1.00
C26    C     0.16605   0.16629   0.02323   0.00000  Uiso   1.00
C27    C     0.17951   0.20838   0.45541   0.00000  Uiso   1.00
C28    C     0.15383   0.12495   0.04459   0.00000  Uiso   1.00
C29    C     0.14484   0.08516   0.47326   0.00000  Uiso   1.00
C30    C     0.18849   0.24817   0.02674   0.00000  Uiso   1.00
Cu31   Cu    0.16667   0.21355   0.25000   0.00000  Uiso   1.00
Cu32   Cu    0.16667   0.11978   0.25000   0.00000  Uiso   1.00
H33    H     0.10877   0.04252   0.21757   0.00000  Uiso   1.00
H34    H     0.22456   0.29081   0.28243   0.00000  Uiso   1.00
H35    H     0.22426   0.04415   0.28309   0.00000  Uiso   1.00
H36    H     0.10907   0.28919   0.21691   0.00000  Uiso   1.00
N37    N     0.16667   0.28402   0.25000   0.00000  Uiso   1.00
N38    N     0.16667   0.04931   0.25000   0.00000  Uiso   1.00
O39    O     0.10655   0.20625   0.25000   0.00000  Uiso   1.00
O40    O     0.22679   0.12709   0.25001   0.00000  Uiso   1.00
O41    O     0.22679   0.20625   0.25001   0.00000  Uiso   1.00
O42    O     0.10655   0.12709   0.25000   0.00000  Uiso   1.00
O43    O     0.16666   0.20627   0.18513   0.00000  Uiso   1.00
O44    O     0.16668   0.12707   0.31487   0.00000  Uiso   1.00
O45    O     0.16668   0.20627   0.31487   0.00000  Uiso   1.00
O46    O     0.16666   0.12707   0.18513   0.00000  Uiso   1.00
C47    C     0.19669   0.25002   0.38734   0.00000  Uiso   1.00
N48    N     0.20924   0.28308   0.37054   0.00000  Uiso   1.00
C49    C     0.13664   0.08331   0.11267   0.00000  Uiso   1.00
N50    N     0.12410   0.05025   0.12946   0.00000  Uiso   1.00
H51    H     0.14807   0.09732   0.38643   0.00000  Uiso   1.00
H52    H     0.18527   0.23602   0.11357   0.00000  Uiso   1.00
C53    C     0.13425   0.04231   0.44937   0.00000  Uiso   1.00
N54    N     0.12580   0.00803   0.43031   0.00000  Uiso   1.00
C55    C     0.19908   0.29102   0.05063   0.00000  Uiso   1.00
N56    N     0.20753   0.32530   0.06969   0.00000  Uiso   1.00
H57    H     0.13452   0.05252   0.03444   0.00000  Uiso   1.00
H58    H     0.19882   0.28081   0.46556   0.00000  Uiso   1.00
C59    C     0.04412   0.12166   0.31920   0.00000  Uiso   1.00
N60    N     0.06202   0.10398   0.34739   0.00000  Uiso   1.00
C61    C     0.28921   0.21167   0.18080   0.00000  Uiso   1.00
N62    N     0.27131   0.22936   0.15261   0.00000  Uiso   1.00
C63    C     0.28956   0.12227   0.31953   0.00000  Uiso   1.00
N64    N     0.27177   0.10505   0.34794   0.00000  Uiso   1.00
C65    C     0.04378   0.21106   0.18047   0.00000  Uiso   1.00
N66    N     0.06156   0.22828   0.15206   0.00000  Uiso   1.00
C67    C     0.42086   0.16666   0.24999   0.00000  Uiso   1.00
C68    C     0.57914   0.16668   0.25001   0.00000  Uiso   1.00
C69    C     0.47685   0.08481   0.01902   0.00000  Uiso   1.00
C70    C     0.52315   0.24852   0.48098   0.00000  Uiso   1.00
C71    C     0.35498   0.14387   0.28382   0.00000  Uiso   1.00
C72    C     0.64502   0.18947   0.21618   0.00000  Uiso   1.00
C73    C     0.64519   0.14399   0.28388   0.00000  Uiso   1.00
C74    C     0.35481   0.18935   0.21612   0.00000  Uiso   1.00
C75    C     0.62380   0.16672   0.25003   0.00000  Uiso   1.00
C76    C     0.37620   0.16662   0.24997   0.00000  Uiso   1.00
C77    C     0.46791   0.02433   0.23195   0.00000  Uiso   1.00
C78    C     0.53209   0.30900   0.26805   0.00000  Uiso   1.00
C79    C     0.53200   0.02524   0.26825   0.00000  Uiso   1.00
C80    C     0.46800   0.30810   0.23175   0.00000  Uiso   1.00
C81    C     0.49891   0.16606   0.16430   0.00000  Uiso   1.00
C82    C     0.50109   0.16728   0.33570   0.00000  Uiso   1.00
C83    C     0.51443   0.20883   0.40897   0.00000  Uiso   1.00
C84    C     0.48557   0.12451   0.09103   0.00000  Uiso   1.00
C85    C     0.50220   0.16851   0.38420   0.00000  Uiso   1.00
C86    C     0.49780   0.16482   0.11580   0.00000  Uiso   1.00
C87    C     0.49049   0.12793   0.40583   0.00000  Uiso   1.00
C88    C     0.50951   0.20540   0.09417   0.00000  Uiso   1.00
C89    C     0.48977   0.12640   0.45176   0.00000  Uiso   1.00
C90    C     0.51022   0.20694   0.04824   0.00000  Uiso   1.00
C91    C     0.50061   0.16704   0.47677   0.00000  Uiso   1.00
C92    C     0.49939   0.16629   0.02323   0.00000  Uiso   1.00
C93    C     0.51284   0.20838   0.45541   0.00000  Uiso   1.00
C94    C     0.48716   0.12495   0.04459   0.00000  Uiso   1.00
C95    C     0.47817   0.08516   0.47326   0.00000  Uiso   1.00
C96    C     0.52183   0.24817   0.02674   0.00000  Uiso   1.00
Cu97   Cu    0.50000   0.21355   0.25000   0.00000  Uiso   1.00
Cu98   Cu    0.50000   0.11978   0.25000   0.00000  Uiso   1.00
H99    H     0.44211   0.04252   0.21757   0.00000  Uiso   1.00
H100   H     0.55789   0.29081   0.28243   0.00000  Uiso   1.00
H101   H     0.55759   0.04415   0.28309   0.00000  Uiso   1.00
H102   H     0.44241   0.28919   0.21691   0.00000  Uiso   1.00
N103   N     0.50000   0.28402   0.25000   0.00000  Uiso   1.00
N104   N     0.50000   0.04931   0.25000   0.00000  Uiso   1.00
O105   O     0.43988   0.20625   0.25000   0.00000  Uiso   1.00
O106   O     0.56012   0.12709   0.25001   0.00000  Uiso   1.00
O107   O     0.56012   0.20625   0.25001   0.00000  Uiso   1.00
O108   O     0.43988   0.12709   0.25000   0.00000  Uiso   1.00
O109   O     0.49999   0.20627   0.18513   0.00000  Uiso   1.00
O110   O     0.50001   0.12707   0.31487   0.00000  Uiso   1.00
O111   O     0.50001   0.20627   0.31487   0.00000  Uiso   1.00
O112   O     0.49999   0.12707   0.18513   0.00000  Uiso   1.00
C113   C     0.53002   0.25002   0.38734   0.00000  Uiso   1.00
N114   N     0.54257   0.28308   0.37054   0.00000  Uiso   1.00
C115   C     0.46998   0.08331   0.11267   0.00000  Uiso   1.00
N116   N     0.45744   0.05025   0.12946   0.00000  Uiso   1.00
H117   H     0.48140   0.09732   0.38643   0.00000  Uiso   1.00
H118   H     0.51860   0.23602   0.11357   0.00000  Uiso   1.00
C119   C     0.46758   0.04231   0.44937   0.00000  Uiso   1.00
N120   N     0.45913   0.00803   0.43031   0.00000  Uiso   1.00
C121   C     0.53242   0.29102   0.05063   0.00000  Uiso   1.00
N122   N     0.54087   0.32530   0.06969   0.00000  Uiso   1.00
H123   H     0.46785   0.05252   0.03444   0.00000  Uiso   1.00
H124   H     0.53215   0.28081   0.46556   0.00000  Uiso   1.00
C125   C     0.37745   0.12166   0.31920   0.00000  Uiso   1.00
N126   N     0.39536   0.10398   0.34739   0.00000  Uiso   1.00
C127   C     0.62255   0.21167   0.18080   0.00000  Uiso   1.00
N128   N     0.60464   0.22936   0.15261   0.00000  Uiso   1.00
C129   C     0.62289   0.12227   0.31953   0.00000  Uiso   1.00
N130   N     0.60510   0.10505   0.34794   0.00000  Uiso   1.00
C131   C     0.37711   0.21106   0.18047   0.00000  Uiso   1.00
N132   N     0.39490   0.22828   0.15206   0.00000  Uiso   1.00
C133   C     0.75419   0.16666   0.24999   0.00000  Uiso   1.00
C134   C     0.91247   0.16668   0.25001   0.00000  Uiso   1.00
C135   C     0.81018   0.08481   0.01902   0.00000  Uiso   1.00
C136   C     0.85648   0.24852   0.48098   0.00000  Uiso   1.00
C137   C     0.68831   0.14387   0.28382   0.00000  Uiso   1.00
C138   C     0.97835   0.18947   0.21618   0.00000  Uiso   1.00
C139   C     0.97852   0.14399   0.28388   0.00000  Uiso   1.00
C140   C     0.68814   0.18935   0.21612   0.00000  Uiso   1.00
C141   C     0.95713   0.16672   0.25003   0.00000  Uiso   1.00
C142   C     0.70954   0.16662   0.24997   0.00000  Uiso   1.00
C143   C     0.80125   0.02433   0.23195   0.00000  Uiso   1.00
C144   C     0.86542   0.30900   0.26805   0.00000  Uiso   1.00
C145   C     0.86534   0.02524   0.26825   0.00000  Uiso   1.00
C146   C     0.80133   0.30810   0.23175   0.00000  Uiso   1.00
C147   C     0.83225   0.16606   0.16430   0.00000  Uiso   1.00
C148   C     0.83442   0.16728   0.33570   0.00000  Uiso   1.00
C149   C     0.84776   0.20883   0.40897   0.00000  Uiso   1.00
C150   C     0.81891   0.12451   0.09103   0.00000  Uiso   1.00
C151   C     0.83553   0.16851   0.38420   0.00000  Uiso   1.00
C152   C     0.83113   0.16482   0.11580   0.00000  Uiso   1.00
C153   C     0.82383   0.12793   0.40583   0.00000  Uiso   1.00
C154   C     0.84284   0.20540   0.09417   0.00000  Uiso   1.00
C155   C     0.82311   0.12640   0.45176   0.00000  Uiso   1.00
C156   C     0.84356   0.20694   0.04824   0.00000  Uiso   1.00
C157   C     0.83395   0.16704   0.47677   0.00000  Uiso   1.00
C158   C     0.83272   0.16629   0.02323   0.00000  Uiso   1.00
C159   C     0.84617   0.20838   0.45541   0.00000  Uiso   1.00
C160   C     0.82049   0.12495   0.04459   0.00000  Uiso   1.00
C161   C     0.81150   0.08516   0.47326   0.00000  Uiso   1.00
C162   C     0.85516   0.24817   0.02674   0.00000  Uiso   1.00
Cu163  Cu    0.83333   0.21355   0.25000   0.00000  Uiso   1.00
Cu164  Cu    0.83333   0.11978   0.25000   0.00000  Uiso   1.00
H165   H     0.77544   0.04252   0.21757   0.00000  Uiso   1.00
H166   H     0.89123   0.29081   0.28243   0.00000  Uiso   1.00
H167   H     0.89093   0.04415   0.28309   0.00000  Uiso   1.00
H168   H     0.77574   0.28919   0.21691   0.00000  Uiso   1.00
N169   N     0.83333   0.28402   0.25000   0.00000  Uiso   1.00
N170   N     0.83333   0.04931   0.25000   0.00000  Uiso   1.00
O171   O     0.77321   0.20625   0.25000   0.00000  Uiso   1.00
O172   O     0.89345   0.12709   0.25001   0.00000  Uiso   1.00
O173   O     0.89345   0.20625   0.25001   0.00000  Uiso   1.00
O174   O     0.77321   0.12709   0.25000   0.00000  Uiso   1.00
O175   O     0.83332   0.20627   0.18513   0.00000  Uiso   1.00
O176   O     0.83334   0.12707   0.31487   0.00000  Uiso   1.00
O177   O     0.83334   0.20627   0.31487   0.00000  Uiso   1.00
O178   O     0.83332   0.12707   0.18513   0.00000  Uiso   1.00
C179   C     0.86336   0.25002   0.38734   0.00000  Uiso   1.00
N180   N     0.87590   0.28308   0.37054   0.00000  Uiso   1.00
C181   C     0.80331   0.08331   0.11267   0.00000  Uiso   1.00
N182   N     0.79077   0.05025   0.12946   0.00000  Uiso   1.00
H183   H     0.81473   0.09732   0.38643   0.00000  Uiso   1.00
H184   H     0.85193   0.23602   0.11357   0.00000  Uiso   1.00
C185   C     0.80092   0.04231   0.44937   0.00000  Uiso   1.00
N186   N     0.79246   0.00803   0.43031   0.00000  Uiso   1.00
C187   C     0.86575   0.29102   0.05063   0.00000  Uiso   1.00
N188   N     0.87420   0.32530   0.06969   0.00000  Uiso   1.00
H189   H     0.80118   0.05252   0.03444   0.00000  Uiso   1.00
H190   H     0.86548   0.28081   0.46556   0.00000  Uiso   1.00
C191   C     0.71079   0.12166   0.31920   0.00000  Uiso   1.00
N192   N     0.72869   0.10398   0.34739   0.00000  Uiso   1.00
C193   C     0.95588   0.21167   0.18080   0.00000  Uiso   1.00
N194   N     0.93798   0.22936   0.15261   0.00000  Uiso   1.00
C195   C     0.95622   0.12227   0.31953   0.00000  Uiso   1.00
N196   N     0.93844   0.10505   0.34794   0.00000  Uiso   1.00
C197   C     0.71044   0.21106   0.18047   0.00000  Uiso   1.00
N198   N     0.72823   0.22828   0.15206   0.00000  Uiso   1.00
C199   C     0.08753   0.49999   0.24999   0.00000  Uiso   1.00
C200   C     0.24580   0.50001   0.25001   0.00000  Uiso   1.00
C201   C     0.14352   0.41815   0.01902   0.00000  Uiso   1.00
C202   C     0.18982   0.58186   0.48098   0.00000  Uiso   1.00
C203   C     0.02165   0.47720   0.28382   0.00000  Uiso   1.00
C204   C     0.31168   0.52280   0.21618   0.00000  Uiso   1.00
C205   C     0.31186   0.47732   0.28388   0.00000  Uiso   1.00
C206   C     0.02148   0.52268   0.21612   0.00000  Uiso   1.00
C207   C     0.29046   0.50005   0.25003   0.00000  Uiso   1.00
C208   C     0.04287   0.49995   0.24997   0.00000  Uiso   1.00
C209   C     0.13458   0.35766   0.23195   0.00000  Uiso   1.00
C210   C     0.19875   0.64234   0.26805   0.00000  Uiso   1.00
C211   C     0.19867   0.35857   0.26825   0.00000  Uiso   1.00
C212   C     0.13466   0.64143   0.23175   0.00000  Uiso   1.00
C213   C     0.16558   0.49939   0.16430   0.00000  Uiso   1.00
C214   C     0.16775   0.50061   0.33570   0.00000  Uiso   1.00
C215   C     0.18109   0.54216   0.40897   0.00000  Uiso   1.00
C216   C     0.15224   0.45784   0.09103   0.00000  Uiso   1.00
C217   C     0.16887   0.50184   0.38420   0.00000  Uiso   1.00
C218   C     0.16447   0.49816   0.11580   0.00000  Uiso   1.00
C219   C     0.15716   0.46127   0.40583   0.00000  Uiso   1.00
C220   C     0.17617   0.53873   0.09417   0.00000  Uiso   1.00
C221   C     0.15644   0.45973   0.45176   0.00000  Uiso   1.00
C222   C     0.17689   0.54027   0.04824   0.00000  Uiso   1.00
C223   C     0.16728   0.50037   0.47677   0.00000  Uiso   1.00
C224   C     0.16605   0.49963   0.02323   0.00000  Uiso   1.00
C225   C     0.17951   0.54172   0.45541   0.00000  Uiso   1.00
C226   C     0.15383   0.45828   0.04459   0.00000  Uiso   1.00
C227   C     0.14484   0.41850   0.47326   0.00000  Uiso   1.00
C228   C     0.18849   0.58150   0.02674   0.00000  Uiso   1.00
Cu229  Cu    0.16667   0.54689   0.25000   0.00000  Uiso   1.00
Cu230  Cu    0.16667   0.45311   0.25000   0.00000  Uiso   1.00
H231   H     0.10877   0.37586   0.21757   0.00000  Uiso   1.00
H232   H     0.22456   0.62414   0.28243   0.00000  Uiso   1.00
H233   H     0.22426   0.37748   0.28309   0.00000  Uiso   1.00
H234   H     0.10907   0.62252   0.21691   0.00000  Uiso   1.00
N235   N     0.16667   0.61736   0.25000   0.00000  Uiso   1.00
N236   N     0.16667   0.38264   0.25000   0.00000  Uiso   1.00
O237   O     0.10655   0.53958   0.25000   0.00000  Uiso   1.00
O238   O     0.22679   0.46042   0.25001   0.00000  Uiso   1.00
O239   O     0.22679   0.53958   0.25001   0.00000  Uiso   1.00
O240   O     0.10655   0.46042   0.25000   0.00000  Uiso   1.00
O241   O     0.16666   0.53960   0.18513   0.00000  Uiso   1.00
O242   O     0.16668   0.46040   0.31487   0.00000  Uiso   1.00
O243   O     0.16668   0.53960   0.31487   0.00000  Uiso   1.00
O244   O     0.16666   0.46040   0.18513   0.00000  Uiso   1.00
C245   C     0.19669   0.58336   0.38734   0.00000  Uiso   1.00
N246   N     0.20924   0.61641   0.37054   0.00000  Uiso   1.00
C247   C     0.13664   0.41664   0.11267   0.00000  Uiso   1.00
N248   N     0.12410   0.38358   0.12946   0.00000  Uiso   1.00
H249   H     0.14807   0.43065   0.38643   0.00000  Uiso   1.00
H250   H     0.18527   0.56935   0.11357   0.00000  Uiso   1.00
C251   C     0.13425   0.37565   0.44937   0.00000  Uiso   1.00
N252   N     0.12580   0.34137   0.43031   0.00000  Uiso   1.00
C253   C     0.19908   0.62435   0.05063   0.00000  Uiso   1.00
N254   N     0.20753   0.65863   0.06969   0.00000  Uiso   1.00
H255   H     0.13452   0.38586   0.03444   0.00000  Uiso   1.00
H256   H     0.19882   0.61415   0.46556   0.00000  Uiso   1.00
C257   C     0.04412   0.45499   0.31920   0.00000  Uiso   1.00
N258   N     0.06202   0.43731   0.34739   0.00000  Uiso   1.00
C259   C     0.28921   0.54501   0.18080   0.00000  Uiso   1.00
N260   N     0.27131   0.56269   0.15261   0.00000  Uiso   1.00
C261   C     0.28956   0.45561   0.31953   0.00000  Uiso   1.00
N262   N     0.27177   0.43838   0.34794   0.00000  Uiso   1.00
C263   C     0.04378   0.54439   0.18047   0.00000  Uiso   1.00
N264   N     0.06156   0.56162   0.15206   0.00000  Uiso   1.00
C265   C     0.42086   0.49999   0.24999   0.00000  Uiso   1.00
C266   C     0.57914   0.50001   0.25001   0.00000  Uiso   1.00
C267   C     0.47685   0.41815   0.01902   0.00000  Uiso   1.00
C268   C     0.52315   0.58186   0.48098   0.00000  Uiso   1.00
C269   C     0.35498   0.47720   0.28382   0.00000  Uiso   1.00
C270   C     0.64502   0.52280   0.21618   0.00000  Uiso   1.00
C271   C     0.64519   0.47732   0.28388   0.00000  Uiso   1.00
C272   C     0.35481   0.52268   0.21612   0.00000  Uiso   1.00
C273   C     0.62380   0.50005   0.25003   0.00000  Uiso   1.00
C274   C     0.37620   0.49995   0.24997   0.00000  Uiso   1.00
C275   C     0.46791   0.35766   0.23195   0.00000  Uiso   1.00
C276   C     0.53209   0.64234   0.26805   0.00000  Uiso   1.00
C277   C     0.53200   0.35857   0.26825   0.00000  Uiso   1.00
C278   C     0.46800   0.64143   0.23175   0.00000  Uiso   1.00
C279   C     0.49891   0.49939   0.16430   0.00000  Uiso   1.00
C280   C     0.50109   0.50061   0.33570   0.00000  Uiso   1.00
C281   C     0.51443   0.54216   0.40897   0.00000  Uiso   1.00
C282   C     0.48557   0.45784   0.09103   0.00000  Uiso   1.00
C283   C     0.50220   0.50184   0.38420   0.00000  Uiso   1.00
C284   C     0.49780   0.49816   0.11580   0.00000  Uiso   1.00
C285   C     0.49049   0.46127   0.40583   0.00000  Uiso   1.00
C286   C     0.50951   0.53873   0.09417   0.00000  Uiso   1.00
C287   C     0.48977   0.45973   0.45176   0.00000  Uiso   1.00
C288   C     0.51022   0.54027   0.04824   0.00000  Uiso   1.00
C289   C     0.50061   0.50037   0.47677   0.00000  Uiso   1.00
C290   C     0.49939   0.49963   0.02323   0.00000  Uiso   1.00
C291   C     0.51284   0.54172   0.45541   0.00000  Uiso   1.00
C292   C     0.48716   0.45828   0.04459   0.00000  Uiso   1.00
C293   C     0.47817   0.41850   0.47326   0.00000  Uiso   1.00
C294   C     0.52183   0.58150   0.02674   0.00000  Uiso   1.00
Cu295  Cu    0.50000   0.54689   0.25000   0.00000  Uiso   1.00
Cu296  Cu    0.50000   0.45311   0.25000   0.00000  Uiso   1.00
H297   H     0.44211   0.37586   0.21757   0.00000  Uiso   1.00
H298   H     0.55789   0.62414   0.28243   0.00000  Uiso   1.00
H299   H     0.55759   0.37748   0.28309   0.00000  Uiso   1.00
H300   H     0.44241   0.62252   0.21691   0.00000  Uiso   1.00
N301   N     0.50000   0.61736   0.25000   0.00000  Uiso   1.00
N302   N     0.50000   0.38264   0.25000   0.00000  Uiso   1.00
O303   O     0.43988   0.53958   0.25000   0.00000  Uiso   1.00
O304   O     0.56012   0.46042   0.25001   0.00000  Uiso   1.00
O305   O     0.56012   0.53958   0.25001   0.00000  Uiso   1.00
O306   O     0.43988   0.46042   0.25000   0.00000  Uiso   1.00
O307   O     0.49999   0.53960   0.18513   0.00000  Uiso   1.00
O308   O     0.50001   0.46040   0.31487   0.00000  Uiso   1.00
O309   O     0.50001   0.53960   0.31487   0.00000  Uiso   1.00
O310   O     0.49999   0.46040   0.18513   0.00000  Uiso   1.00
C311   C     0.53002   0.58336   0.38734   0.00000  Uiso   1.00
N312   N     0.54257   0.61641   0.37054   0.00000  Uiso   1.00
C313   C     0.46998   0.41664   0.11267   0.00000  Uiso   1.00
N314   N     0.45744   0.38358   0.12946   0.00000  Uiso   1.00
H315   H     0.48140   0.43065   0.38643   0.00000  Uiso   1.00
H316   H     0.51860   0.56935   0.11357   0.00000  Uiso   1.00
C317   C     0.46758   0.37565   0.44937   0.00000  Uiso   1.00
N318   N     0.45913   0.34137   0.43031   0.00000  Uiso   1.00
C319   C     0.53242   0.62435   0.05063   0.00000  Uiso   1.00
N320   N     0.54087   0.65863   0.06969   0.00000  Uiso   1.00
H321   H     0.46785   0.38586   0.03444   0.00000  Uiso   1.00
H322   H     0.53215   0.61415   0.46556   0.00000  Uiso   1.00
C323   C     0.37745   0.45499   0.31920   0.00000  Uiso   1.00
N324   N     0.39536   0.43731   0.34739   0.00000  Uiso   1.00
C325   C     0.62255   0.54501   0.18080   0.00000  Uiso   1.00
N326   N     0.60464   0.56269   0.15261   0.00000  Uiso   1.00
C327   C     0.62289   0.45561   0.31953   0.00000  Uiso   1.00
N328   N     0.60510   0.43838   0.34794   0.00000  Uiso   1.00
C329   C     0.37711   0.54439   0.18047   0.00000  Uiso   1.00
N330   N     0.39490   0.56162   0.15206   0.00000  Uiso   1.00
C331   C     0.75419   0.49999   0.24999   0.00000  Uiso   1.00
C332   C     0.91247   0.50001   0.25001   0.00000  Uiso   1.00
C333   C     0.81018   0.41815   0.01902   0.00000  Uiso   1.00
C334   C     0.85648   0.58186   0.48098   0.00000  Uiso   1.00
C335   C     0.68831   0.47720   0.28382   0.00000  Uiso   1.00
C336   C     0.97835   0.52280   0.21618   0.00000  Uiso   1.00
C337   C     0.97852   0.47732   0.28388   0.00000  Uiso   1.00
C338   C     0.68814   0.52268   0.21612   0.00000  Uiso   1.00
C339   C     0.95713   0.50005   0.25003   0.00000  Uiso   1.00
C340   C     0.70954   0.49995   0.24997   0.00000  Uiso   1.00
C341   C     0.80125   0.35766   0.23195   0.00000  Uiso   1.00
C342   C     0.86542   0.64234   0.26805   0.00000  Uiso   1.00
C343   C     0.86534   0.35857   0.26825   0.00000  Uiso   1.00
C344   C     0.80133   0.64143   0.23175   0.00000  Uiso   1.00
C345   C     0.83225   0.49939   0.16430   0.00000  Uiso   1.00
C346   C     0.83442   0.50061   0.33570   0.00000  Uiso   1.00
C347   C     0.84776   0.54216   0.40897   0.00000  Uiso   1.00
C348   C     0.81891   0.45784   0.09103   0.00000  Uiso   1.00
C349   C     0.83553   0.50184   0.38420   0.00000  Uiso   1.00
C350   C     0.83113   0.49816   0.11580   0.00000  Uiso   1.00
C351   C     0.82383   0.46127   0.40583   0.00000  Uiso   1.00
C352   C     0.84284   0.53873   0.09417   0.00000  Uiso   1.00
C353   C     0.82311   0.45973   0.45176   0.00000  Uiso   1.00
C354   C     0.84356   0.54027   0.04824   0.00000  Uiso   1.00
C355   C     0.83395   0.50037   0.47677   0.00000  Uiso   1.00
C356   C     0.83272   0.49963   0.02323   0.00000  Uiso   1.00
C357   C     0.84617   0.54172   0.45541   0.00000  Uiso   1.00
C358   C     0.82049   0.45828   0.04459   0.00000  Uiso   1.00
C359   C     0.81150   0.41850   0.47326   0.00000  Uiso   1.00
C360   C     0.85516   0.58150   0.02674   0.00000  Uiso   1.00
Cu361  Cu    0.83333   0.54689   0.25000   0.00000  Uiso   1.00
Cu362  Cu    0.83333   0.45311   0.25000   0.00000  Uiso   1.00
H363   H     0.77544   0.37586   0.21757   0.00000  Uiso   1.00
H364   H     0.89123   0.62414   0.28243   0.00000  Uiso   1.00
H365   H     0.89093   0.37748   0.28309   0.00000  Uiso   1.00
H366   H     0.77574   0.62252   0.21691   0.00000  Uiso   1.00
N367   N     0.83333   0.61736   0.25000   0.00000  Uiso   1.00
N368   N     0.83333   0.38264   0.25000   0.00000  Uiso   1.00
O369   O     0.77321   0.53958   0.25000   0.00000  Uiso   1.00
O370   O     0.89345   0.46042   0.25001   0.00000  Uiso   1.00
O371   O     0.89345   0.53958   0.25001   0.00000  Uiso   1.00
O372   O     0.77321   0.46042   0.25000   0.00000  Uiso   1.00
O373   O     0.83332   0.53960   0.18513   0.00000  Uiso   1.00
O374   O     0.83334   0.46040   0.31487   0.00000  Uiso   1.00
O375   O     0.83334   0.53960   0.31487   0.00000  Uiso   1.00
O376   O     0.83332   0.46040   0.18513   0.00000  Uiso   1.00
C377   C     0.86336   0.58336   0.38734   0.00000  Uiso   1.00
N378   N     0.87590   0.61641   0.37054   0.00000  Uiso   1.00
C379   C     0.80331   0.41664   0.11267   0.00000  Uiso   1.00
N380   N     0.79077   0.38358   0.12946   0.00000  Uiso   1.00
H381   H     0.81473   0.43065   0.38643   0.00000  Uiso   1.00
H382   H     0.85193   0.56935   0.11357   0.00000  Uiso   1.00
C383   C     0.80092   0.37565   0.44937   0.00000  Uiso   1.00
N384   N     0.79246   0.34137   0.43031   0.00000  Uiso   1.00
C385   C     0.86575   0.62435   0.05063   0.00000  Uiso   1.00
N386   N     0.87420   0.65863   0.06969   0.00000  Uiso   1.00
H387   H     0.80118   0.38586   0.03444   0.00000  Uiso   1.00
H388   H     0.86548   0.61415   0.46556   0.00000  Uiso   1.00
C389   C     0.71079   0.45499   0.31920   0.00000  Uiso   1.00
N390   N     0.72869   0.43731   0.34739   0.00000  Uiso   1.00
C391   C     0.95588   0.54501   0.18080   0.00000  Uiso   1.00
N392   N     0.93798   0.56269   0.15261   0.00000  Uiso   1.00
C393   C     0.95622   0.45561   0.31953   0.00000  Uiso   1.00
N394   N     0.93844   0.43838   0.34794   0.00000  Uiso   1.00
C395   C     0.71044   0.54439   0.18047   0.00000  Uiso   1.00
N396   N     0.72823   0.56162   0.15206   0.00000  Uiso   1.00
C397   C     0.08753   0.83332   0.24999   0.00000  Uiso   1.00
C398   C     0.24580   0.83334   0.25001   0.00000  Uiso   1.00
C399   C     0.14352   0.75148   0.01902   0.00000  Uiso   1.00
C400   C     0.18982   0.91519   0.48098   0.00000  Uiso   1.00
C401   C     0.02165   0.81053   0.28382   0.00000  Uiso   1.00
C402   C     0.31168   0.85613   0.21618   0.00000  Uiso   1.00
C403   C     0.31186   0.81065   0.28388   0.00000  Uiso   1.00
C404   C     0.02148   0.85601   0.21612   0.00000  Uiso   1.00
C405   C     0.29046   0.83338   0.25003   0.00000  Uiso   1.00
C406   C     0.04287   0.83328   0.24997   0.00000  Uiso   1.00
C407   C     0.13458   0.69100   0.23195   0.00000  Uiso   1.00
C408   C     0.19875   0.97567   0.26805   0.00000  Uiso   1.00
C409   C     0.19867   0.69190   0.26825   0.00000  Uiso   1.00
C410   C     0.13466   0.97476   0.23175   0.00000  Uiso   1.00
C411   C     0.16558   0.83272   0.16430   0.00000  Uiso   1.00
C412   C     0.16775   0.83394   0.33570   0.00000  Uiso   1.00
C413   C     0.18109   0.87549   0.40897   0.00000  Uiso   1.00
C414   C     0.15224   0.79117   0.09103   0.00000  Uiso   1.00
C415   C     0.16887   0.83518   0.38420   0.00000  Uiso   1.00
C416   C     0.16447   0.83149   0.11580   0.00000  Uiso   1.00
C417   C     0.15716   0.79460   0.40583   0.00000  Uiso   1.00
C418   C     0.17617   0.87207   0.09417   0.00000  Uiso   1.00
C419   C     0.15644   0.79306   0.45176   0.00000  Uiso   1.00
C420   C     0.17689   0.87360   0.04824   0.00000  Uiso   1.00
C421   C     0.16728   0.83371   0.47677   0.00000  Uiso   1.00
C422   C     0.16605   0.83296   0.02323   0.00000  Uiso   1.00
C423   C     0.17951   0.87505   0.45541   0.00000  Uiso   1.00
C424   C     0.15383   0.79162   0.04459   0.00000  Uiso   1.00
C425   C     0.14484   0.75183   0.47326   0.00000  Uiso   1.00
C426   C     0.18849   0.91484   0.02674   0.00000  Uiso   1.00
Cu427  Cu    0.16667   0.88022   0.25000   0.00000  Uiso   1.00
Cu428  Cu    0.16667   0.78645   0.25000   0.00000  Uiso   1.00
H429   H     0.10877   0.70919   0.21757   0.00000  Uiso   1.00
H430   H     0.22456   0.95748   0.28243   0.00000  Uiso   1.00
H431   H     0.22426   0.71081   0.28309   0.00000  Uiso   1.00
H432   H     0.10907   0.95585   0.21691   0.00000  Uiso   1.00
N433   N     0.16667   0.95069   0.25000   0.00000  Uiso   1.00
N434   N     0.16667   0.71598   0.25000   0.00000  Uiso   1.00
O435   O     0.10655   0.87291   0.25000   0.00000  Uiso   1.00
O436   O     0.22679   0.79375   0.25001   0.00000  Uiso   1.00
O437   O     0.22679   0.87291   0.25001   0.00000  Uiso   1.00
O438   O     0.10655   0.79375   0.25000   0.00000  Uiso   1.00
O439   O     0.16666   0.87293   0.18513   0.00000  Uiso   1.00
O440   O     0.16668   0.79373   0.31487   0.00000  Uiso   1.00
O441   O     0.16668   0.87293   0.31487   0.00000  Uiso   1.00
O442   O     0.16666   0.79373   0.18513   0.00000  Uiso   1.00
C443   C     0.19669   0.91669   0.38734   0.00000  Uiso   1.00
N444   N     0.20924   0.94975   0.37054   0.00000  Uiso   1.00
C445   C     0.13664   0.74997   0.11267   0.00000  Uiso   1.00
N446   N     0.12410   0.71692   0.12946   0.00000  Uiso   1.00
H447   H     0.14807   0.76398   0.38643   0.00000  Uiso   1.00
H448   H     0.18527   0.90269   0.11357   0.00000  Uiso   1.00
C449   C     0.13425   0.70898   0.44937   0.00000  Uiso   1.00
N450   N     0.12580   0.67470   0.43031   0.00000  Uiso   1.00
C451   C     0.19908   0.95769   0.05063   0.00000  Uiso   1.00
N452   N     0.20753   0.99197   0.06969   0.00000  Uiso   1.00
H453   H     0.13452   0.71919   0.03444   0.00000  Uiso   1.00
H454   H     0.19882   0.94748   0.46556   0.00000  Uiso   1.00
C455   C     0.04412   0.78833   0.31920   0.00000  Uiso   1.00
N456   N     0.06202   0.77064   0.34739   0.00000  Uiso   1.00
C457   C     0.28921   0.87834   0.18080   0.00000  Uiso   1.00
N458   N     0.27131   0.89602   0.15261   0.00000  Uiso   1.00
C459   C     0.28956   0.78894   0.31953   0.00000  Uiso   1.00
N460   N     0.27177   0.77172   0.34794   0.00000  Uiso   1.00
C461   C     0.04378   0.87773   0.18047   0.00000  Uiso   1.00
N462   N     0.06156   0.89495   0.15206   0.00000  Uiso   1.00
C463   C     0.42086   0.83332   0.24999   0.00000  Uiso   1.00
C464   C     0.57914   0.83334   0.25001   0.00000  Uiso   1.00
C465   C     0.47685   0.75148   0.01902   0.00000  Uiso   1.00
C466   C     0.52315   0.91519   0.48098   0.00000  Uiso   1.00
C467   C     0.35498   0.81053   0.28382   0.00000  Uiso   1.00
C468   C     0.64502   0.85613   0.21618   0.00000  Uiso   1.00
C469   C     0.64519   0.81065   0.28388   0.00000  Uiso   1.00
C470   C     0.35481   0.85601   0.21612   0.00000  Uiso   1.00
C471   C     0.62380   0.83338   0.25003   0.00000  Uiso   1.00
C472   C     0.37620   0.83328   0.24997   0.00000  Uiso   1.00
C473   C     0.46791   0.69100   0.23195   0.00000  Uiso   1.00
C474   C     0.53209   0.97567   0.26805   0.00000  Uiso   1.00
C475   C     0.53200   0.69190   0.26825   0.00000  Uiso   1.00
C476   C     0.46800   0.97476   0.23175   0.00000  Uiso   1.00
C477   C     0.49891   0.83272   0.16430   0.00000  Uiso   1.00
C478   C     0.50109   0.83394   0.33570   0.00000  Uiso   1.00
C479   C     0.51443   0.87549   0.40897   0.00000  Uiso   1.00
C480   C     0.48557   0.79117   0.09103   0.00000  Uiso   1.00
C481   C     0.50220   0.83518   0.38420   0.00000  Uiso   1.00
C482   C     0.49780   0.83149   0.11580   0.00000  Uiso   1.00
C483   C     0.49049   0.79460   0.40583   0.00000  Uiso   1.00
C484   C     0.50951   0.87207   0.09417   0.00000  Uiso   1.00
C485   C     0.48977   0.79306   0.45176   0.00000  Uiso   1.00
C486   C     0.51022   0.87360   0.04824   0.00000  Uiso   1.00
C487   C     0.50061   0.83371   0.47677   0.00000  Uiso   1.00
C488   C     0.49939   0.83296   0.02323   0.00000  Uiso   1.00
C489   C     0.51284   0.87505   0.45541   0.00000  Uiso   1.00
C490   C     0.48716   0.79162   0.04459   0.00000  Uiso   1.00
C491   C     0.47817   0.75183   0.47326   0.00000  Uiso   1.00
C492   C     0.52183   0.91484   0.02674   0.00000  Uiso   1.00
Cu493  Cu    0.50000   0.88022   0.25000   0.00000  Uiso   1.00
Cu494  Cu    0.50000   0.78645   0.25000   0.00000  Uiso   1.00
H495   H     0.44211   0.70919   0.21757   0.00000  Uiso   1.00
H496   H     0.55789   0.95748   0.28243   0.00000  Uiso   1.00
H497   H     0.55759   0.71081   0.28309   0.00000  Uiso   1.00
H498   H     0.44241   0.95585   0.21691   0.00000  Uiso   1.00
N499   N     0.50000   0.95069   0.25000   0.00000  Uiso   1.00
N500   N     0.50000   0.71598   0.25000   0.00000  Uiso   1.00
O501   O     0.43988   0.87291   0.25000   0.00000  Uiso   1.00
O502   O     0.56012   0.79375   0.25001   0.00000  Uiso   1.00
O503   O     0.56012   0.87291   0.25001   0.00000  Uiso   1.00
O504   O     0.43988   0.79375   0.25000   0.00000  Uiso   1.00
O505   O     0.49999   0.87293   0.18513   0.00000  Uiso   1.00
O506   O     0.50001   0.79373   0.31487   0.00000  Uiso   1.00
O507   O     0.50001   0.87293   0.31487   0.00000  Uiso   1.00
O508   O     0.49999   0.79373   0.18513   0.00000  Uiso   1.00
C509   C     0.53002   0.91669   0.38734   0.00000  Uiso   1.00
N510   N     0.54257   0.94975   0.37054   0.00000  Uiso   1.00
C511   C     0.46998   0.74997   0.11267   0.00000  Uiso   1.00
N512   N     0.45744   0.71692   0.12946   0.00000  Uiso   1.00
H513   H     0.48140   0.76398   0.38643   0.00000  Uiso   1.00
H514   H     0.51860   0.90269   0.11357   0.00000  Uiso   1.00
C515   C     0.46758   0.70898   0.44937   0.00000  Uiso   1.00
N516   N     0.45913   0.67470   0.43031   0.00000  Uiso   1.00
C517   C     0.53242   0.95769   0.05063   0.00000  Uiso   1.00
N518   N     0.54087   0.99197   0.06969   0.00000  Uiso   1.00
H519   H     0.46785   0.71919   0.03444   0.00000  Uiso   1.00
H520   H     0.53215   0.94748   0.46556   0.00000  Uiso   1.00
C521   C     0.37745   0.78833   0.31920   0.00000  Uiso   1.00
N522   N     0.39536   0.77064   0.34739   0.00000  Uiso   1.00
C523   C     0.62255   0.87834   0.18080   0.00000  Uiso   1.00
N524   N     0.60464   0.89602   0.15261   0.00000  Uiso   1.00
C525   C     0.62289   0.78894   0.31953   0.00000  Uiso   1.00
N526   N     0.60510   0.77172   0.34794   0.00000  Uiso   1.00
C527   C     0.37711   0.87773   0.18047   0.00000  Uiso   1.00
N528   N     0.39490   0.89495   0.15206   0.00000  Uiso   1.00
C529   C     0.75419   0.83332   0.24999   0.00000  Uiso   1.00
C530   C     0.91247   0.83334   0.25001   0.00000  Uiso   1.00
C531   C     0.81018   0.75148   0.01902   0.00000  Uiso   1.00
C532   C     0.85648   0.91519   0.48098   0.00000  Uiso   1.00
C533   C     0.68831   0.81053   0.28382   0.00000  Uiso   1.00
C534   C     0.97835   0.85613   0.21618   0.00000  Uiso   1.00
C535   C     0.97852   0.81065   0.28388   0.00000  Uiso   1.00
C536   C     0.68814   0.85601   0.21612   0.00000  Uiso   1.00
C537   C     0.95713   0.83338   0.25003   0.00000  Uiso   1.00
C538   C     0.70954   0.83328   0.24997   0.00000  Uiso   1.00
C539   C     0.80125   0.69100   0.23195   0.00000  Uiso   1.00
C540   C     0.86542   0.97567   0.26805   0.00000  Uiso   1.00
C541   C     0.86534   0.69190   0.26825   0.00000  Uiso   1.00
C542   C     0.80133   0.97476   0.23175   0.00000  Uiso   1.00
C543   C     0.83225   0.83272   0.16430   0.00000  Uiso   1.00
C544   C     0.83442   0.83394   0.33570   0.00000  Uiso   1.00
C545   C     0.84776   0.87549   0.40897   0.00000  Uiso   1.00
C546   C     0.81891   0.79117   0.09103   0.00000  Uiso   1.00
C547   C     0.83553   0.83518   0.38420   0.00000  Uiso   1.00
C548   C     0.83113   0.83149   0.11580   0.00000  Uiso   1.00
C549   C     0.82383   0.79460   0.40583   0.00000  Uiso   1.00
C550   C     0.84284   0.87207   0.09417   0.00000  Uiso   1.00
C551   C     0.82311   0.79306   0.45176   0.00000  Uiso   1.00
C552   C     0.84356   0.87360   0.04824   0.00000  Uiso   1.00
C553   C     0.83395   0.83371   0.47677   0.00000  Uiso   1.00
C554   C     0.83272   0.83296   0.02323   0.00000  Uiso   1.00
C555   C     0.84617   0.87505   0.45541   0.00000  Uiso   1.00
C556   C     0.82049   0.79162   0.04459   0.00000  Uiso   1.00
C557   C     0.81150   0.75183   0.47326   0.00000  Uiso   1.00
C558   C     0.85516   0.91484   0.02674   0.00000  Uiso   1.00
Cu559  Cu    0.83333   0.88022   0.25000   0.00000  Uiso   1.00
Cu560  Cu    0.83333   0.78645   0.25000   0.00000  Uiso   1.00
H561   H     0.77544   0.70919   0.21757   0.00000  Uiso   1.00
H562   H     0.89123   0.95748   0.28243   0.00000  Uiso   1.00
H563   H     0.89093   0.71081   0.28309   0.00000  Uiso   1.00
H564   H     0.77574   0.95585   0.21691   0.00000  Uiso   1.00
N565   N     0.83333   0.95069   0.25000   0.00000  Uiso   1.00
N566   N     0.83333   0.71598   0.25000   0.00000  Uiso   1.00
O567   O     0.77321   0.87291   0.25000   0.00000  Uiso   1.00
O568   O     0.89345   0.79375   0.25001   0.00000  Uiso   1.00
O569   O     0.89345   0.87291   0.25001   0.00000  Uiso   1.00
O570   O     0.77321   0.79375   0.25000   0.00000  Uiso   1.00
O571   O     0.83332   0.87293   0.18513   0.00000  Uiso   1.00
O572   O     0.83334   0.79373   0.31487   0.00000  Uiso   1.00
O573   O     0.83334   0.87293   0.31487   0.00000  Uiso   1.00
O574   O     0.83332   0.79373   0.18513   0.00000  Uiso   1.00
C575   C     0.86336   0.91669   0.38734   0.00000  Uiso   1.00
N576   N     0.87590   0.94975   0.37054   0.00000  Uiso   1.00
C577   C     0.80331   0.74997   0.11267   0.00000  Uiso   1.00
N578   N     0.79077   0.71692   0.12946   0.00000  Uiso   1.00
H579   H     0.81473   0.76398   0.38643   0.00000  Uiso   1.00
H580   H     0.85193   0.90269   0.11357   0.00000  Uiso   1.00
C581   C     0.80092   0.70898   0.44937   0.00000  Uiso   1.00
N582   N     0.79246   0.67470   0.43031   0.00000  Uiso   1.00
C583   C     0.86575   0.95769   0.05063   0.00000  Uiso   1.00
N584   N     0.87420   0.99197   0.06969   0.00000  Uiso   1.00
H585   H     0.80118   0.71919   0.03444   0.00000  Uiso   1.00
H586   H     0.86548   0.94748   0.46556   0.00000  Uiso   1.00
C587   C     0.71079   0.78833   0.31920   0.00000  Uiso   1.00
N588   N     0.72869   0.77064   0.34739   0.00000  Uiso   1.00
C589   C     0.95588   0.87834   0.18080   0.00000  Uiso   1.00
N590   N     0.93798   0.89602   0.15261   0.00000  Uiso   1.00
C591   C     0.95622   0.78894   0.31953   0.00000  Uiso   1.00
N592   N     0.93844   0.77172   0.34794   0.00000  Uiso   1.00
C593   C     0.71044   0.87773   0.18047   0.00000  Uiso   1.00
N594   N     0.72823   0.89495   0.15206   0.00000  Uiso   1.00
C595   C     0.08753   0.16666   0.74999   0.00000  Uiso   1.00
C596   C     0.24580   0.16668   0.75001   0.00000  Uiso   1.00
C597   C     0.14352   0.08481   0.51902   0.00000  Uiso   1.00
C598   C     0.18982   0.24852   0.98098   0.00000  Uiso   1.00
C599   C     0.02165   0.14387   0.78382   0.00000  Uiso   1.00
C600   C     0.31168   0.18947   0.71618   0.00000  Uiso   1.00
C601   C     0.31186   0.14399   0.78388   0.00000  Uiso   1.00
C602   C     0.02148   0.18935   0.71612   0.00000  Uiso   1.00
C603   C     0.29046   0.16672   0.75003   0.00000  Uiso   1.00
C604   C     0.04287   0.16662   0.74997   0.00000  Uiso   1.00
C605   C     0.13458   0.02433   0.73195   0.00000  Uiso   1.00
C606   C     0.19875   0.30900   0.76805   0.00000  Uiso   1.00
C607   C     0.19867   0.02524   0.76825   0.00000  Uiso   1.00
C608   C     0.13466   0.30810   0.73175   0.00000  Uiso   1.00
C609   C     0.16558   0.16606   0.66430   0.00000  Uiso   1.00
C610   C     0.16775   0.16728   0.83570   0.00000  Uiso   1.00
C611   C     0.18109   0.20883   0.90897   0.00000  Uiso   1.00
C612   C     0.15224   0.12451   0.59103   0.00000  Uiso   1.00
C613   C     0.16887   0.16851   0.88420   0.00000  Uiso   1.00
C614   C     0.16447   0.16482   0.61580   0.00000  Uiso   1.00
C615   C     0.15716   0.12793   0.90583   0.00000  Uiso   1.00
C616   C     0.17617   0.20540   0.59417   0.00000  Uiso   1.00
C617   C     0.15644   0.12640   0.95176   0.00000  Uiso   1.00
C618   C     0.17689   0.20694   0.54824   0.00000  Uiso   1.00
C619   C     0.16728   0.16704   0.97677   0.00000  Uiso   1.00
C620   C     0.16605   0.16629   0.52323   0.00000  Uiso   1.00
C621   C     0.17951   0.20838   0.95541   0.00000  Uiso   1.00
C622   C     0.15383   0.12495   0.54459   0.00000  Uiso   1.00
C623   C     0.14484   0.08516   0.97326   0.00000  Uiso   1.00
C624   C     0.18849   0.24817   0.52674   0.00000  Uiso   1.00
Cu625  Cu    0.16667   0.21355   0.75000   0.00000  Uiso   1.00
Cu626  Cu    0.16667   0.11978   0.75000   0.00000  Uiso   1.00
H627   H     0.10877   0.04252   0.71757   0.00000  Uiso   1.00
H628   H     0.22456   0.29081   0.78243   0.00000  Uiso   1.00
H629   H     0.22426   0.04415   0.78309   0.00000  Uiso   1.00
H630   H     0.10907   0.28919   0.71691   0.00000  Uiso   1.00
N631   N     0.16667   0.28402   0.75000   0.00000  Uiso   1.00
N632   N     0.16667   0.04931   0.75000   0.00000  Uiso   1.00
O633   O     0.10655   0.20625   0.75000   0.00000  Uiso   1.00
O634   O     0.22679   0.12709   0.75001   0.00000  Uiso   1.00
O635   O     0.22679   0.20625   0.75001   0.00000  Uiso   1.00
O636   O     0.10655   0.12709   0.75000   0.00000  Uiso   1.00
O637   O     0.16666   0.20627   0.68513   0.00000  Uiso   1.00
O638   O     0.16668   0.12707   0.81487   0.00000  Uiso   1.00
O639   O     0.16668   0.20627   0.81487   0.00000  Uiso   1.00
O640   O     0.16666   0.12707   0.68513   0.00000  Uiso   1.00
C641   C     0.19669   0.25002   0.88734   0.00000  Uiso   1.00
N642   N     0.20924   0.28308   0.87054   0.00000  Uiso   1.00
C643   C     0.13664   0.08331   0.61267   0.00000  Uiso   1.00
N644   N     0.12410   0.05025   0.62946   0.00000  Uiso   1.00
H645   H     0.14807   0.09732   0.88643   0.00000  Uiso   1.00
H646   H     0.18527   0.23602   0.61357   0.00000  Uiso   1.00
C647   C     0.13425   0.04231   0.94937   0.00000  Uiso   1.00
N648   N     0.12580   0.00803   0.93031   0.00000  Uiso   1.00
C649   C     0.19908   0.29102   0.55063   0.00000  Uiso   1.00
N650   N     0.20753   0.32530   0.56969   0.00000  Uiso   1.00
H651   H     0.13452   0.05252   0.53444   0.00000  Uiso   1.00
H652   H     0.19882   0.28081   0.96556   0.00000  Uiso   1.00
C653   C     0.04412   0.12166   0.81920   0.00000  Uiso   1.00
N654   N     0.06202   0.10398   0.84739   0.00000  Uiso   1.00
C655   C     0.28921   0.21167   0.68080   0.00000  Uiso   1.00
N656   N     0.27131   0.22936   0.65261   0.00000  Uiso   1.00
C657   C     0.28956   0.12227   0.81953   0.00000  Uiso   1.00
N658   N     0.27177   0.10505   0.84794   0.00000  Uiso   1.00
C659   C     0.04378   0.21106   0.68047   0.00000  Uiso   1.00
N660   N     0.06156   0.22828   0.65206   0.00000  Uiso   1.00
C661   C     0.42086   0.16666   0.74999   0.00000  Uiso   1.00
C662   C     0.57914   0.16668   0.75001   0.00000  Uiso   1.00
C663   C     0.47685   0.08481   0.51902   0.00000  Uiso   1.00
C664   C     0.52315   0.24852   0.98098   0.00000  Uiso   1.00
C665   C     0.35498   0.14387   0.78382   0.00000  Uiso   1.00
C666   C     0.64502   0.18947   0.71618   0.00000  Uiso   1.00
C667   C     0.64519   0.14399   0.78388   0.00000  Uiso   1.00
C668   C     0.35481   0.18935   0.71612   0.00000  Uiso   1.00
C669   C     0.62380   0.16672   0.75003   0.00000  Uiso   1.00
C670   C     0.37620   0.16662   0.74997   0.00000  Uiso   1.00
C671   C     0.46791   0.02433   0.73195   0.00000  Uiso   1.00
C672   C     0.53209   0.30900   0.76805   0.00000  Uiso   1.00
C673   C     0.53200   0.02524   0.76825   0.00000  Uiso   1.00
C674   C     0.46800   0.30810   0.73175   0.00000  Uiso   1.00
C675   C     0.49891   0.16606   0.66430   0.00000  Uiso   1.00
C676   C     0.50109   0.16728   0.83570   0.00000  Uiso   1.00
C677   C     0.51443   0.20883   0.90897   0.00000  Uiso   1.00
C678   C     0.48557   0.12451   0.59103   0.00000  Uiso   1.00
C679   C     0.50220   0.16851   0.88420   0.00000  Uiso   1.00
C680   C     0.49780   0.16482   0.61580   0.00000  Uiso   1.00
C681   C     0.49049   0.12793   0.90583   0.00000  Uiso   1.00
C682   C     0.50951   0.20540   0.59417   0.00000  Uiso   1.00
C683   C     0.48977   0.12640   0.95176   0.00000  Uiso   1.00
C684   C     0.51022   0.20694   0.54824   0.00000  Uiso   1.00
C685   C     0.50061   0.16704   0.97677   0.00000  Uiso   1.00
C686   C     0.49939   0.16629   0.52323   0.00000  Uiso   1.00
C687   C     0.51284   0.20838   0.95541   0.00000  Uiso   1.00
C688   C     0.48716   0.12495   0.54459   0.00000  Uiso   1.00
C689   C     0.47817   0.08516   0.97326   0.00000  Uiso   1.00
C690   C     0.52183   0.24817   0.52674   0.00000  Uiso   1.00
Cu691  Cu    0.50000   0.21355   0.75000   0.00000  Uiso   1.00
Cu692  Cu    0.50000   0.11978   0.75000   0.00000  Uiso   1.00
H693   H     0.44211   0.04252   0.71757   0.00000  Uiso   1.00
H694   H     0.55789   0.29081   0.78243   0.00000  Uiso   1.00
H695   H     0.55759   0.04415   0.78309   0.00000  Uiso   1.00
H696   H     0.44241   0.28919   0.71691   0.00000  Uiso   1.00
N697   N     0.50000   0.28402   0.75000   0.00000  Uiso   1.00
N698   N     0.50000   0.04931   0.75000   0.00000  Uiso   1.00
O699   O     0.43988   0.20625   0.75000   0.00000  Uiso   1.00
O700   O     0.56012   0.12709   0.75001   0.00000  Uiso   1.00
O701   O     0.56012   0.20625   0.75001   0.00000  Uiso   1.00
O702   O     0.43988   0.12709   0.75000   0.00000  Uiso   1.00
O703   O     0.49999   0.20627   0.68513   0.00000  Uiso   1.00
O704   O     0.50001   0.12707   0.81487   0.00000  Uiso   1.00
O705   O     0.50001   0.20627   0.81487   0.00000  Uiso   1.00
O706   O     0.49999   0.12707   0.68513   0.00000  Uiso   1.00
C707   C     0.53002   0.25002   0.88734   0.00000  Uiso   1.00
N708   N     0.54257   0.28308   0.87054   0.00000  Uiso   1.00
C709   C     0.46998   0.08331   0.61267   0.00000  Uiso   1.00
N710   N     0.45744   0.05025   0.62946   0.00000  Uiso   1.00
H711   H     0.48140   0.09732   0.88643   0.00000  Uiso   1.00
H712   H     0.51860   0.23602   0.61357   0.00000  Uiso   1.00
C713   C     0.46758   0.04231   0.94937   0.00000  Uiso   1.00
N714   N     0.45913   0.00803   0.93031   0.00000  Uiso   1.00
C715   C     0.53242   0.29102   0.55063   0.00000  Uiso   1.00
N716   N     0.54087   0.32530   0.56969   0.00000  Uiso   1.00
H717   H     0.46785   0.05252   0.53444   0.00000  Uiso   1.00
H718   H     0.53215   0.28081   0.96556   0.00000  Uiso   1.00
C719   C     0.37745   0.12166   0.81920   0.00000  Uiso   1.00
N720   N     0.39536   0.10398   0.84739   0.00000  Uiso   1.00
C721   C     0.62255   0.21167   0.68080   0.00000  Uiso   1.00
N722   N     0.60464   0.22936   0.65261   0.00000  Uiso   1.00
C723   C     0.62289   0.12227   0.81953   0.00000  Uiso   1.00
N724   N     0.60510   0.10505   0.84794   0.00000  Uiso   1.00
C725   C     0.37711   0.21106   0.68047   0.00000  Uiso   1.00
N726   N     0.39490   0.22828   0.65206   0.00000  Uiso   1.00
C727   C     0.75419   0.16666   0.74999   0.00000  Uiso   1.00
C728   C     0.91247   0.16668   0.75001   0.00000  Uiso   1.00
C729   C     0.81018   0.08481   0.51902   0.00000  Uiso   1.00
C730   C     0.85648   0.24852   0.98098   0.00000  Uiso   1.00
C731   C     0.68831   0.14387   0.78382   0.00000  Uiso   1.00
C732   C     0.97835   0.18947   0.71618   0.00000  Uiso   1.00
C733   C     0.97852   0.14399   0.78388   0.00000  Uiso   1.00
C734   C     0.68814   0.18935   0.71612   0.00000  Uiso   1.00
C735   C     0.95713   0.16672   0.75003   0.00000  Uiso   1.00
C736   C     0.70954   0.16662   0.74997   0.00000  Uiso   1.00
C737   C     0.80125   0.02433   0.73195   0.00000  Uiso   1.00
C738   C     0.86542   0.30900   0.76805   0.00000  Uiso   1.00
C739   C     0.86534   0.02524   0.76825   0.00000  Uiso   1.00
C740   C     0.80133   0.30810   0.73175   0.00000  Uiso   1.00
C741   C     0.83225   0.16606   0.66430   0.00000  Uiso   1.00
C742   C     0.83442   0.16728   0.83570   0.00000  Uiso   1.00
C743   C     0.84776   0.20883   0.90897   0.00000  Uiso   1.00
C744   C     0.81891   0.12451   0.59103   0.00000  Uiso   1.00
C745   C     0.83553   0.16851   0.88420   0.00000  Uiso   1.00
C746   C     0.83113   0.16482   0.61580   0.00000  Uiso   1.00
C747   C     0.82383   0.12793   0.90583   0.00000  Uiso   1.00
C748   C     0.84284   0.20540   0.59417   0.00000  Uiso   1.00
C749   C     0.82311   0.12640   0.95176   0.00000  Uiso   1.00
C750   C     0.84356   0.20694   0.54824   0.00000  Uiso   1.00
C751   C     0.83395   0.16704   0.97677   0.00000  Uiso   1.00
C752   C     0.83272   0.16629   0.52323   0.00000  Uiso   1.00
C753   C     0.84617   0.20838   0.95541   0.00000  Uiso   1.00
C754   C     0.82049   0.12495   0.54459   0.00000  Uiso   1.00
C755   C     0.81150   0.08516   0.97326   0.00000  Uiso   1.00
C756   C     0.85516   0.24817   0.52674   0.00000  Uiso   1.00
Cu757  Cu    0.83333   0.21355   0.75000   0.00000  Uiso   1.00
Cu758  Cu    0.83333   0.11978   0.75000   0.00000  Uiso   1.00
H759   H     0.77544   0.04252   0.71757   0.00000  Uiso   1.00
H760   H     0.89123   0.29081   0.78243   0.00000  Uiso   1.00
H761   H     0.89093   0.04415   0.78309   0.00000  Uiso   1.00
H762   H     0.77574   0.28919   0.71691   0.00000  Uiso   1.00
N763   N     0.83333   0.28402   0.75000   0.00000  Uiso   1.00
N764   N     0.83333   0.04931   0.75000   0.00000  Uiso   1.00
O765   O     0.77321   0.20625   0.75000   0.00000  Uiso   1.00
O766   O     0.89345   0.12709   0.75001   0.00000  Uiso   1.00
O767   O     0.89345   0.20625   0.75001   0.00000  Uiso   1.00
O768   O     0.77321   0.12709   0.75000   0.00000  Uiso   1.00
O769   O     0.83332   0.20627   0.68513   0.00000  Uiso   1.00
O770   O     0.83334   0.12707   0.81487   0.00000  Uiso   1.00
O771   O     0.83334   0.20627   0.81487   0.00000  Uiso   1.00
O772   O     0.83332   0.12707   0.68513   0.00000  Uiso   1.00
C773   C     0.86336   0.25002   0.88734   0.00000  Uiso   1.00
N774   N     0.87590   0.28308   0.87054   0.00000  Uiso   1.00
C775   C     0.80331   0.08331   0.61267   0.00000  Uiso   1.00
N776   N     0.79077   0.05025   0.62946   0.00000  Uiso   1.00
H777   H     0.81473   0.09732   0.88643   0.00000  Uiso   1.00
H778   H     0.85193   0.23602   0.61357   0.00000  Uiso   1.00
C779   C     0.80092   0.04231   0.94937   0.00000  Uiso   1.00
N780   N     0.79246   0.00803   0.93031   0.00000  Uiso   1.00
C781   C     0.86575   0.29102   0.55063   0.00000  Uiso   1.00
N782   N     0.87420   0.32530   0.56969   0.00000  Uiso   1.00
H783   H     0.80118   0.05252   0.53444   0.00000  Uiso   1.00
H784   H     0.86548   0.28081   0.96556   0.00000  Uiso   1.00
C785   C     0.71079   0.12166   0.81920   0.00000  Uiso   1.00
N786   N     0.72869   0.10398   0.84739   0.00000  Uiso   1.00
C787   C     0.95588   0.21167   0.68080   0.00000  Uiso   1.00
N788   N     0.93798   0.22936   0.65261   0.00000  Uiso   1.00
C789   C     0.95622   0.12227   0.81953   0.00000  Uiso   1.00
N790   N     0.93844   0.10505   0.84794   0.00000  Uiso   1.00
C791   C     0.71044   0.21106   0.68047   0.00000  Uiso   1.00
N792   N     0.72823   0.22828   0.65206   0.00000  Uiso   1.00
C793   C     0.08753   0.49999   0.74999   0.00000  Uiso   1.00
C794   C     0.24580   0.50001   0.75001   0.00000  Uiso   1.00
C795   C     0.14352   0.41815   0.51902   0.00000  Uiso   1.00
C796   C     0.18982   0.58186   0.98098   0.00000  Uiso   1.00
C797   C     0.02165   0.47720   0.78382   0.00000  Uiso   1.00
C798   C     0.31168   0.52280   0.71618   0.00000  Uiso   1.00
C799   C     0.31186   0.47732   0.78388   0.00000  Uiso   1.00
C800   C     0.02148   0.52268   0.71612   0.00000  Uiso   1.00
C801   C     0.29046   0.50005   0.75003   0.00000  Uiso   1.00
C802   C     0.04287   0.49995   0.74997   0.00000  Uiso   1.00
C803   C     0.13458   0.35766   0.73195   0.00000  Uiso   1.00
C804   C     0.19875   0.64234   0.76805   0.00000  Uiso   1.00
C805   C     0.19867   0.35857   0.76825   0.00000  Uiso   1.00
C806   C     0.13466   0.64143   0.73175   0.00000  Uiso   1.00
C807   C     0.16558   0.49939   0.66430   0.00000  Uiso   1.00
C808   C     0.16775   0.50061   0.83570   0.00000  Uiso   1.00
C809   C     0.18109   0.54216   0.90897   0.00000  Uiso   1.00
C810   C     0.15224   0.45784   0.59103   0.00000  Uiso   1.00
C811   C     0.16887   0.50184   0.88420   0.00000  Uiso   1.00
C812   C     0.16447   0.49816   0.61580   0.00000  Uiso   1.00
C813   C     0.15716   0.46127   0.90583   0.00000  Uiso   1.00
C814   C     0.17617   0.53873   0.59417   0.00000  Uiso   1.00
C815   C     0.15644   0.45973   0.95176   0.00000  Uiso   1.00
C816   C     0.17689   0.54027   0.54824   0.00000  Uiso   1.00
C817   C     0.16728   0.50037   0.97677   0.00000  Uiso   1.00
C818   C     0.16605   0.49963   0.52323   0.00000  Uiso   1.00
C819   C     0.17951   0.54172   0.95541   0.00000  Uiso   1.00
C820   C     0.15383   0.45828   0.54459   0.00000  Uiso   1.00
C821   C     0.14484   0.41850   0.97326   0.00000  Uiso   1.00
C822   C     0.18849   0.58150   0.52674   0.00000  Uiso   1.00
Cu823  Cu    0.16667   0.54689   0.75000   0.00000  Uiso   1.00
Cu824  Cu    0.16667   0.45311   0.75000   0.00000  Uiso   1.00
H825   H     0.10877   0.37586   0.71757   0.00000  Uiso   1.00
H826   H     0.22456   0.62414   0.78243   0.00000  Uiso   1.00
H827   H     0.22426   0.37748   0.78309   0.00000  Uiso   1.00
H828   H     0.10907   0.62252   0.71691   0.00000  Uiso   1.00
N829   N     0.16667   0.61736   0.75000   0.00000  Uiso   1.00
N830   N     0.16667   0.38264   0.75000   0.00000  Uiso   1.00
O831   O     0.10655   0.53958   0.75000   0.00000  Uiso   1.00
O832   O     0.22679   0.46042   0.75001   0.00000  Uiso   1.00
O833   O     0.22679   0.53958   0.75001   0.00000  Uiso   1.00
O834   O     0.10655   0.46042   0.75000   0.00000  Uiso   1.00
O835   O     0.16666   0.53960   0.68513   0.00000  Uiso   1.00
O836   O     0.16668   0.46040   0.81487   0.00000  Uiso   1.00
O837   O     0.16668   0.53960   0.81487   0.00000  Uiso   1.00
O838   O     0.16666   0.46040   0.68513   0.00000  Uiso   1.00
C839   C     0.19669   0.58336   0.88734   0.00000  Uiso   1.00
N840   N     0.20924   0.61641   0.87054   0.00000  Uiso   1.00
C841   C     0.13664   0.41664   0.61267   0.00000  Uiso   1.00
N842   N     0.12410   0.38358   0.62946   0.00000  Uiso   1.00
H843   H     0.14807   0.43065   0.88643   0.00000  Uiso   1.00
H844   H     0.18527   0.56935   0.61357   0.00000  Uiso   1.00
C845   C     0.13425   0.37565   0.94937   0.00000  Uiso   1.00
N846   N     0.12580   0.34137   0.93031   0.00000  Uiso   1.00
C847   C     0.19908   0.62435   0.55063   0.00000  Uiso   1.00
N848   N     0.20753   0.65863   0.56969   0.00000  Uiso   1.00
H849   H     0.13452   0.38586   0.53444   0.00000  Uiso   1.00
H850   H     0.19882   0.61415   0.96556   0.00000  Uiso   1.00
C851   C     0.04412   0.45499   0.81920   0.00000  Uiso   1.00
N852   N     0.06202   0.43731   0.84739   0.00000  Uiso   1.00
C853   C     0.28921   0.54501   0.68080   0.00000  Uiso   1.00
N854   N     0.27131   0.56269   0.65261   0.00000  Uiso   1.00
C855   C     0.28956   0.45561   0.81953   0.00000  Uiso   1.00
N856   N     0.27177   0.43838   0.84794   0.00000  Uiso   1.00
C857   C     0.04378   0.54439   0.68047   0.00000  Uiso   1.00
N858   N     0.06156   0.56162   0.65206   0.00000  Uiso   1.00
C859   C     0.42086   0.49999   0.74999   0.00000  Uiso   1.00
C860   C     0.57914   0.50001   0.75001   0.00000  Uiso   1.00
C861   C     0.47685   0.41815   0.51902   0.00000  Uiso   1.00
C862   C     0.52315   0.58186   0.98098   0.00000  Uiso   1.00
C863   C     0.35498   0.47720   0.78382   0.00000  Uiso   1.00
C864   C     0.64502   0.52280   0.71618   0.00000  Uiso   1.00
C865   C     0.64519   0.47732   0.78388   0.00000  Uiso   1.00
C866   C     0.35481   0.52268   0.71612   0.00000  Uiso   1.00
C867   C     0.62380   0.50005   0.75003   0.00000  Uiso   1.00
C868   C     0.37620   0.49995   0.74997   0.00000  Uiso   1.00
C869   C     0.46791   0.35766   0.73195   0.00000  Uiso   1.00
C870   C     0.53209   0.64234   0.76805   0.00000  Uiso   1.00
C871   C     0.53200   0.35857   0.76825   0.00000  Uiso   1.00
C872   C     0.46800   0.64143   0.73175   0.00000  Uiso   1.00
C873   C     0.49891   0.49939   0.66430   0.00000  Uiso   1.00
C874   C     0.50109   0.50061   0.83570   0.00000  Uiso   1.00
C875   C     0.51443   0.54216   0.90897   0.00000  Uiso   1.00
C876   C     0.48557   0.45784   0.59103   0.00000  Uiso   1.00
C877   C     0.50220   0.50184   0.88420   0.00000  Uiso   1.00
C878   C     0.49780   0.49816   0.61580   0.00000  Uiso   1.00
C879   C     0.49049   0.46127   0.90583   0.00000  Uiso   1.00
C880   C     0.50951   0.53873   0.59417   0.00000  Uiso   1.00
C881   C     0.48977   0.45973   0.95176   0.00000  Uiso   1.00
C882   C     0.51022   0.54027   0.54824   0.00000  Uiso   1.00
C883   C     0.50061   0.50037   0.97677   0.00000  Uiso   1.00
C884   C     0.49939   0.49963   0.52323   0.00000  Uiso   1.00
C885   C     0.51284   0.54172   0.95541   0.00000  Uiso   1.00
C886   C     0.48716   0.45828   0.54459   0.00000  Uiso   1.00
C887   C     0.47817   0.41850   0.97326   0.00000  Uiso   1.00
C888   C     0.52183   0.58150   0.52674   0.00000  Uiso   1.00
Cu889  Cu    0.50000   0.54689   0.75000   0.00000  Uiso   1.00
Cu890  Cu    0.50000   0.45311   0.75000   0.00000  Uiso   1.00
H891   H     0.44211   0.37586   0.71757   0.00000  Uiso   1.00
H892   H     0.55789   0.62414   0.78243   0.00000  Uiso   1.00
H893   H     0.55759   0.37748   0.78309   0.00000  Uiso   1.00
H894   H     0.44241   0.62252   0.71691   0.00000  Uiso   1.00
N895   N     0.50000   0.61736   0.75000   0.00000  Uiso   1.00
N896   N     0.50000   0.38264   0.75000   0.00000  Uiso   1.00
O897   O     0.43988   0.53958   0.75000   0.00000  Uiso   1.00
O898   O     0.56012   0.46042   0.75001   0.00000  Uiso   1.00
O899   O     0.56012   0.53958   0.75001   0.00000  Uiso   1.00
O900   O     0.43988   0.46042   0.75000   0.00000  Uiso   1.00
O901   O     0.49999   0.53960   0.68513   0.00000  Uiso   1.00
O902   O     0.50001   0.46040   0.81487   0.00000  Uiso   1.00
O903   O     0.50001   0.53960   0.81487   0.00000  Uiso   1.00
O904   O     0.49999   0.46040   0.68513   0.00000  Uiso   1.00
C905   C     0.53002   0.58336   0.88734   0.00000  Uiso   1.00
N906   N     0.54257   0.61641   0.87054   0.00000  Uiso   1.00
C907   C     0.46998   0.41664   0.61267   0.00000  Uiso   1.00
N908   N     0.45744   0.38358   0.62946   0.00000  Uiso   1.00
H909   H     0.48140   0.43065   0.88643   0.00000  Uiso   1.00
H910   H     0.51860   0.56935   0.61357   0.00000  Uiso   1.00
C911   C     0.46758   0.37565   0.94937   0.00000  Uiso   1.00
N912   N     0.45913   0.34137   0.93031   0.00000  Uiso   1.00
C913   C     0.53242   0.62435   0.55063   0.00000  Uiso   1.00
N914   N     0.54087   0.65863   0.56969   0.00000  Uiso   1.00
H915   H     0.46785   0.38586   0.53444   0.00000  Uiso   1.00
H916   H     0.53215   0.61415   0.96556   0.00000  Uiso   1.00
C917   C     0.37745   0.45499   0.81920   0.00000  Uiso   1.00
N918   N     0.39536   0.43731   0.84739   0.00000  Uiso   1.00
C919   C     0.62255   0.54501   0.68080   0.00000  Uiso   1.00
N920   N     0.60464   0.56269   0.65261   0.00000  Uiso   1.00
C921   C     0.62289   0.45561   0.81953   0.00000  Uiso   1.00
N922   N     0.60510   0.43838   0.84794   0.00000  Uiso   1.00
C923   C     0.37711   0.54439   0.68047   0.00000  Uiso   1.00
N924   N     0.39490   0.56162   0.65206   0.00000  Uiso   1.00
C925   C     0.75419   0.49999   0.74999   0.00000  Uiso   1.00
C926   C     0.91247   0.50001   0.75001   0.00000  Uiso   1.00
C927   C     0.81018   0.41815   0.51902   0.00000  Uiso   1.00
C928   C     0.85648   0.58186   0.98098   0.00000  Uiso   1.00
C929   C     0.68831   0.47720   0.78382   0.00000  Uiso   1.00
C930   C     0.97835   0.52280   0.71618   0.00000  Uiso   1.00
C931   C     0.97852   0.47732   0.78388   0.00000  Uiso   1.00
C932   C     0.68814   0.52268   0.71612   0.00000  Uiso   1.00
C933   C     0.95713   0.50005   0.75003   0.00000  Uiso   1.00
C934   C     0.70954   0.49995   0.74997   0.00000  Uiso   1.00
C935   C     0.80125   0.35766   0.73195   0.00000  Uiso   1.00
C936   C     0.86542   0.64234   0.76805   0.00000  Uiso   1.00
C937   C     0.86534   0.35857   0.76825   0.00000  Uiso   1.00
C938   C     0.80133   0.64143   0.73175   0.00000  Uiso   1.00
C939   C     0.83225   0.49939   0.66430   0.00000  Uiso   1.00
C940   C     0.83442   0.50061   0.83570   0.00000  Uiso   1.00
C941   C     0.84776   0.54216   0.90897   0.00000  Uiso   1.00
C942   C     0.81891   0.45784   0.59103   0.00000  Uiso   1.00
C943   C     0.83553   0.50184   0.88420   0.00000  Uiso   1.00
C944   C     0.83113   0.49816   0.61580   0.00000  Uiso   1.00
C945   C     0.82383   0.46127   0.90583   0.00000  Uiso   1.00
C946   C     0.84284   0.53873   0.59417   0.00000  Uiso   1.00
C947   C     0.82311   0.45973   0.95176   0.00000  Uiso   1.00
C948   C     0.84356   0.54027   0.54824   0.00000  Uiso   1.00
C949   C     0.83395   0.50037   0.97677   0.00000  Uiso   1.00
C950   C     0.83272   0.49963   0.52323   0.00000  Uiso   1.00
C951   C     0.84617   0.54172   0.95541   0.00000  Uiso   1.00
C952   C     0.82049   0.45828   0.54459   0.00000  Uiso   1.00
C953   C     0.81150   0.41850   0.97326   0.00000  Uiso   1.00
C954   C     0.85516   0.58150   0.52674   0.00000  Uiso   1.00
Cu955  Cu    0.83333   0.54689   0.75000   0.00000  Uiso   1.00
Cu956  Cu    0.83333   0.45311   0.75000   0.00000  Uiso   1.00
H957   H     0.77544   0.37586   0.71757   0.00000  Uiso   1.00
H958   H     0.89123   0.62414   0.78243   0.00000  Uiso   1.00
H959   H     0.89093   0.37748   0.78309   0.00000  Uiso   1.00
H960   H     0.77574   0.62252   0.71691   0.00000  Uiso   1.00
N961   N     0.83333   0.61736   0.75000   0.00000  Uiso   1.00
N962   N     0.83333   0.38264   0.75000   0.00000  Uiso   1.00
O963   O     0.77321   0.53958   0.75000   0.00000  Uiso   1.00
O964   O     0.89345   0.46042   0.75001   0.00000  Uiso   1.00
O965   O     0.89345   0.53958   0.75001   0.00000  Uiso   1.00
O966   O     0.77321   0.46042   0.75000   0.00000  Uiso   1.00
O967   O     0.83332   0.53960   0.68513   0.00000  Uiso   1.00
O968   O     0.83334   0.46040   0.81487   0.00000  Uiso   1.00
O969   O     0.83334   0.53960   0.81487   0.00000  Uiso   1.00
O970   O     0.83332   0.46040   0.68513   0.00000  Uiso   1.00
C971   C     0.86336   0.58336   0.88734   0.00000  Uiso   1.00
N972   N     0.87590   0.61641   0.87054   0.00000  Uiso   1.00
C973   C     0.80331   0.41664   0.61267   0.00000  Uiso   1.00
N974   N     0.79077   0.38358   0.62946   0.00000  Uiso   1.00
H975   H     0.81473   0.43065   0.88643   0.00000  Uiso   1.00
H976   H     0.85193   0.56935   0.61357   0.00000  Uiso   1.00
C977   C     0.80092   0.37565   0.94937   0.00000  Uiso   1.00
N978   N     0.79246   0.34137   0.93031   0.00000  Uiso   1.00
C979   C     0.86575   0.62435   0.55063   0.00000  Uiso   1.00
N980   N     0.87420   0.65863   0.56969   0.00000  Uiso   1.00
H981   H     0.80118   0.38586   0.53444   0.00000  Uiso   1.00
H982   H     0.86548   0.61415   0.96556   0.00000  Uiso   1.00
C983   C     0.71079   0.45499   0.81920   0.00000  Uiso   1.00
N984   N     0.72869   0.43731   0.84739   0.00000  Uiso   1.00
C985   C     0.95588   0.54501   0.68080   0.00000  Uiso   1.00
N986   N     0.93798   0.56269   0.65261   0.00000  Uiso   1.00
C987   C     0.95622   0.45561   0.81953   0.00000  Uiso   1.00
N988   N     0.93844   0.43838   0.84794   0.00000  Uiso   1.00
C989   C     0.71044   0.54439   0.68047   0.00000  Uiso   1.00
N990   N     0.72823   0.56162   0.65206   0.00000  Uiso   1.00
C991   C     0.08753   0.83332   0.74999   0.00000  Uiso   1.00
C992   C     0.24580   0.83334   0.75001   0.00000  Uiso   1.00
C993   C     0.14352   0.75148   0.51902   0.00000  Uiso   1.00
C994   C     0.18982   0.91519   0.98098   0.00000  Uiso   1.00
C995   C     0.02165   0.81053   0.78382   0.00000  Uiso   1.00
C996   C     0.31168   0.85613   0.71618   0.00000  Uiso   1.00
C997   C     0.31186   0.81065   0.78388   0.00000  Uiso   1.00
C998   C     0.02148   0.85601   0.71612   0.00000  Uiso   1.00
C999   C     0.29046   0.83338   0.75003   0.00000  Uiso   1.00
C1000  C     0.04287   0.83328   0.74997   0.00000  Uiso   1.00
C1001  C     0.13458   0.69100   0.73195   0.00000  Uiso   1.00
C1002  C     0.19875   0.97567   0.76805   0.00000  Uiso   1.00
C1003  C     0.19867   0.69190   0.76825   0.00000  Uiso   1.00
C1004  C     0.13466   0.97476   0.73175   0.00000  Uiso   1.00
C1005  C     0.16558   0.83272   0.66430   0.00000  Uiso   1.00
C1006  C     0.16775   0.83394   0.83570   0.00000  Uiso   1.00
C1007  C     0.18109   0.87549   0.90897   0.00000  Uiso   1.00
C1008  C     0.15224   0.79117   0.59103   0.00000  Uiso   1.00
C1009  C     0.16887   0.83518   0.88420   0.00000  Uiso   1.00
C1010  C     0.16447   0.83149   0.61580   0.00000  Uiso   1.00
C1011  C     0.15716   0.79460   0.90583   0.00000  Uiso   1.00
C1012  C     0.17617   0.87207   0.59417   0.00000  Uiso   1.00
C1013  C     0.15644   0.79306   0.95176   0.00000  Uiso   1.00
C1014  C     0.17689   0.87360   0.54824   0.00000  Uiso   1.00
C1015  C     0.16728   0.83371   0.97677   0.00000  Uiso   1.00
C1016  C     0.16605   0.83296   0.52323   0.00000  Uiso   1.00
C1017  C     0.17951   0.87505   0.95541   0.00000  Uiso   1.00
C1018  C     0.15383   0.79162   0.54459   0.00000  Uiso   1.00
C1019  C     0.14484   0.75183   0.97326   0.00000  Uiso   1.00
C1020  C     0.18849   0.91484   0.52674   0.00000  Uiso   1.00
Cu1021 Cu    0.16667   0.88022   0.75000   0.00000  Uiso   1.00
Cu1022 Cu    0.16667   0.78645   0.75000   0.00000  Uiso   1.00
H1023  H     0.10877   0.70919   0.71757   0.00000  Uiso   1.00
H1024  H     0.22456   0.95748   0.78243   0.00000  Uiso   1.00
H1025  H     0.22426   0.71081   0.78309   0.00000  Uiso   1.00
H1026  H     0.10907   0.95585   0.71691   0.00000  Uiso   1.00
N1027  N     0.16667   0.95069   0.75000   0.00000  Uiso   1.00
N1028  N     0.16667   0.71598   0.75000   0.00000  Uiso   1.00
O1029  O     0.10655   0.87291   0.75000   0.00000  Uiso   1.00
O1030  O     0.22679   0.79375   0.75001   0.00000  Uiso   1.00
O1031  O     0.22679   0.87291   0.75001   0.00000  Uiso   1.00
O1032  O     0.10655   0.79375   0.75000   0.00000  Uiso   1.00
O1033  O     0.16666   0.87293   0.68513   0.00000  Uiso   1.00
O1034  O     0.16668   0.79373   0.81487   0.00000  Uiso   1.00
O1035  O     0.16668   0.87293   0.81487   0.00000  Uiso   1.00
O1036  O     0.16666   0.79373   0.68513   0.00000  Uiso   1.00
C1037  C     0.19669   0.91669   0.88734   0.00000  Uiso   1.00
N1038  N     0.20924   0.94975   0.87054   0.00000  Uiso   1.00
C1039  C     0.13664   0.74997   0.61267   0.00000  Uiso   1.00
N1040  N     0.12410   0.71692   0.62946   0.00000  Uiso   1.00
H1041  H     0.14807   0.76398   0.88643   0.00000  Uiso   1.00
H1042  H     0.18527   0.90269   0.61357   0.00000  Uiso   1.00
C1043  C     0.13425   0.70898   0.94937   0.00000  Uiso   1.00
N1044  N     0.12580   0.67470   0.93031   0.00000  Uiso   1.00
C1045  C     0.19908   0.95769   0.55063   0.00000  Uiso   1.00
N1046  N     0.20753   0.99197   0.56969   0.00000  Uiso   1.00
H1047  H     0.13452   0.71919   0.53444   0.00000  Uiso   1.00
H1048  H     0.19882   0.94748   0.96556   0.00000  Uiso   1.00
C1049  C     0.04412   0.78833   0.81920   0.00000  Uiso   1.00
N1050  N     0.06202   0.77064   0.84739   0.00000  Uiso   1.00
C1051  C     0.28921   0.87834   0.68080   0.00000  Uiso   1.00
N1052  N     0.27131   0.89602   0.65261   0.00000  Uiso   1.00
C1053  C     0.28956   0.78894   0.81953   0.00000  Uiso   1.00
N1054  N     0.27177   0.77172   0.84794   0.00000  Uiso   1.00
C1055  C     0.04378   0.87773   0.68047   0.00000  Uiso   1.00
N1056  N     0.06156   0.89495   0.65206   0.00000  Uiso   1.00
C1057  C     0.42086   0.83332   0.74999   0.00000  Uiso   1.00
C1058  C     0.57914   0.83334   0.75001   0.00000  Uiso   1.00
C1059  C     0.47685   0.75148   0.51902   0.00000  Uiso   1.00
C1060  C     0.52315   0.91519   0.98098   0.00000  Uiso   1.00
C1061  C     0.35498   0.81053   0.78382   0.00000  Uiso   1.00
C1062  C     0.64502   0.85613   0.71618   0.00000  Uiso   1.00
C1063  C     0.64519   0.81065   0.78388   0.00000  Uiso   1.00
C1064  C     0.35481   0.85601   0.71612   0.00000  Uiso   1.00
C1065  C     0.62380   0.83338   0.75003   0.00000  Uiso   1.00
C1066  C     0.37620   0.83328   0.74997   0.00000  Uiso   1.00
C1067  C     0.46791   0.69100   0.73195   0.00000  Uiso   1.00
C1068  C     0.53209   0.97567   0.76805   0.00000  Uiso   1.00
C1069  C     0.53200   0.69190   0.76825   0.00000  Uiso   1.00
C1070  C     0.46800   0.97476   0.73175   0.00000  Uiso   1.00
C1071  C     0.49891   0.83272   0.66430   0.00000  Uiso   1.00
C1072  C     0.50109   0.83394   0.83570   0.00000  Uiso   1.00
C1073  C     0.51443   0.87549   0.90897   0.00000  Uiso   1.00
C1074  C     0.48557   0.79117   0.59103   0.00000  Uiso   1.00
C1075  C     0.50220   0.83518   0.88420   0.00000  Uiso   1.00
C1076  C     0.49780   0.83149   0.61580   0.00000  Uiso   1.00
C1077  C     0.49049   0.79460   0.90583   0.00000  Uiso   1.00
C1078  C     0.50951   0.87207   0.59417   0.00000  Uiso   1.00
C1079  C     0.48977   0.79306   0.95176   0.00000  Uiso   1.00
C1080  C     0.51022   0.87360   0.54824   0.00000  Uiso   1.00
C1081  C     0.50061   0.83371   0.97677   0.00000  Uiso   1.00
C1082  C     0.49939   0.83296   0.52323   0.00000  Uiso   1.00
C1083  C     0.51284   0.87505   0.95541   0.00000  Uiso   1.00
C1084  C     0.48716   0.79162   0.54459   0.00000  Uiso   1.00
C1085  C     0.47817   0.75183   0.97326   0.00000  Uiso   1.00
C1086  C     0.52183   0.91484   0.52674   0.00000  Uiso   1.00
Cu1087 Cu    0.50000   0.88022   0.75000   0.00000  Uiso   1.00
Cu1088 Cu    0.50000   0.78645   0.75000   0.00000  Uiso   1.00
H1089  H     0.44211   0.70919   0.71757   0.00000  Uiso   1.00
H1090  H     0.55789   0.95748   0.78243   0.00000  Uiso   1.00
H1091  H     0.55759   0.71081   0.78309   0.00000  Uiso   1.00
H1092  H     0.44241   0.95585   0.71691   0.00000  Uiso   1.00
N1093  N     0.50000   0.95069   0.75000   0.00000  Uiso   1.00
N1094  N     0.50000   0.71598   0.75000   0.00000  Uiso   1.00
O1095  O     0.43988   0.87291   0.75000   0.00000  Uiso   1.00
O1096  O     0.56012   0.79375   0.75001   0.00000  Uiso   1.00
O1097  O     0.56012   0.87291   0.75001   0.00000  Uiso   1.00
O1098  O     0.43988   0.79375   0.75000   0.00000  Uiso   1.00
O1099  O     0.49999   0.87293   0.68513   0.00000  Uiso   1.00
O1100  O     0.50001   0.79373   0.81487   0.00000  Uiso   1.00
O1101  O     0.50001   0.87293   0.81487   0.00000  Uiso   1.00
O1102  O     0.49999   0.79373   0.68513   0.00000  Uiso   1.00
C1103  C     0.53002   0.91669   0.88734   0.00000  Uiso   1.00
N1104  N     0.54257   0.94975   0.87054   0.00000  Uiso   1.00
C1105  C     0.46998   0.74997   0.61267   0.00000  Uiso   1.00
N1106  N     0.45744   0.71692   0.62946   0.00000  Uiso   1.00
H1107  H     0.48140   0.76398   0.88643   0.00000  Uiso   1.00
H1108  H     0.51860   0.90269   0.61357   0.00000  Uiso   1.00
C1109  C     0.46758   0.70898   0.94937   0.00000  Uiso   1.00
N1110  N     0.45913   0.67470   0.93031   0.00000  Uiso   1.00
C1111  C     0.53242   0.95769   0.55063   0.00000  Uiso   1.00
N1112  N     0.54087   0.99197   0.56969   0.00000  Uiso   1.00
H1113  H     0.46785   0.71919   0.53444   0.00000  Uiso   1.00
H1114  H     0.53215   0.94748   0.96556   0.00000  Uiso   1.00
C1115  C     0.37745   0.78833   0.81920   0.00000  Uiso   1.00
N1116  N     0.39536   0.77064   0.84739   0.00000  Uiso   1.00
C1117  C     0.62255   0.87834   0.68080   0.00000  Uiso   1.00
N1118  N     0.60464   0.89602   0.65261   0.00000  Uiso   1.00
C1119  C     0.62289   0.78894   0.81953   0.00000  Uiso   1.00
N1120  N     0.60510   0.77172   0.84794   0.00000  Uiso   1.00
C1121  C     0.37711   0.87773   0.68047   0.00000  Uiso   1.00
N1122  N     0.39490   0.89495   0.65206   0.00000  Uiso   1.00
C1123  C     0.75419   0.83332   0.74999   0.00000  Uiso   1.00
C1124  C     0.91247   0.83334   0.75001   0.00000  Uiso   1.00
C1125  C     0.81018   0.75148   0.51902   0.00000  Uiso   1.00
C1126  C     0.85648   0.91519   0.98098   0.00000  Uiso   1.00
C1127  C     0.68831   0.81053   0.78382   0.00000  Uiso   1.00
C1128  C     0.97835   0.85613   0.71618   0.00000  Uiso   1.00
C1129  C     0.97852   0.81065   0.78388   0.00000  Uiso   1.00
C1130  C     0.68814   0.85601   0.71612   0.00000  Uiso   1.00
C1131  C     0.95713   0.83338   0.75003   0.00000  Uiso   1.00
C1132  C     0.70954   0.83328   0.74997   0.00000  Uiso   1.00
C1133  C     0.80125   0.69100   0.73195   0.00000  Uiso   1.00
C1134  C     0.86542   0.97567   0.76805   0.00000  Uiso   1.00
C1135  C     0.86534   0.69190   0.76825   0.00000  Uiso   1.00
C1136  C     0.80133   0.97476   0.73175   0.00000  Uiso   1.00
C1137  C     0.83225   0.83272   0.66430   0.00000  Uiso   1.00
C1138  C     0.83442   0.83394   0.83570   0.00000  Uiso   1.00
C1139  C     0.84776   0.87549   0.90897   0.00000  Uiso   1.00
C1140  C     0.81891   0.79117   0.59103   0.00000  Uiso   1.00
C1141  C     0.83553   0.83518   0.88420   0.00000  Uiso   1.00
C1142  C     0.83113   0.83149   0.61580   0.00000  Uiso   1.00
C1143  C     0.82383   0.79460   0.90583   0.00000  Uiso   1.00
C1144  C     0.84284   0.87207   0.59417   0.00000  Uiso   1.00
C1145  C     0.82311   0.79306   0.95176   0.00000  Uiso   1.00
C1146  C     0.84356   0.87360   0.54824   0.00000  Uiso   1.00
C1147  C     0.83395   0.83371   0.97677   0.00000  Uiso   1.00
C1148  C     0.83272   0.83296   0.52323   0.00000  Uiso   1.00
C1149  C     0.84617   0.87505   0.95541   0.00000  Uiso   1.00
C1150  C     0.82049   0.79162   0.54459   0.00000  Uiso   1.00
C1151  C     0.81150   0.75183   0.97326   0.00000  Uiso   1.00
C1152  C     0.85516   0.91484   0.52674   0.00000  Uiso   1.00
Cu1153 Cu    0.83333   0.88022   0.75000   0.00000  Uiso   1.00
Cu1154 Cu    0.83333   0.78645   0.75000   0.00000  Uiso   1.00
H1155  H     0.77544   0.70919   0.71757   0.00000  Uiso   1.00
H1156  H     0.89123   0.95748   0.78243   0.00000  Uiso   1.00
H1157  H     0.89093   0.71081   0.78309   0.00000  Uiso   1.00
H1158  H     0.77574   0.95585   0.71691   0.00000  Uiso   1.00
N1159  N     0.83333   0.95069   0.75000   0.00000  Uiso   1.00
N1160  N     0.83333   0.71598   0.75000   0.00000  Uiso   1.00
O1161  O     0.77321   0.87291   0.75000   0.00000  Uiso   1.00
O1162  O     0.89345   0.79375   0.75001   0.00000  Uiso   1.00
O1163  O     0.89345   0.87291   0.75001   0.00000  Uiso   1.00
O1164  O     0.77321   0.79375   0.75000   0.00000  Uiso   1.00
O1165  O     0.83332   0.87293   0.68513   0.00000  Uiso   1.00
O1166  O     0.83334   0.79373   0.81487   0.00000  Uiso   1.00
O1167  O     0.83334   0.87293   0.81487   0.00000  Uiso   1.00
O1168  O     0.83332   0.79373   0.68513   0.00000  Uiso   1.00
C1169  C     0.86336   0.91669   0.88734   0.00000  Uiso   1.00
N1170  N     0.87590   0.94975   0.87054   0.00000  Uiso   1.00
C1171  C     0.80331   0.74997   0.61267   0.00000  Uiso   1.00
N1172  N     0.79077   0.71692   0.62946   0.00000  Uiso   1.00
H1173  H     0.81473   0.76398   0.88643   0.00000  Uiso   1.00
H1174  H     0.85193   0.90269   0.61357   0.00000  Uiso   1.00
C1175  C     0.80092   0.70898   0.94937   0.00000  Uiso   1.00
N1176  N     0.79246   0.67470   0.93031   0.00000  Uiso   1.00
C1177  C     0.86575   0.95769   0.55063   0.00000  Uiso   1.00
N1178  N     0.87420   0.99197   0.56969   0.00000  Uiso   1.00
H1179  H     0.80118   0.71919   0.53444   0.00000  Uiso   1.00
H1180  H     0.86548   0.94748   0.96556   0.00000  Uiso   1.00
C1181  C     0.71079   0.78833   0.81920   0.00000  Uiso   1.00
N1182  N     0.72869   0.77064   0.84739   0.00000  Uiso   1.00
C1183  C     0.95588   0.87834   0.68080   0.00000  Uiso   1.00
N1184  N     0.93798   0.89602   0.65261   0.00000  Uiso   1.00
C1185  C     0.95622   0.78894   0.81953   0.00000  Uiso   1.00
N1186  N     0.93844   0.77172   0.84794   0.00000  Uiso   1.00
C1187  C     0.71044   0.87773   0.68047   0.00000  Uiso   1.00
N1188  N     0.72823   0.89495   0.65206   0.00000  Uiso   1.00
loop_
_geom_bond_atom_site_label_1
_geom_bond_atom_site_label_2
_geom_bond_distance
_geom_bond_site_symmetry_2
_ccdc_geom_bond_type
C1     O39     1.287   .     A
C1     O42     1.287   .     A
C1     C10     1.447   .     S
C2     O41     1.287   .     A
C2     O40     1.287   .     A
C2     C9      1.447   .     S
C3     C28     1.408   .     A
C3     H57     1.084   .     S
C3     C623    1.390   1_554 S
C4     C27     1.408   .     A
C4     H58     1.084   .     S
C4     C624    1.390   .     S
C5     C10     1.409   .     A
C5     C59     1.453   .     S
C5     C139    1.397   1_455 S
C6     C9      1.409   .     A
C6     C61     1.453   .     S
C6     C74     1.397   .     S
C7     C9      1.408   .     A
C7     C63     1.453   .     S
C7     C71     1.397   .     S
C8     C65     1.453   .     S
C8     C10     1.408   .     A
C8     C138    1.397   1_455 S
C11    N38     1.367   .     A
C11    H33     1.081   .     S
C11    C410    1.415   1_545 S
C12    H34     1.081   .     S
C12    N37     1.367   .     A
C12    C211    1.415   .     S
C13    N38     1.367   .     A
C13    H35     1.081   .     S
C13    C408    1.415   1_545 S
C14    N37     1.367   .     A
C14    H36     1.081   .     S
C14    C209    1.415   .     S
C15    O43     1.298   .     A
C15    C20     1.472   .     S
C15    O46     1.293   .     A
C16    O45     1.293   .     A
C16    O44     1.298   .     A
C16    C19     1.472   .     S
C17    C19     1.416   .     A
C17    C27     1.410   .     A
C17    C47     1.452   .     S
C18    C20     1.416   .     A
C18    C28     1.410   .     A
C18    C49     1.452   .     S
C19    C21     1.398   .     A
C20    C22     1.398   .     A
C21    C23     1.396   .     A
C21    H51     1.083   .     S
C22    H52     1.083   .     S
C22    C24     1.396   .     A
C23    C29     1.410   .     A
C23    C25     1.415   .     A
C24    C26     1.415   .     A
C24    C30     1.410   .     A
C25    C27     1.417   .     A
C25    C620    1.411   .     S
C26    C28     1.417   .     A
C26    C619    1.411   1_554 S
C29    C53     1.448   .     S
C29    C597    1.390   .     S
C30    C55     1.448   .     S
C30    C598    1.390   1_554 S
Cu31   N37     2.011   .     S
Cu31   O43     1.975   .     S
Cu31   O45     1.984   .     S
Cu31   O41     1.959   .     S
Cu31   Cu32    2.677   .     S
Cu31   O39     1.959   .     S
Cu32   N38     2.011   .     S
Cu32   O40     1.959   .     S
Cu32   O44     1.975   .     S
Cu32   O42     1.959   .     S
Cu32   O46     1.984   .     S
C47    N48     1.157   .     T
C49    N50     1.157   .     T
C53    N54     1.157   .     T
C55    N56     1.157   .     T
C59    N60     1.157   .     T
C61    N62     1.157   .     T
C63    N64     1.157   .     T
C65    N66     1.157   .     T
C67    O105    1.287   .     A
C67    O108    1.287   .     A
C67    C76     1.447   .     S
C68    O107    1.287   .     A
C68    O106    1.287   .     A
C68    C75     1.447   .     S
C69    C94     1.408   .     A
C69    H123    1.084   .     S
C69    C689    1.390   1_554 S
C70    C93     1.408   .     A
C70    H124    1.084   .     S
C70    C690    1.390   .     S
C71    C76     1.409   .     A
C71    C125    1.453   .     S
C72    C75     1.409   .     A
C72    C127    1.453   .     S
C72    C140    1.397   .     S
C73    C75     1.408   .     A
C73    C129    1.453   .     S
C73    C137    1.397   .     S
C74    C131    1.453   .     S
C74    C76     1.408   .     A
C77    N104    1.367   .     A
C77    H99     1.081   .     S
C77    C476    1.415   1_545 S
C78    H100    1.081   .     S
C78    N103    1.367   .     A
C78    C277    1.415   .     S
C79    N104    1.367   .     A
C79    H101    1.081   .     S
C79    C474    1.415   1_545 S
C80    N103    1.367   .     A
C80    H102    1.081   .     S
C80    C275    1.415   .     S
C81    O109    1.298   .     A
C81    C86     1.472   .     S
C81    O112    1.293   .     A
C82    O111    1.293   .     A
C82    O110    1.298   .     A
C82    C85     1.472   .     S
C83    C85     1.416   .     A
C83    C93     1.410   .     A
C83    C113    1.452   .     S
C84    C86     1.416   .     A
C84    C94     1.410   .     A
C84    C115    1.452   .     S
C85    C87     1.398   .     A
C86    C88     1.398   .     A
C87    C89     1.396   .     A
C87    H117    1.083   .     S
C88    H118    1.083   .     S
C88    C90     1.396   .     A
C89    C95     1.410   .     A
C89    C91     1.415   .     A
C90    C92     1.415   .     A
C90    C96     1.410   .     A
C91    C93     1.417   .     A
C91    C686    1.411   .     S
C92    C94     1.417   .     A
C92    C685    1.411   1_554 S
C95    C119    1.448   .     S
C95    C663    1.390   .     S
C96    C121    1.448   .     S
C96    C664    1.390   1_554 S
Cu97   N103    2.011   .     S
Cu97   O109    1.975   .     S
Cu97   O111    1.984   .     S
Cu97   O107    1.959   .     S
Cu97   Cu98    2.677   .     S
Cu97   O105    1.959   .     S
Cu98   N104    2.011   .     S
Cu98   O106    1.959   .     S
Cu98   O110    1.975   .     S
Cu98   O108    1.959   .     S
Cu98   O112    1.984   .     S
C113   N114    1.157   .     T
C115   N116    1.157   .     T
C119   N120    1.157   .     T
C121   N122    1.157   .     T
C125   N126    1.157   .     T
C127   N128    1.157   .     T
C129   N130    1.157   .     T
C131   N132    1.157   .     T
C133   O171    1.287   .     A
C133   O174    1.287   .     A
C133   C142    1.447   .     S
C134   O173    1.287   .     A
C134   O172    1.287   .     A
C134   C141    1.447   .     S
C135   C160    1.408   .     A
C135   H189    1.084   .     S
C135   C755    1.390   1_554 S
C136   C159    1.408   .     A
C136   H190    1.084   .     S
C136   C756    1.390   .     S
C137   C142    1.409   .     A
C137   C191    1.453   .     S
C138   C141    1.409   .     A
C138   C193    1.453   .     S
C138   C8      1.397   1_655 S
C139   C141    1.408   .     A
C139   C195    1.453   .     S
C139   C5      1.397   1_655 S
C140   C197    1.453   .     S
C140   C142    1.408   .     A
C143   N170    1.367   .     A
C143   H165    1.081   .     S
C143   C542    1.415   1_545 S
C144   H166    1.081   .     S
C144   N169    1.367   .     A
C144   C343    1.415   .     S
C145   N170    1.367   .     A
C145   H167    1.081   .     S
C145   C540    1.415   1_545 S
C146   N169    1.367   .     A
C146   H168    1.081   .     S
C146   C341    1.415   .     S
C147   O175    1.298   .     A
C147   C152    1.472   .     S
C147   O178    1.293   .     A
C148   O177    1.293   .     A
C148   O176    1.298   .     A
C148   C151    1.472   .     S
C149   C151    1.416   .     A
C149   C159    1.410   .     A
C149   C179    1.452   .     S
C150   C152    1.416   .     A
C150   C160    1.410   .     A
C150   C181    1.452   .     S
C151   C153    1.398   .     A
C152   C154    1.398   .     A
C153   C155    1.396   .     A
C153   H183    1.083   .     S
C154   H184    1.083   .     S
C154   C156    1.396   .     A
C155   C161    1.410   .     A
C155   C157    1.415   .     A
C156   C158    1.415   .     A
C156   C162    1.410   .     A
C157   C159    1.417   .     A
C157   C752    1.411   .     S
C158   C160    1.417   .     A
C158   C751    1.411   1_554 S
C161   C185    1.448   .     S
C161   C729    1.390   .     S
C162   C187    1.448   .     S
C162   C730    1.390   1_554 S
Cu163  N169    2.011   .     S
Cu163  O175    1.975   .     S
Cu163  O177    1.984   .     S
Cu163  O173    1.959   .     S
Cu163  Cu164   2.677   .     S
Cu163  O171    1.959   .     S
Cu164  N170    2.011   .     S
Cu164  O172    1.959   .     S
Cu164  O176    1.975   .     S
Cu164  O174    1.959   .     S
Cu164  O178    1.984   .     S
C179   N180    1.157   .     T
C181   N182    1.157   .     T
C185   N186    1.157   .     T
C187   N188    1.157   .     T
C191   N192    1.157   .     T
C193   N194    1.157   .     T
C195   N196    1.157   .     T
C197   N198    1.157   .     T
C199   O237    1.287   .     A
C199   O240    1.287   .     A
C199   C208    1.447   .     S
C200   O239    1.287   .     A
C200   O238    1.287   .     A
C200   C207    1.447   .     S
C201   C226    1.408   .     A
C201   H255    1.084   .     S
C201   C821    1.390   1_554 S
C202   C225    1.408   .     A
C202   H256    1.084   .     S
C202   C822    1.390   .     S
C203   C208    1.409   .     A
C203   C257    1.453   .     S
C203   C337    1.397   1_455 S
C204   C207    1.409   .     A
C204   C259    1.453   .     S
C204   C272    1.397   .     S
C205   C207    1.408   .     A
C205   C261    1.453   .     S
C205   C269    1.397   .     S
C206   C263    1.453   .     S
C206   C208    1.408   .     A
C206   C336    1.397   1_455 S
C209   N236    1.367   .     A
C209   H231    1.081   .     S
C210   H232    1.081   .     S
C210   N235    1.367   .     A
C210   C409    1.415   .     S
C211   N236    1.367   .     A
C211   H233    1.081   .     S
C212   N235    1.367   .     A
C212   H234    1.081   .     S
C212   C407    1.415   .     S
C213   O241    1.298   .     A
C213   C218    1.472   .     S
C213   O244    1.293   .     A
C214   O243    1.293   .     A
C214   O242    1.298   .     A
C214   C217    1.472   .     S
C215   C217    1.416   .     A
C215   C225    1.410   .     A
C215   C245    1.452   .     S
C216   C218    1.416   .     A
C216   C226    1.410   .     A
C216   C247    1.452   .     S
C217   C219    1.398   .     A
C218   C220    1.398   .     A
C219   C221    1.396   .     A
C219   H249    1.083   .     S
C220   H250    1.083   .     S
C220   C222    1.396   .     A
C221   C227    1.410   .     A
C221   C223    1.415   .     A
C222   C224    1.415   .     A
C222   C228    1.410   .     A
C223   C225    1.417   .     A
C223   C818    1.411   .     S
C224   C226    1.417   .     A
C224   C817    1.411   1_554 S
C227   C251    1.448   .     S
C227   C795    1.390   .     S
C228   C253    1.448   .     S
C228   C796    1.390   1_554 S
Cu229  N235    2.011   .     S
Cu229  O241    1.975   .     S
Cu229  O243    1.984   .     S
Cu229  O239    1.959   .     S
Cu229  Cu230   2.677   .     S
Cu229  O237    1.959   .     S
Cu230  N236    2.011   .     S
Cu230  O238    1.959   .     S
Cu230  O242    1.975   .     S
Cu230  O240    1.959   .     S
Cu230  O244    1.984   .     S
C245   N246    1.157   .     T
C247   N248    1.157   .     T
C251   N252    1.157   .     T
C253   N254    1.157   .     T
C257   N258    1.157   .     T
C259   N260    1.157   .     T
C261   N262    1.157   .     T
C263   N264    1.157   .     T
C265   O303    1.287   .     A
C265   O306    1.287   .     A
C265   C274    1.447   .     S
C266   O305    1.287   .     A
C266   O304    1.287   .     A
C266   C273    1.447   .     S
C267   C292    1.408   .     A
C267   H321    1.084   .     S
C267   C887    1.390   1_554 S
C268   C291    1.408   .     A
C268   H322    1.084   .     S
C268   C888    1.390   .     S
C269   C274    1.409   .     A
C269   C323    1.453   .     S
C270   C273    1.409   .     A
C270   C325    1.453   .     S
C270   C338    1.397   .     S
C271   C273    1.408   .     A
C271   C327    1.453   .     S
C271   C335    1.397   .     S
C272   C329    1.453   .     S
C272   C274    1.408   .     A
C275   N302    1.367   .     A
C275   H297    1.081   .     S
C276   H298    1.081   .     S
C276   N301    1.367   .     A
C276   C475    1.415   .     S
C277   N302    1.367   .     A
C277   H299    1.081   .     S
C278   N301    1.367   .     A
C278   H300    1.081   .     S
C278   C473    1.415   .     S
C279   O307    1.298   .     A
C279   C284    1.472   .     S
C279   O310    1.293   .     A
C280   O309    1.293   .     A
C280   O308    1.298   .     A
C280   C283    1.472   .     S
C281   C283    1.416   .     A
C281   C291    1.410   .     A
C281   C311    1.452   .     S
C282   C284    1.416   .     A
C282   C292    1.410   .     A
C282   C313    1.452   .     S
C283   C285    1.398   .     A
C284   C286    1.398   .     A
C285   C287    1.396   .     A
C285   H315    1.083   .     S
C286   H316    1.083   .     S
C286   C288    1.396   .     A
C287   C293    1.410   .     A
C287   C289    1.415   .     A
C288   C290    1.415   .     A
C288   C294    1.410   .     A
C289   C291    1.417   .     A
C289   C884    1.411   .     S
C290   C292    1.417   .     A
C290   C883    1.411   1_554 S
C293   C317    1.448   .     S
C293   C861    1.390   .     S
C294   C319    1.448   .     S
C294   C862    1.390   1_554 S
Cu295  N301    2.011   .     S
Cu295  O307    1.975   .     S
Cu295  O309    1.984   .     S
Cu295  O305    1.959   .     S
Cu295  Cu296   2.677   .     S
Cu295  O303    1.959   .     S
Cu296  N302    2.011   .     S
Cu296  O304    1.959   .     S
Cu296  O308    1.975   .     S
Cu296  O306    1.959   .     S
Cu296  O310    1.984   .     S
C311   N312    1.157   .     T
C313   N314    1.157   .     T
C317   N318    1.157   .     T
C319   N320    1.157   .     T
C323   N324    1.157   .     T
C325   N326    1.157   .     T
C327   N328    1.157   .     T
C329   N330    1.157   .     T
C331   O369    1.287   .     A
C331   O372    1.287   .     A
C331   C340    1.447   .     S
C332   O371    1.287   .     A
C332   O370    1.287   .     A
C332   C339    1.447   .     S
C333   C358    1.408   .     A
C333   H387    1.084   .     S
C333   C953    1.390   1_554 S
C334   C357    1.408   .     A
C334   H388    1.084   .     S
C334   C954    1.390   .     S
C335   C340    1.409   .     A
C335   C389    1.453   .     S
C336   C339    1.409   .     A
C336   C391    1.453   .     S
C336   C206    1.397   1_655 S
C337   C339    1.408   .     A
C337   C393    1.453   .     S
C337   C203    1.397   1_655 S
C338   C395    1.453   .     S
C338   C340    1.408   .     A
C341   N368    1.367   .     A
C341   H363    1.081   .     S
C342   H364    1.081   .     S
C342   N367    1.367   .     A
C342   C541    1.415   .     S
C343   N368    1.367   .     A
C343   H365    1.081   .     S
C344   N367    1.367   .     A
C344   H366    1.081   .     S
C344   C539    1.415   .     S
C345   O373    1.298   .     A
C345   C350    1.472   .     S
C345   O376    1.293   .     A
C346   O375    1.293   .     A
C346   O374    1.298   .     A
C346   C349    1.472   .     S
C347   C349    1.416   .     A
C347   C357    1.410   .     A
C347   C377    1.452   .     S
C348   C350    1.416   .     A
C348   C358    1.410   .     A
C348   C379    1.452   .     S
C349   C351    1.398   .     A
C350   C352    1.398   .     A
C351   C353    1.396   .     A
C351   H381    1.083   .     S
C352   H382    1.083   .     S
C352   C354    1.396   .     A
C353   C359    1.410   .     A
C353   C355    1.415   .     A
C354   C356    1.415   .     A
C354   C360    1.410   .     A
C355   C357    1.417   .     A
C355   C950    1.411   .     S
C356   C358    1.417   .     A
C356   C949    1.411   1_554 S
C359   C383    1.448   .     S
C359   C927    1.390   .     S
C360   C385    1.448   .     S
C360   C928    1.390   1_554 S
Cu361  N367    2.011   .     S
Cu361  O373    1.975   .     S
Cu361  O375    1.984   .     S
Cu361  O371    1.959   .     S
Cu361  Cu362   2.677   .     S
Cu361  O369    1.959   .     S
Cu362  N368    2.011   .     S
Cu362  O370    1.959   .     S
Cu362  O374    1.975   .     S
Cu362  O372    1.959   .     S
Cu362  O376    1.984   .     S
C377   N378    1.157   .     T
C379   N380    1.157   .     T
C383   N384    1.157   .     T
C385   N386    1.157   .     T
C389   N390    1.157   .     T
C391   N392    1.157   .     T
C393   N394    1.157   .     T
C395   N396    1.157   .     T
C397   O435    1.287   .     A
C397   O438    1.287   .     A
C397   C406    1.447   .     S
C398   O437    1.287   .     A
C398   O436    1.287   .     A
C398   C405    1.447   .     S
C399   C424    1.408   .     A
C399   H453    1.084   .     S
C399   C1019   1.390   1_554 S
C400   C423    1.408   .     A
C400   H454    1.084   .     S
C400   C1020   1.390   .     S
C401   C406    1.409   .     A
C401   C455    1.453   .     S
C401   C535    1.397   1_455 S
C402   C405    1.409   .     A
C402   C457    1.453   .     S
C402   C470    1.397   .     S
C403   C405    1.408   .     A
C403   C459    1.453   .     S
C403   C467    1.397   .     S
C404   C461    1.453   .     S
C404   C406    1.408   .     A
C404   C534    1.397   1_455 S
C407   N434    1.367   .     A
C407   H429    1.081   .     S
C408   H430    1.081   .     S
C408   N433    1.367   .     A
C408   C13     1.415   1_565 S
C409   N434    1.367   .     A
C409   H431    1.081   .     S
C410   N433    1.367   .     A
C410   H432    1.081   .     S
C410   C11     1.415   1_565 S
C411   O439    1.298   .     A
C411   C416    1.472   .     S
C411   O442    1.293   .     A
C412   O441    1.293   .     A
C412   O440    1.298   .     A
C412   C415    1.472   .     S
C413   C415    1.416   .     A
C413   C423    1.410   .     A
C413   C443    1.452   .     S
C414   C416    1.416   .     A
C414   C424    1.410   .     A
C414   C445    1.452   .     S
C415   C417    1.398   .     A
C416   C418    1.398   .     A
C417   C419    1.396   .     A
C417   H447    1.083   .     S
C418   H448    1.083   .     S
C418   C420    1.396   .     A
C419   C425    1.410   .     A
C419   C421    1.415   .     A
C420   C422    1.415   .     A
C420   C426    1.410   .     A
C421   C423    1.417   .     A
C421   C1016   1.411   .     S
C422   C424    1.417   .     A
C422   C1015   1.411   1_554 S
C425   C449    1.448   .     S
C425   C993    1.390   .     S
C426   C451    1.448   .     S
C426   C994    1.390   1_554 S
Cu427  N433    2.011   .     S
Cu427  O439    1.975   .     S
Cu427  O441    1.984   .     S
Cu427  O437    1.959   .     S
Cu427  Cu428   2.677   .     S
Cu427  O435    1.959   .     S
Cu428  N434    2.011   .     S
Cu428  O436    1.959   .     S
Cu428  O440    1.975   .     S
Cu428  O438    1.959   .     S
Cu428  O442    1.984   .     S
C443   N444    1.157   .     T
C445   N446    1.157   .     T
C449   N450    1.157   .     T
C451   N452    1.157   .     T
C455   N456    1.157   .     T
C457   N458    1.157   .     T
C459   N460    1.157   .     T
C461   N462    1.157   .     T
C463   O501    1.287   .     A
C463   O504    1.287   .     A
C463   C472    1.447   .     S
C464   O503    1.287   .     A
C464   O502    1.287   .     A
C464   C471    1.447   .     S
C465   C490    1.408   .     A
C465   H519    1.084   .     S
C465   C1085   1.390   1_554 S
C466   C489    1.408   .     A
C466   H520    1.084   .     S
C466   C1086   1.390   .     S
C467   C472    1.409   .     A
C467   C521    1.453   .     S
C468   C471    1.409   .     A
C468   C523    1.453   .     S
C468   C536    1.397   .     S
C469   C471    1.408   .     A
C469   C525    1.453   .     S
C469   C533    1.397   .     S
C470   C527    1.453   .     S
C470   C472    1.408   .     A
C473   N500    1.367   .     A
C473   H495    1.081   .     S
C474   H496    1.081   .     S
C474   N499    1.367   .     A
C474   C79     1.415   1_565 S
C475   N500    1.367   .     A
C475   H497    1.081   .     S
C476   N499    1.367   .     A
C476   H498    1.081   .     S
C476   C77     1.415   1_565 S
C477   O505    1.298   .     A
C477   C482    1.472   .     S
C477   O508    1.293   .     A
C478   O507    1.293   .     A
C478   O506    1.298   .     A
C478   C481    1.472   .     S
C479   C481    1.416   .     A
C479   C489    1.410   .     A
C479   C509    1.452   .     S
C480   C482    1.416   .     A
C480   C490    1.410   .     A
C480   C511    1.452   .     S
C481   C483    1.398   .     A
C482   C484    1.398   .     A
C483   C485    1.396   .     A
C483   H513    1.083   .     S
C484   H514    1.083   .     S
C484   C486    1.396   .     A
C485   C491    1.410   .     A
C485   C487    1.415   .     A
C486   C488    1.415   .     A
C486   C492    1.410   .     A
C487   C489    1.417   .     A
C487   C1082   1.411   .     S
C488   C490    1.417   .     A
C488   C1081   1.411   1_554 S
C491   C515    1.448   .     S
C491   C1059   1.390   .     S
C492   C517    1.448   .     S
C492   C1060   1.390   1_554 S
Cu493  N499    2.011   .     S
Cu493  O505    1.975   .     S
Cu493  O507    1.984   .     S
Cu493  O503    1.959   .     S
Cu493  Cu494   2.677   .     S
Cu493  O501    1.959   .     S
Cu494  N500    2.011   .     S
Cu494  O502    1.959   .     S
Cu494  O506    1.975   .     S
Cu494  O504    1.959   .     S
Cu494  O508    1.984   .     S
C509   N510    1.157   .     T
C511   N512    1.157   .     T
C515   N516    1.157   .     T
C517   N518    1.157   .     T
C521   N522    1.157   .     T
C523   N524    1.157   .     T
C525   N526    1.157   .     T
C527   N528    1.157   .     T
C529   O567    1.287   .     A
C529   O570    1.287   .     A
C529   C538    1.447   .     S
C530   O569    1.287   .     A
C530   O568    1.287   .     A
C530   C537    1.447   .     S
C531   C556    1.408   .     A
C531   H585    1.084   .     S
C531   C1151   1.390   1_554 S
C532   C555    1.408   .     A
C532   H586    1.084   .     S
C532   C1152   1.390   .     S
C533   C538    1.409   .     A
C533   C587    1.453   .     S
C534   C537    1.409   .     A
C534   C589    1.453   .     S
C534   C404    1.397   1_655 S
C535   C537    1.408   .     A
C535   C591    1.453   .     S
C535   C401    1.397   1_655 S
C536   C593    1.453   .     S
C536   C538    1.408   .     A
C539   N566    1.367   .     A
C539   H561    1.081   .     S
C540   H562    1.081   .     S
C540   N565    1.367   .     A
C540   C145    1.415   1_565 S
C541   N566    1.367   .     A
C541   H563    1.081   .     S
C542   N565    1.367   .     A
C542   H564    1.081   .     S
C542   C143    1.415   1_565 S
C543   O571    1.298   .     A
C543   C548    1.472   .     S
C543   O574    1.293   .     A
C544   O573    1.293   .     A
C544   O572    1.298   .     A
C544   C547    1.472   .     S
C545   C547    1.416   .     A
C545   C555    1.410   .     A
C545   C575    1.452   .     S
C546   C548    1.416   .     A
C546   C556    1.410   .     A
C546   C577    1.452   .     S
C547   C549    1.398   .     A
C548   C550    1.398   .     A
C549   C551    1.396   .     A
C549   H579    1.083   .     S
C550   H580    1.083   .     S
C550   C552    1.396   .     A
C551   C557    1.410   .     A
C551   C553    1.415   .     A
C552   C554    1.415   .     A
C552   C558    1.410   .     A
C553   C555    1.417   .     A
C553   C1148   1.411   .     S
C554   C556    1.417   .     A
C554   C1147   1.411   1_554 S
C557   C581    1.448   .     S
C557   C1125   1.390   .     S
C558   C583    1.448   .     S
C558   C1126   1.390   1_554 S
Cu559  N565    2.011   .     S
Cu559  O571    1.975   .     S
Cu559  O573    1.984   .     S
Cu559  O569    1.959   .     S
Cu559  Cu560   2.677   .     S
Cu559  O567    1.959   .     S
Cu560  N566    2.011   .     S
Cu560  O568    1.959   .     S
Cu560  O572    1.975   .     S
Cu560  O570    1.959   .     S
Cu560  O574    1.984   .     S
C575   N576    1.157   .     T
C577   N578    1.157   .     T
C581   N582    1.157   .     T
C583   N584    1.157   .     T
C587   N588    1.157   .     T
C589   N590    1.157   .     T
C591   N592    1.157   .     T
C593   N594    1.157   .     T
C595   O633    1.287   .     A
C595   O636    1.287   .     A
C595   C604    1.447   .     S
C596   O635    1.287   .     A
C596   O634    1.287   .     A
C596   C603    1.447   .     S
C597   C622    1.408   .     A
C597   H651    1.084   .     S
C598   C621    1.408   .     A
C598   H652    1.084   .     S
C598   C30     1.390   1_556 S
C599   C604    1.409   .     A
C599   C653    1.453   .     S
C599   C733    1.397   1_455 S
C600   C603    1.409   .     A
C600   C655    1.453   .     S
C600   C668    1.397   .     S
C601   C603    1.408   .     A
C601   C657    1.453   .     S
C601   C665    1.397   .     S
C602   C659    1.453   .     S
C602   C604    1.408   .     A
C602   C732    1.397   1_455 S
C605   N632    1.367   .     A
C605   H627    1.081   .     S
C605   C1004   1.415   1_545 S
C606   H628    1.081   .     S
C606   N631    1.367   .     A
C606   C805    1.415   .     S
C607   N632    1.367   .     A
C607   H629    1.081   .     S
C607   C1002   1.415   1_545 S
C608   N631    1.367   .     A
C608   H630    1.081   .     S
C608   C803    1.415   .     S
C609   O637    1.298   .     A
C609   C614    1.472   .     S
C609   O640    1.293   .     A
C610   O639    1.293   .     A
C610   O638    1.298   .     A
C610   C613    1.472   .     S
C611   C613    1.416   .     A
C611   C621    1.410   .     A
C611   C641    1.452   .     S
C612   C614    1.416   .     A
C612   C622    1.410   .     A
C612   C643    1.452   .     S
C613   C615    1.398   .     A
C614   C616    1.398   .     A
C615   C617    1.396   .     A
C615   H645    1.083   .     S
C616   H646    1.083   .     S
C616   C618    1.396   .     A
C617   C623    1.410   .     A
C617   C619    1.415   .     A
C618   C620    1.415   .     A
C618   C624    1.410   .     A
C619   C621    1.417   .     A
C619   C26     1.411   1_556 S
C620   C622    1.417   .     A
C623   C647    1.448   .     S
C623   C3      1.390   1_556 S
C624   C649    1.448   .     S
Cu625  N631    2.011   .     S
Cu625  O637    1.975   .     S
Cu625  O639    1.984   .     S
Cu625  O635    1.959   .     S
Cu625  Cu626   2.677   .     S
Cu625  O633    1.959   .     S
Cu626  N632    2.011   .     S
Cu626  O634    1.959   .     S
Cu626  O638    1.975   .     S
Cu626  O636    1.959   .     S
Cu626  O640    1.984   .     S
C641   N642    1.157   .     T
C643   N644    1.157   .     T
C647   N648    1.157   .     T
C649   N650    1.157   .     T
C653   N654    1.157   .     T
C655   N656    1.157   .     T
C657   N658    1.157   .     T
C659   N660    1.157   .     T
C661   O699    1.287   .     A
C661   O702    1.287   .     A
C661   C670    1.447   .     S
C662   O701    1.287   .     A
C662   O700    1.287   .     A
C662   C669    1.447   .     S
C663   C688    1.408   .     A
C663   H717    1.084   .     S
C664   C687    1.408   .     A
C664   H718    1.084   .     S
C664   C96     1.390   1_556 S
C665   C670    1.409   .     A
C665   C719    1.453   .     S
C666   C669    1.409   .     A
C666   C721    1.453   .     S
C666   C734    1.397   .     S
C667   C669    1.408   .     A
C667   C723    1.453   .     S
C667   C731    1.397   .     S
C668   C725    1.453   .     S
C668   C670    1.408   .     A
C671   N698    1.367   .     A
C671   H693    1.081   .     S
C671   C1070   1.415   1_545 S
C672   H694    1.081   .     S
C672   N697    1.367   .     A
C672   C871    1.415   .     S
C673   N698    1.367   .     A
C673   H695    1.081   .     S
C673   C1068   1.415   1_545 S
C674   N697    1.367   .     A
C674   H696    1.081   .     S
C674   C869    1.415   .     S
C675   O703    1.298   .     A
C675   C680    1.472   .     S
C675   O706    1.293   .     A
C676   O705    1.293   .     A
C676   O704    1.298   .     A
C676   C679    1.472   .     S
C677   C679    1.416   .     A
C677   C687    1.410   .     A
C677   C707    1.452   .     S
C678   C680    1.416   .     A
C678   C688    1.410   .     A
C678   C709    1.452   .     S
C679   C681    1.398   .     A
C680   C682    1.398   .     A
C681   C683    1.396   .     A
C681   H711    1.083   .     S
C682   H712    1.083   .     S
C682   C684    1.396   .     A
C683   C689    1.410   .     A
C683   C685    1.415   .     A
C684   C686    1.415   .     A
C684   C690    1.410   .     A
C685   C687    1.417   .     A
C685   C92     1.411   1_556 S
C686   C688    1.417   .     A
C689   C713    1.448   .     S
C689   C69     1.390   1_556 S
C690   C715    1.448   .     S
Cu691  N697    2.011   .     S
Cu691  O703    1.975   .     S
Cu691  O705    1.984   .     S
Cu691  O701    1.959   .     S
Cu691  Cu692   2.677   .     S
Cu691  O699    1.959   .     S
Cu692  N698    2.011   .     S
Cu692  O700    1.959   .     S
Cu692  O704    1.975   .     S
Cu692  O702    1.959   .     S
Cu692  O706    1.984   .     S
C707   N708    1.157   .     T
C709   N710    1.157   .     T
C713   N714    1.157   .     T
C715   N716    1.157   .     T
C719   N720    1.157   .     T
C721   N722    1.157   .     T
C723   N724    1.157   .     T
C725   N726    1.157   .     T
C727   O765    1.287   .     A
C727   O768    1.287   .     A
C727   C736    1.447   .     S
C728   O767    1.287   .     A
C728   O766    1.287   .     A
C728   C735    1.447   .     S
C729   C754    1.408   .     A
C729   H783    1.084   .     S
C730   C753    1.408   .     A
C730   H784    1.084   .     S
C730   C162    1.390   1_556 S
C731   C736    1.409   .     A
C731   C785    1.453   .     S
C732   C735    1.409   .     A
C732   C787    1.453   .     S
C732   C602    1.397   1_655 S
C733   C735    1.408   .     A
C733   C789    1.453   .     S
C733   C599    1.397   1_655 S
C734   C791    1.453   .     S
C734   C736    1.408   .     A
C737   N764    1.367   .     A
C737   H759    1.081   .     S
C737   C1136   1.415   1_545 S
C738   H760    1.081   .     S
C738   N763    1.367   .     A
C738   C937    1.415   .     S
C739   N764    1.367   .     A
C739   H761    1.081   .     S
C739   C1134   1.415   1_545 S
C740   N763    1.367   .     A
C740   H762    1.081   .     S
C740   C935    1.415   .     S
C741   O769    1.298   .     A
C741   C746    1.472   .     S
C741   O772    1.293   .     A
C742   O771    1.293   .     A
C742   O770    1.298   .     A
C742   C745    1.472   .     S
C743   C745    1.416   .     A
C743   C753    1.410   .     A
C743   C773    1.452   .     S
C744   C746    1.416   .     A
C744   C754    1.410   .     A
C744   C775    1.452   .     S
C745   C747    1.398   .     A
C746   C748    1.398   .     A
C747   C749    1.396   .     A
C747   H777    1.083   .     S
C748   H778    1.083   .     S
C748   C750    1.396   .     A
C749   C755    1.410   .     A
C749   C751    1.415   .     A
C750   C752    1.415   .     A
C750   C756    1.410   .     A
C751   C753    1.417   .     A
C751   C158    1.411   1_556 S
C752   C754    1.417   .     A
C755   C779    1.448   .     S
C755   C135    1.390   1_556 S
C756   C781    1.448   .     S
Cu757  N763    2.011   .     S
Cu757  O769    1.975   .     S
Cu757  O771    1.984   .     S
Cu757  O767    1.959   .     S
Cu757  Cu758   2.677   .     S
Cu757  O765    1.959   .     S
Cu758  N764    2.011   .     S
Cu758  O766    1.959   .     S
Cu758  O770    1.975   .     S
Cu758  O768    1.959   .     S
Cu758  O772    1.984   .     S
C773   N774    1.157   .     T
C775   N776    1.157   .     T
C779   N780    1.157   .     T
C781   N782    1.157   .     T
C785   N786    1.157   .     T
C787   N788    1.157   .     T
C789   N790    1.157   .     T
C791   N792    1.157   .     T
C793   O831    1.287   .     A
C793   O834    1.287   .     A
C793   C802    1.447   .     S
C794   O833    1.287   .     A
C794   O832    1.287   .     A
C794   C801    1.447   .     S
C795   C820    1.408   .     A
C795   H849    1.084   .     S
C796   C819    1.408   .     A
C796   H850    1.084   .     S
C796   C228    1.390   1_556 S
C797   C802    1.409   .     A
C797   C851    1.453   .     S
C797   C931    1.397   1_455 S
C798   C801    1.409   .     A
C798   C853    1.453   .     S
C798   C866    1.397   .     S
C799   C801    1.408   .     A
C799   C855    1.453   .     S
C799   C863    1.397   .     S
C800   C857    1.453   .     S
C800   C802    1.408   .     A
C800   C930    1.397   1_455 S
C803   N830    1.367   .     A
C803   H825    1.081   .     S
C804   H826    1.081   .     S
C804   N829    1.367   .     A
C804   C1003   1.415   .     S
C805   N830    1.367   .     A
C805   H827    1.081   .     S
C806   N829    1.367   .     A
C806   H828    1.081   .     S
C806   C1001   1.415   .     S
C807   O835    1.298   .     A
C807   C812    1.472   .     S
C807   O838    1.293   .     A
C808   O837    1.293   .     A
C808   O836    1.298   .     A
C808   C811    1.472   .     S
C809   C811    1.416   .     A
C809   C819    1.410   .     A
C809   C839    1.452   .     S
C810   C812    1.416   .     A
C810   C820    1.410   .     A
C810   C841    1.452   .     S
C811   C813    1.398   .     A
C812   C814    1.398   .     A
C813   C815    1.396   .     A
C813   H843    1.083   .     S
C814   H844    1.083   .     S
C814   C816    1.396   .     A
C815   C821    1.410   .     A
C815   C817    1.415   .     A
C816   C818    1.415   .     A
C816   C822    1.410   .     A
C817   C819    1.417   .     A
C817   C224    1.411   1_556 S
C818   C820    1.417   .     A
C821   C845    1.448   .     S
C821   C201    1.390   1_556 S
C822   C847    1.448   .     S
Cu823  N829    2.011   .     S
Cu823  O835    1.975   .     S
Cu823  O837    1.984   .     S
Cu823  O833    1.959   .     S
Cu823  Cu824   2.677   .     S
Cu823  O831    1.959   .     S
Cu824  N830    2.011   .     S
Cu824  O832    1.959   .     S
Cu824  O836    1.975   .     S
Cu824  O834    1.959   .     S
Cu824  O838    1.984   .     S
C839   N840    1.157   .     T
C841   N842    1.157   .     T
C845   N846    1.157   .     T
C847   N848    1.157   .     T
C851   N852    1.157   .     T
C853   N854    1.157   .     T
C855   N856    1.157   .     T
C857   N858    1.157   .     T
C859   O897    1.287   .     A
C859   O900    1.287   .     A
C859   C868    1.447   .     S
C860   O899    1.287   .     A
C860   O898    1.287   .     A
C860   C867    1.447   .     S
C861   C886    1.408   .     A
C861   H915    1.084   .     S
C862   C885    1.408   .     A
C862   H916    1.084   .     S
C862   C294    1.390   1_556 S
C863   C868    1.409   .     A
C863   C917    1.453   .     S
C864   C867    1.409   .     A
C864   C919    1.453   .     S
C864   C932    1.397   .     S
C865   C867    1.408   .     A
C865   C921    1.453   .     S
C865   C929    1.397   .     S
C866   C923    1.453   .     S
C866   C868    1.408   .     A
C869   N896    1.367   .     A
C869   H891    1.081   .     S
C870   H892    1.081   .     S
C870   N895    1.367   .     A
C870   C1069   1.415   .     S
C871   N896    1.367   .     A
C871   H893    1.081   .     S
C872   N895    1.367   .     A
C872   H894    1.081   .     S
C872   C1067   1.415   .     S
C873   O901    1.298   .     A
C873   C878    1.472   .     S
C873   O904    1.293   .     A
C874   O903    1.293   .     A
C874   O902    1.298   .     A
C874   C877    1.472   .     S
C875   C877    1.416   .     A
C875   C885    1.410   .     A
C875   C905    1.452   .     S
C876   C878    1.416   .     A
C876   C886    1.410   .     A
C876   C907    1.452   .     S
C877   C879    1.398   .     A
C878   C880    1.398   .     A
C879   C881    1.396   .     A
C879   H909    1.083   .     S
C880   H910    1.083   .     S
C880   C882    1.396   .     A
C881   C887    1.410   .     A
C881   C883    1.415   .     A
C882   C884    1.415   .     A
C882   C888    1.410   .     A
C883   C885    1.417   .     A
C883   C290    1.411   1_556 S
C884   C886    1.417   .     A
C887   C911    1.448   .     S
C887   C267    1.390   1_556 S
C888   C913    1.448   .     S
Cu889  N895    2.011   .     S
Cu889  O901    1.975   .     S
Cu889  O903    1.984   .     S
Cu889  O899    1.959   .     S
Cu889  Cu890   2.677   .     S
Cu889  O897    1.959   .     S
Cu890  N896    2.011   .     S
Cu890  O898    1.959   .     S
Cu890  O902    1.975   .     S
Cu890  O900    1.959   .     S
Cu890  O904    1.984   .     S
C905   N906    1.157   .     T
C907   N908    1.157   .     T
C911   N912    1.157   .     T
C913   N914    1.157   .     T
C917   N918    1.157   .     T
C919   N920    1.157   .     T
C921   N922    1.157   .     T
C923   N924    1.157   .     T
C925   O963    1.287   .     A
C925   O966    1.287   .     A
C925   C934    1.447   .     S
C926   O965    1.287   .     A
C926   O964    1.287   .     A
C926   C933    1.447   .     S
C927   C952    1.408   .     A
C927   H981    1.084   .     S
C928   C951    1.408   .     A
C928   H982    1.084   .     S
C928   C360    1.390   1_556 S
C929   C934    1.409   .     A
C929   C983    1.453   .     S
C930   C933    1.409   .     A
C930   C985    1.453   .     S
C930   C800    1.397   1_655 S
C931   C933    1.408   .     A
C931   C987    1.453   .     S
C931   C797    1.397   1_655 S
C932   C989    1.453   .     S
C932   C934    1.408   .     A
C935   N962    1.367   .     A
C935   H957    1.081   .     S
C936   H958    1.081   .     S
C936   N961    1.367   .     A
C936   C1135   1.415   .     S
C937   N962    1.367   .     A
C937   H959    1.081   .     S
C938   N961    1.367   .     A
C938   H960    1.081   .     S
C938   C1133   1.415   .     S
C939   O967    1.298   .     A
C939   C944    1.472   .     S
C939   O970    1.293   .     A
C940   O969    1.293   .     A
C940   O968    1.298   .     A
C940   C943    1.472   .     S
C941   C943    1.416   .     A
C941   C951    1.410   .     A
C941   C971    1.452   .     S
C942   C944    1.416   .     A
C942   C952    1.410   .     A
C942   C973    1.452   .     S
C943   C945    1.398   .     A
C944   C946    1.398   .     A
C945   C947    1.396   .     A
C945   H975    1.083   .     S
C946   H976    1.083   .     S
C946   C948    1.396   .     A
C947   C953    1.410   .     A
C947   C949    1.415   .     A
C948   C950    1.415   .     A
C948   C954    1.410   .     A
C949   C951    1.417   .     A
C949   C356    1.411   1_556 S
C950   C952    1.417   .     A
C953   C977    1.448   .     S
C953   C333    1.390   1_556 S
C954   C979    1.448   .     S
Cu955  N961    2.011   .     S
Cu955  O967    1.975   .     S
Cu955  O969    1.984   .     S
Cu955  O965    1.959   .     S
Cu955  Cu956   2.677   .     S
Cu955  O963    1.959   .     S
Cu956  N962    2.011   .     S
Cu956  O964    1.959   .     S
Cu956  O968    1.975   .     S
Cu956  O966    1.959   .     S
Cu956  O970    1.984   .     S
C971   N972    1.157   .     T
C973   N974    1.157   .     T
C977   N978    1.157   .     T
C979   N980    1.157   .     T
C983   N984    1.157   .     T
C985   N986    1.157   .     T
C987   N988    1.157   .     T
C989   N990    1.157   .     T
C991   O1029   1.287   .     A
C991   O1032   1.287   .     A
C991   C1000   1.447   .     S
C992   O1031   1.287   .     A
C992   O1030   1.287   .     A
C992   C999    1.447   .     S
C993   C1018   1.408   .     A
C993   H1047   1.084   .     S
C994   C1017   1.408   .     A
C994   H1048   1.084   .     S
C994   C426    1.390   1_556 S
C995   C1000   1.409   .     A
C995   C1049   1.453   .     S
C995   C1129   1.397   1_455 S
C996   C999    1.409   .     A
C996   C1051   1.453   .     S
C996   C1064   1.397   .     S
C997   C999    1.408   .     A
C997   C1053   1.453   .     S
C997   C1061   1.397   .     S
C998   C1055   1.453   .     S
C998   C1000   1.408   .     A
C998   C1128   1.397   1_455 S
C1001  N1028   1.367   .     A
C1001  H1023   1.081   .     S
C1002  H1024   1.081   .     S
C1002  N1027   1.367   .     A
C1002  C607    1.415   1_565 S
C1003  N1028   1.367   .     A
C1003  H1025   1.081   .     S
C1004  N1027   1.367   .     A
C1004  H1026   1.081   .     S
C1004  C605    1.415   1_565 S
C1005  O1033   1.298   .     A
C1005  C1010   1.472   .     S
C1005  O1036   1.293   .     A
C1006  O1035   1.293   .     A
C1006  O1034   1.298   .     A
C1006  C1009   1.472   .     S
C1007  C1009   1.416   .     A
C1007  C1017   1.410   .     A
C1007  C1037   1.452   .     S
C1008  C1010   1.416   .     A
C1008  C1018   1.410   .     A
C1008  C1039   1.452   .     S
C1009  C1011   1.398   .     A
C1010  C1012   1.398   .     A
C1011  C1013   1.396   .     A
C1011  H1041   1.083   .     S
C1012  H1042   1.083   .     S
C1012  C1014   1.396   .     A
C1013  C1019   1.410   .     A
C1013  C1015   1.415   .     A
C1014  C1016   1.415   .     A
C1014  C1020   1.410   .     A
C1015  C1017   1.417   .     A
C1015  C422    1.411   1_556 S
C1016  C1018   1.417   .     A
C1019  C1043   1.448   .     S
C1019  C399    1.390   1_556 S
C1020  C1045   1.448   .     S
Cu1021 N1027   2.011   .     S
Cu1021 O1033   1.975   .     S
Cu1021 O1035   1.984   .     S
Cu1021 O1031   1.959   .     S
Cu1021 Cu1022  2.677   .     S
Cu1021 O1029   1.959   .     S
Cu1022 N1028   2.011   .     S
Cu1022 O1030   1.959   .     S
Cu1022 O1034   1.975   .     S
Cu1022 O1032   1.959   .     S
Cu1022 O1036   1.984   .     S
C1037  N1038   1.157   .     T
C1039  N1040   1.157   .     T
C1043  N1044   1.157   .     T
C1045  N1046   1.157   .     T
C1049  N1050   1.157   .     T
C1051  N1052   1.157   .     T
C1053  N1054   1.157   .     T
C1055  N1056   1.157   .     T
C1057  O1095   1.287   .     A
C1057  O1098   1.287   .     A
C1057  C1066   1.447   .     S
C1058  O1097   1.287   .     A
C1058  O1096   1.287   .     A
C1058  C1065   1.447   .     S
C1059  C1084   1.408   .     A
C1059  H1113   1.084   .     S
C1060  C1083   1.408   .     A
C1060  H1114   1.084   .     S
C1060  C492    1.390   1_556 S
C1061  C1066   1.409   .     A
C1061  C1115   1.453   .     S
C1062  C1065   1.409   .     A
C1062  C1117   1.453   .     S
C1062  C1130   1.397   .     S
C1063  C1065   1.408   .     A
C1063  C1119   1.453   .     S
C1063  C1127   1.397   .     S
C1064  C1121   1.453   .     S
C1064  C1066   1.408   .     A
C1067  N1094   1.367   .     A
C1067  H1089   1.081   .     S
C1068  H1090   1.081   .     S
C1068  N1093   1.367   .     A
C1068  C673    1.415   1_565 S
C1069  N1094   1.367   .     A
C1069  H1091   1.081   .     S
C1070  N1093   1.367   .     A
C1070  H1092   1.081   .     S
C1070  C671    1.415   1_565 S
C1071  O1099   1.298   .     A
C1071  C1076   1.472   .     S
C1071  O1102   1.293   .     A
C1072  O1101   1.293   .     A
C1072  O1100   1.298   .     A
C1072  C1075   1.472   .     S
C1073  C1075   1.416   .     A
C1073  C1083   1.410   .     A
C1073  C1103   1.452   .     S
C1074  C1076   1.416   .     A
C1074  C1084   1.410   .     A
C1074  C1105   1.452   .     S
C1075  C1077   1.398   .     A
C1076  C1078   1.398   .     A
C1077  C1079   1.396   .     A
C1077  H1107   1.083   .     S
C1078  H1108   1.083   .     S
C1078  C1080   1.396   .     A
C1079  C1085   1.410   .     A
C1079  C1081   1.415   .     A
C1080  C1082   1.415   .     A
C1080  C1086   1.410   .     A
C1081  C1083   1.417   .     A
C1081  C488    1.411   1_556 S
C1082  C1084   1.417   .     A
C1085  C1109   1.448   .     S
C1085  C465    1.390   1_556 S
C1086  C1111   1.448   .     S
Cu1087 N1093   2.011   .     S
Cu1087 O1099   1.975   .     S
Cu1087 O1101   1.984   .     S
Cu1087 O1097   1.959   .     S
Cu1087 Cu1088  2.677   .     S
Cu1087 O1095   1.959   .     S
Cu1088 N1094   2.011   .     S
Cu1088 O1096   1.959   .     S
Cu1088 O1100   1.975   .     S
Cu1088 O1098   1.959   .     S
Cu1088 O1102   1.984   .     S
C1103  N1104   1.157   .     T
C1105  N1106   1.157   .     T
C1109  N1110   1.157   .     T
C1111  N1112   1.157   .     T
C1115  N1116   1.157   .     T
C1117  N1118   1.157   .     T
C1119  N1120   1.157   .     T
C1121  N1122   1.157   .     T
C1123  O1161   1.287   .     A
C1123  O1164   1.287   .     A
C1123  C1132   1.447   .     S
C1124  O1163   1.287   .     A
C1124  O1162   1.287   .     A
C1124  C1131   1.447   .     S
C1125  C1150   1.408   .     A
C1125  H1179   1.084   .     S
C1126  C1149   1.408   .     A
C1126  H1180   1.084   .     S
C1126  C558    1.390   1_556 S
C1127  C1132   1.409   .     A
C1127  C1181   1.453   .     S
C1128  C1131   1.409   .     A
C1128  C1183   1.453   .     S
C1128  C998    1.397   1_655 S
C1129  C1131   1.408   .     A
C1129  C1185   1.453   .     S
C1129  C995    1.397   1_655 S
C1130  C1187   1.453   .     S
C1130  C1132   1.408   .     A
C1133  N1160   1.367   .     A
C1133  H1155   1.081   .     S
C1134  H1156   1.081   .     S
C1134  N1159   1.367   .     A
C1134  C739    1.415   1_565 S
C1135  N1160   1.367   .     A
C1135  H1157   1.081   .     S
C1136  N1159   1.367   .     A
C1136  H1158   1.081   .     S
C1136  C737    1.415   1_565 S
C1137  O1165   1.298   .     A
C1137  C1142   1.472   .     S
C1137  O1168   1.293   .     A
C1138  O1167   1.293   .     A
C1138  O1166   1.298   .     A
C1138  C1141   1.472   .     S
C1139  C1141   1.416   .     A
C1139  C1149   1.410   .     A
C1139  C1169   1.452   .     S
C1140  C1142   1.416   .     A
C1140  C1150   1.410   .     A
C1140  C1171   1.452   .     S
C1141  C1143   1.398   .     A
C1142  C1144   1.398   .     A
C1143  C1145   1.396   .     A
C1143  H1173   1.083   .     S
C1144  H1174   1.083   .     S
C1144  C1146   1.396   .     A
C1145  C1151   1.410   .     A
C1145  C1147   1.415   .     A
C1146  C1148   1.415   .     A
C1146  C1152   1.410   .     A
C1147  C1149   1.417   .     A
C1147  C554    1.411   1_556 S
C1148  C1150   1.417   .     A
C1151  C1175   1.448   .     S
C1151  C531    1.390   1_556 S
C1152  C1177   1.448   .     S
Cu1153 N1159   2.011   .     S
Cu1153 O1165   1.975   .     S
Cu1153 O1167   1.984   .     S
Cu1153 O1163   1.959   .     S
Cu1153 Cu1154  2.677   .     S
Cu1153 O1161   1.959   .     S
Cu1154 N1160   2.011   .     S
Cu1154 O1162   1.959   .     S
Cu1154 O1166   1.975   .     S
Cu1154 O1164   1.959   .     S
Cu1154 O1168   1.984   .     S
C1169  N1170   1.157   .     T
C1171  N1172   1.157   .     T
C1175  N1176   1.157   .     T
C1177  N1178   1.157   .     T
C1181  N1182   1.157   .     T
C1183  N1184   1.157   .     T
C1185  N1186   1.157   .     T
C1187  N1188   1.157   .     T
