data_str_m1_o1_o17_pcu_sym.93
_audit_creation_date              2020-01-03
_audit_creation_method            'Materials Studio'
_symmetry_space_group_name_H-M    'P1'
_symmetry_Int_Tables_number       1
_symmetry_cell_setting            triclinic
loop_
_symmetry_equiv_pos_as_xyz
  x,y,z
_cell_length_a                    36.5185
_cell_length_b                    36.5930
_cell_length_c                    34.4729
_cell_angle_alpha                 90.0000
_cell_angle_beta                  90.1010
_cell_angle_gamma                 90.0000
loop_
_atom_site_label
_atom_site_type_symbol
_atom_site_fract_x
_atom_site_fract_y
_atom_site_fract_z
_atom_site_U_iso_or_equiv
_atom_site_adp_type
_atom_site_occupancy
C1     C     0.03334   0.24998   0.41892   0.00000  Uiso   1.00
C2     C     0.21667   0.00002   0.08108   0.00000  Uiso   1.00
C3     C     0.25001   0.46654   0.54069   0.00000  Uiso   1.00
C4     C     0.03355   0.24998   0.45938   0.00000  Uiso   1.00
C5     C     0.46645   0.24998   0.54062   0.00000  Uiso   1.00
C6     C     0.25000   0.46654   0.45931   0.00000  Uiso   1.00
C7     C     0.25000   0.03346   0.54069   0.00000  Uiso   1.00
C8     C     0.21649   0.00002   0.95924   0.00000  Uiso   1.00
C9     C     0.28351   0.00002   0.04076   0.00000  Uiso   1.00
C10    C    -0.00000   0.28346   0.95931   0.00000  Uiso   1.00
C11    C     0.00000   0.21654   0.04069   0.00000  Uiso   1.00
C12    C     0.28355   0.00002   0.95938   0.00000  Uiso   1.00
C13    C     0.49999   0.21677   0.91884   0.00000  Uiso   1.00
C14    C     0.21645   0.00002   0.04062   0.00000  Uiso   1.00
C15    C    -0.00000   0.21654   0.95931   0.00000  Uiso   1.00
C16    C     0.00000   0.28346   0.04069   0.00000  Uiso   1.00
C17    C     0.09810   0.34805   0.25046   0.00000  Uiso   1.00
C18    C     0.40195   0.15190   0.74974   0.00000  Uiso   1.00
C19    C     0.15195   0.09810   0.24974   0.00000  Uiso   1.00
C20    C     0.34810   0.40195   0.75046   0.00000  Uiso   1.00
C21    C     0.40191   0.15195   0.24966   0.00000  Uiso   1.00
C22    C     0.09809   0.34806   0.75036   0.00000  Uiso   1.00
C23    C     0.34809   0.40194   0.25036   0.00000  Uiso   1.00
C24    C     0.00001   0.28323   0.08116   0.00000  Uiso   1.00
C25    C     0.15191   0.09805   0.74966   0.00000  Uiso   1.00
C26    C     0.09810   0.15195   0.75034   0.00000  Uiso   1.00
C27    C     0.40191   0.34806   0.24964   0.00000  Uiso   1.00
C28    C     0.15191   0.40194   0.74964   0.00000  Uiso   1.00
C29    C     0.34810   0.09805   0.25034   0.00000  Uiso   1.00
C30    C     0.40190   0.34805   0.74954   0.00000  Uiso   1.00
C31    C     0.09805   0.15190   0.25026   0.00000  Uiso   1.00
C32    C     0.34805   0.09810   0.75026   0.00000  Uiso   1.00
C33    C     0.15190   0.40195   0.24954   0.00000  Uiso   1.00
C34    C     0.00001   0.24998   0.47964   0.00000  Uiso   1.00
C35    C     0.21674   0.00001   0.91878   0.00000  Uiso   1.00
C36    C     0.49999   0.24998   0.52036   0.00000  Uiso   1.00
C37    C     0.25000   0.00000   0.47964   0.00000  Uiso   1.00
C38    C     0.25000   0.00000   0.52036   0.00000  Uiso   1.00
C39    C     0.25001   0.00002   0.97964   0.00000  Uiso   1.00
C40    C     0.24999   0.00002   0.02036   0.00000  Uiso   1.00
C41    C    -0.00000   0.25000   0.97964   0.00000  Uiso   1.00
C42    C     0.00000   0.25000   0.02036   0.00000  Uiso   1.00
C43    C     0.10966   0.44866   0.28000   0.00000  Uiso   1.00
C44    C     0.38736   0.05413   0.71199   0.00000  Uiso   1.00
C45    C     0.05492   0.11131   0.28959   0.00000  Uiso   1.00
C46    C     0.28327   0.00001   0.08122   0.00000  Uiso   1.00
C47    C     0.44731   0.39097   0.71632   0.00000  Uiso   1.00
C48    C     0.39106   0.05305   0.28425   0.00000  Uiso   1.00
C49    C     0.10868   0.44723   0.71653   0.00000  Uiso   1.00
C50    C     0.44892   0.39010   0.28022   0.00000  Uiso   1.00
C51    C     0.05138   0.11026   0.71874   0.00000  Uiso   1.00
C52    C     0.10894   0.05305   0.71575   0.00000  Uiso   1.00
C53    C     0.39132   0.44723   0.28347   0.00000  Uiso   1.00
C54    C     0.05108   0.39010   0.71978   0.00000  Uiso   1.00
C55    C     0.44862   0.11026   0.28127   0.00000  Uiso   1.00
C56    C     0.39034   0.44866   0.72001   0.00000  Uiso   1.00
C57    C     0.49999   0.28323   0.91884   0.00000  Uiso   1.00
C58    C     0.11264   0.05413   0.28800   0.00000  Uiso   1.00
C59    C     0.44508   0.11131   0.71040   0.00000  Uiso   1.00
C60    C     0.05269   0.39097   0.28369   0.00000  Uiso   1.00
C61    C     0.36264   0.19587   0.78801   0.00000  Uiso   1.00
C62    C     0.14034   0.30134   0.22000   0.00000  Uiso   1.00
C63    C     0.30269   0.35903   0.78368   0.00000  Uiso   1.00
C64    C     0.19508   0.13869   0.21041   0.00000  Uiso   1.00
C65    C     0.14132   0.30277   0.78347   0.00000  Uiso   1.00
C66    C     0.35894   0.19695   0.21575   0.00000  Uiso   1.00
C67    C     0.19862   0.13974   0.78127   0.00000  Uiso   1.00
C68    C     0.00001   0.21677   0.08116   0.00000  Uiso   1.00
C69    C     0.30108   0.35990   0.21978   0.00000  Uiso   1.00
C70    C     0.35868   0.30277   0.21653   0.00000  Uiso   1.00
C71    C     0.14106   0.19695   0.78425   0.00000  Uiso   1.00
C72    C     0.30138   0.13974   0.21874   0.00000  Uiso   1.00
C73    C     0.19892   0.35990   0.78022   0.00000  Uiso   1.00
C74    C     0.13736   0.19587   0.21200   0.00000  Uiso   1.00
C75    C     0.35966   0.30134   0.77999   0.00000  Uiso   1.00
C76    C     0.19731   0.35903   0.21632   0.00000  Uiso   1.00
C77    C     0.30492   0.13869   0.78960   0.00000  Uiso   1.00
C78    C     0.00004   0.24999   0.39851   0.00000  Uiso   1.00
C79    C     0.49996   0.24999   0.60149   0.00000  Uiso   1.00
C80    C     0.24999   0.00000   0.39850   0.00000  Uiso   1.00
C81    C     0.46667   0.24998   0.58108   0.00000  Uiso   1.00
C82    C     0.25001   0.00000   0.60150   0.00000  Uiso   1.00
C83    C     0.25004   0.00001   0.89851   0.00000  Uiso   1.00
C84    C     0.24996   0.00001   0.10149   0.00000  Uiso   1.00
C85    C     0.49999   0.25000   0.89850   0.00000  Uiso   1.00
C86    C     0.00001   0.25000   0.10150   0.00000  Uiso   1.00
C87    C     0.43330   0.24998   0.47962   0.00000  Uiso   1.00
C88    C     0.06670   0.24998   0.52038   0.00000  Uiso   1.00
C89    C     0.24999   0.06657   0.47977   0.00000  Uiso   1.00
C90    C     0.25000   0.43343   0.52023   0.00000  Uiso   1.00
C91    C     0.06672   0.24998   0.47992   0.00000  Uiso   1.00
C92    C     0.25000   0.46677   0.41884   0.00000  Uiso   1.00
C93    C     0.43328   0.24998   0.52008   0.00000  Uiso   1.00
C94    C     0.25000   0.43343   0.47977   0.00000  Uiso   1.00
C95    C     0.25000   0.06657   0.52023   0.00000  Uiso   1.00
C96    C     0.18330   0.00002   0.97962   0.00000  Uiso   1.00
C97    C     0.31670   0.00002   0.02038   0.00000  Uiso   1.00
C98    C    -0.00000   0.31657   0.97977   0.00000  Uiso   1.00
C99    C     0.00000   0.18343   0.02023   0.00000  Uiso   1.00
C100   C     0.31672   0.00002   0.97992   0.00000  Uiso   1.00
C101   C     0.18328   0.00002   0.02008   0.00000  Uiso   1.00
C102   C    -0.00000   0.18343   0.97977   0.00000  Uiso   1.00
C103   C     0.25001   0.03323   0.58116   0.00000  Uiso   1.00
C104   C     0.00000   0.31657   0.02023   0.00000  Uiso   1.00
C105   C     0.25000  -0.00000   0.35602   0.00000  Uiso   1.00
C106   C     0.25000  -0.00000   0.64399   0.00000  Uiso   1.00
C107   C     0.00002   0.25000   0.35604   0.00000  Uiso   1.00
C108   C     0.49998   0.25000   0.64397   0.00000  Uiso   1.00
C109   C    -0.00000   0.25000   0.85602   0.00000  Uiso   1.00
C110   C     0.00000   0.25000   0.14399   0.00000  Uiso   1.00
C111   C     0.25002   0.00000   0.85604   0.00000  Uiso   1.00
C112   C     0.24998   0.00000   0.14397   0.00000  Uiso   1.00
C113   C     0.17999   0.06991   0.25001   0.00000  Uiso   1.00
C114   C     0.46674   0.24998   0.41878   0.00000  Uiso   1.00
C115   C     0.32002   0.43009   0.75003   0.00000  Uiso   1.00
C116   C     0.43007   0.18001   0.25000   0.00000  Uiso   1.00
C117   C     0.06992   0.31999   0.75000   0.00000  Uiso   1.00
C118   C     0.31992   0.43001   0.25000   0.00000  Uiso   1.00
C119   C     0.18007   0.06999   0.75000   0.00000  Uiso   1.00
C120   C     0.07002   0.31991   0.25003   0.00000  Uiso   1.00
C121   C     0.42999   0.18009   0.75001   0.00000  Uiso   1.00
C122   C     0.18008   0.43001   0.75000   0.00000  Uiso   1.00
C123   C     0.31993   0.06999   0.25000   0.00000  Uiso   1.00
C124   C     0.42998   0.31991   0.74997   0.00000  Uiso   1.00
C125   C     0.03327   0.24999   0.58122   0.00000  Uiso   1.00
C126   C     0.07001   0.18009   0.25000   0.00000  Uiso   1.00
C127   C     0.32001   0.06991   0.75000   0.00000  Uiso   1.00
C128   C     0.17998   0.43009   0.24997   0.00000  Uiso   1.00
C129   C     0.06993   0.18001   0.75000   0.00000  Uiso   1.00
C130   C     0.43008   0.31999   0.25000   0.00000  Uiso   1.00
C131   C     0.11698   0.41032   0.26480   0.00000  Uiso   1.00
C132   C     0.38168   0.09098   0.73150   0.00000  Uiso   1.00
C133   C     0.09101   0.11821   0.26889   0.00000  Uiso   1.00
C134   C     0.41017   0.38296   0.73433   0.00000  Uiso   1.00
C135   C     0.38303   0.09000   0.26595   0.00000  Uiso   1.00
C136   C     0.24999   0.03323   0.41884   0.00000  Uiso   1.00
C137   C     0.11685   0.41014   0.73446   0.00000  Uiso   1.00
C138   C     0.41048   0.38294   0.26476   0.00000  Uiso   1.00
C139   C     0.08965   0.11721   0.73477   0.00000  Uiso   1.00
C140   C     0.11697   0.09000   0.73405   0.00000  Uiso   1.00
C141   C     0.38315   0.41013   0.26554   0.00000  Uiso   1.00
C142   C     0.08952   0.38294   0.73524   0.00000  Uiso   1.00
C143   C     0.41035   0.11721   0.26523   0.00000  Uiso   1.00
C144   C     0.38302   0.41032   0.73520   0.00000  Uiso   1.00
C145   C     0.11832   0.09098   0.26849   0.00000  Uiso   1.00
C146   C     0.40899   0.11821   0.73111   0.00000  Uiso   1.00
C147   C     0.25001   0.46677   0.58116   0.00000  Uiso   1.00
C148   C     0.08983   0.38296   0.26568   0.00000  Uiso   1.00
C149   C     0.36832   0.15902   0.76850   0.00000  Uiso   1.00
C150   C     0.13302   0.33968   0.23520   0.00000  Uiso   1.00
C151   C     0.33983   0.36704   0.76568   0.00000  Uiso   1.00
C152   C     0.15899   0.13179   0.23111   0.00000  Uiso   1.00
C153   C     0.13315   0.33986   0.76554   0.00000  Uiso   1.00
C154   C     0.36697   0.16000   0.23405   0.00000  Uiso   1.00
C155   C     0.16035   0.13279   0.76523   0.00000  Uiso   1.00
C156   C     0.33952   0.36706   0.23524   0.00000  Uiso   1.00
C157   C     0.36685   0.33986   0.23446   0.00000  Uiso   1.00
C158   C     0.28334   0.00002   0.91892   0.00000  Uiso   1.00
C159   C     0.13303   0.16000   0.76595   0.00000  Uiso   1.00
C160   C     0.33965   0.13279   0.23477   0.00000  Uiso   1.00
C161   C     0.16048   0.36706   0.76476   0.00000  Uiso   1.00
C162   C     0.13168   0.15902   0.23151   0.00000  Uiso   1.00
C163   C     0.36698   0.33968   0.76480   0.00000  Uiso   1.00
C164   C     0.16017   0.36704   0.23432   0.00000  Uiso   1.00
C165   C     0.34101   0.13179   0.76889   0.00000  Uiso   1.00
C166   C     0.46649   0.24998   0.45924   0.00000  Uiso   1.00
C167   C     0.03351   0.24998   0.54076   0.00000  Uiso   1.00
C168   C     0.24999   0.03346   0.45931   0.00000  Uiso   1.00
H169   H     0.40738   0.24998   0.46427   0.00000  Uiso   1.00
H170   H     0.34262   0.00002   0.03573   0.00000  Uiso   1.00
H171   H     0.20280   0.16718   0.79390   0.00000  Uiso   1.00
H172   H     0.20485   0.11960   0.80446   0.00000  Uiso   1.00
H173   H     0.28098   0.36285   0.24367   0.00000  Uiso   1.00
H174   H     0.29448   0.37990   0.19658   0.00000  Uiso   1.00
H175   H     0.29682   0.33239   0.20736   0.00000  Uiso   1.00
H176   H     0.38244   0.28405   0.21555   0.00000  Uiso   1.00
H177   H     0.33683   0.28885   0.23332   0.00000  Uiso   1.00
H178   H     0.34979   0.30636   0.18595   0.00000  Uiso   1.00
H179   H     0.11733   0.21572   0.78505   0.00000  Uiso   1.00
H180   H     0.14961   0.19315   0.81491   0.00000  Uiso   1.00
H181   H    -0.00000   0.34245   0.96448   0.00000  Uiso   1.00
H182   H     0.16312   0.21094   0.76784   0.00000  Uiso   1.00
H183   H     0.28094   0.13682   0.24232   0.00000  Uiso   1.00
H184   H     0.29720   0.16718   0.20610   0.00000  Uiso   1.00
H185   H     0.29515   0.11960   0.19554   0.00000  Uiso   1.00
H186   H     0.21902   0.36285   0.75632   0.00000  Uiso   1.00
H187   H     0.20552   0.37990   0.80342   0.00000  Uiso   1.00
H188   H     0.20318   0.33239   0.79264   0.00000  Uiso   1.00
H189   H     0.13556   0.21775   0.23413   0.00000  Uiso   1.00
H190   H     0.16403   0.19920   0.19731   0.00000  Uiso   1.00
H191   H     0.11578   0.20030   0.18976   0.00000  Uiso   1.00
H192   H     0.00000   0.15755   0.03553   0.00000  Uiso   1.00
H193   H     0.36205   0.28163   0.75571   0.00000  Uiso   1.00
H194   H     0.37998   0.29430   0.80280   0.00000  Uiso   1.00
H195   H     0.33224   0.29724   0.79279   0.00000  Uiso   1.00
H196   H     0.21607   0.38276   0.21536   0.00000  Uiso   1.00
H197   H     0.21134   0.33718   0.23303   0.00000  Uiso   1.00
H198   H     0.19363   0.35026   0.18573   0.00000  Uiso   1.00
H199   H     0.28566   0.11534   0.78894   0.00000  Uiso   1.00
H200   H     0.31019   0.14459   0.82070   0.00000  Uiso   1.00
H201   H     0.29061   0.16219   0.77596   0.00000  Uiso   1.00
H202   H     0.34265   0.00002   0.96468   0.00000  Uiso   1.00
H203   H     0.15735   0.00002   0.03532   0.00000  Uiso   1.00
H204   H    -0.00000   0.15755   0.96448   0.00000  Uiso   1.00
H205   H     0.00000   0.34245   0.03553   0.00000  Uiso   1.00
H206   H     0.05911   0.24999   0.40336   0.00000  Uiso   1.00
H207   H     0.44089   0.24998   0.59664   0.00000  Uiso   1.00
H208   H     0.25000   0.44104   0.40324   0.00000  Uiso   1.00
H209   H     0.09262   0.24998   0.53573   0.00000  Uiso   1.00
H210   H     0.25001   0.05896   0.59676   0.00000  Uiso   1.00
H211   H     0.44096   0.24999   0.40312   0.00000  Uiso   1.00
H212   H     0.05904   0.24999   0.59688   0.00000  Uiso   1.00
H213   H     0.24999   0.05896   0.40324   0.00000  Uiso   1.00
H214   H     0.25001   0.44104   0.59676   0.00000  Uiso   1.00
H215   H     0.30911   0.00001   0.90336   0.00000  Uiso   1.00
H216   H     0.19089   0.00001   0.09664   0.00000  Uiso   1.00
H217   H     0.49999   0.19104   0.90324   0.00000  Uiso   1.00
H218   H     0.00001   0.30896   0.09676   0.00000  Uiso   1.00
H219   H     0.19096   0.00001   0.90312   0.00000  Uiso   1.00
H220   H     0.24999   0.09245   0.46448   0.00000  Uiso   1.00
H221   H     0.30904   0.00001   0.09688   0.00000  Uiso   1.00
H222   H     0.49999   0.30896   0.90324   0.00000  Uiso   1.00
H223   H     0.00001   0.19104   0.09676   0.00000  Uiso   1.00
H224   H     0.11205   0.46837   0.25572   0.00000  Uiso   1.00
H225   H     0.08225   0.45275   0.29280   0.00000  Uiso   1.00
H226   H     0.12999   0.45569   0.30281   0.00000  Uiso   1.00
H227   H     0.38556   0.03225   0.73412   0.00000  Uiso   1.00
H228   H     0.36577   0.04971   0.68976   0.00000  Uiso   1.00
H229   H     0.41403   0.05080   0.69731   0.00000  Uiso   1.00
H230   H     0.03566   0.13466   0.28893   0.00000  Uiso   1.00
H231   H     0.25001   0.40755   0.53553   0.00000  Uiso   1.00
H232   H     0.04061   0.08781   0.27595   0.00000  Uiso   1.00
H233   H     0.06019   0.10541   0.32070   0.00000  Uiso   1.00
H234   H     0.46608   0.36724   0.71537   0.00000  Uiso   1.00
H235   H     0.44364   0.39975   0.68573   0.00000  Uiso   1.00
H236   H     0.46134   0.41282   0.73304   0.00000  Uiso   1.00
H237   H     0.36733   0.03428   0.28505   0.00000  Uiso   1.00
H238   H     0.41312   0.03906   0.26784   0.00000  Uiso   1.00
H239   H     0.39961   0.05685   0.31491   0.00000  Uiso   1.00
H240   H     0.13244   0.46595   0.71555   0.00000  Uiso   1.00
H241   H     0.09979   0.44364   0.68596   0.00000  Uiso   1.00
H242   H     0.09265   0.24998   0.46468   0.00000  Uiso   1.00
H243   H     0.08683   0.46115   0.73332   0.00000  Uiso   1.00
H244   H     0.46902   0.38715   0.25633   0.00000  Uiso   1.00
H245   H     0.45318   0.41761   0.29264   0.00000  Uiso   1.00
H246   H     0.45552   0.37010   0.30343   0.00000  Uiso   1.00
H247   H     0.03094   0.11318   0.74232   0.00000  Uiso   1.00
H248   H     0.04515   0.13040   0.69554   0.00000  Uiso   1.00
H249   H     0.04720   0.08282   0.70610   0.00000  Uiso   1.00
H250   H     0.13267   0.03428   0.71495   0.00000  Uiso   1.00
H251   H     0.08688   0.03906   0.73216   0.00000  Uiso   1.00
H252   H     0.10039   0.05685   0.68509   0.00000  Uiso   1.00
H253   H     0.40735   0.24998   0.53532   0.00000  Uiso   1.00
H254   H     0.36756   0.46595   0.28445   0.00000  Uiso   1.00
H255   H     0.40021   0.44364   0.31405   0.00000  Uiso   1.00
H256   H     0.41317   0.46115   0.26668   0.00000  Uiso   1.00
H257   H     0.03098   0.38715   0.74368   0.00000  Uiso   1.00
H258   H     0.04682   0.41761   0.70736   0.00000  Uiso   1.00
H259   H     0.04448   0.37010   0.69658   0.00000  Uiso   1.00
H260   H     0.46906   0.11318   0.25768   0.00000  Uiso   1.00
H261   H     0.45485   0.13040   0.30446   0.00000  Uiso   1.00
H262   H     0.45280   0.08282   0.29390   0.00000  Uiso   1.00
H263   H     0.38795   0.46837   0.74429   0.00000  Uiso   1.00
H264   H     0.25000   0.40755   0.46448   0.00000  Uiso   1.00
H265   H     0.41776   0.45276   0.70721   0.00000  Uiso   1.00
H266   H     0.37002   0.45570   0.69720   0.00000  Uiso   1.00
H267   H     0.11444   0.03225   0.26587   0.00000  Uiso   1.00
H268   H     0.13423   0.04970   0.31024   0.00000  Uiso   1.00
H269   H     0.08597   0.05080   0.30269   0.00000  Uiso   1.00
H270   H     0.46434   0.13466   0.71106   0.00000  Uiso   1.00
H271   H     0.45939   0.08781   0.72405   0.00000  Uiso   1.00
H272   H     0.43981   0.10541   0.67930   0.00000  Uiso   1.00
H273   H     0.03393   0.36724   0.28464   0.00000  Uiso   1.00
H274   H     0.05637   0.39974   0.31428   0.00000  Uiso   1.00
H275   H     0.25000   0.09245   0.53553   0.00000  Uiso   1.00
H276   H     0.03867   0.41282   0.26697   0.00000  Uiso   1.00
H277   H     0.36444   0.21775   0.76588   0.00000  Uiso   1.00
H278   H     0.33597   0.19920   0.80269   0.00000  Uiso   1.00
H279   H     0.38423   0.20029   0.81024   0.00000  Uiso   1.00
H280   H     0.13795   0.28163   0.24428   0.00000  Uiso   1.00
H281   H     0.12001   0.29431   0.19719   0.00000  Uiso   1.00
H282   H     0.16776   0.29725   0.20720   0.00000  Uiso   1.00
H283   H     0.28393   0.38276   0.78463   0.00000  Uiso   1.00
H284   H     0.28866   0.33718   0.76696   0.00000  Uiso   1.00
H285   H     0.30636   0.35025   0.81427   0.00000  Uiso   1.00
H286   H     0.15738   0.00002   0.96427   0.00000  Uiso   1.00
H287   H     0.21434   0.11534   0.21107   0.00000  Uiso   1.00
H288   H     0.18981   0.14459   0.17930   0.00000  Uiso   1.00
H289   H     0.20939   0.16219   0.22405   0.00000  Uiso   1.00
H290   H     0.11756   0.28405   0.78445   0.00000  Uiso   1.00
H291   H     0.16317   0.28885   0.76668   0.00000  Uiso   1.00
H292   H     0.15021   0.30636   0.81405   0.00000  Uiso   1.00
H293   H     0.38267   0.21572   0.21495   0.00000  Uiso   1.00
H294   H     0.35039   0.19315   0.18509   0.00000  Uiso   1.00
H295   H     0.33688   0.21094   0.23216   0.00000  Uiso   1.00
H296   H     0.21906   0.13682   0.75768   0.00000  Uiso   1.00
O297   O     0.25000  -0.00000   0.25000   0.00000  Uiso   1.00
O298   O     0.25000   0.46963   0.66245   0.00000  Uiso   1.00
O299   O     0.46964   0.25000   0.33755   0.00000  Uiso   1.00
O300   O     0.03037   0.25000   0.66245   0.00000  Uiso   1.00
O301   O     0.00000   0.21964   0.83755   0.00000  Uiso   1.00
O302   O     0.00000   0.28037   0.16245   0.00000  Uiso   1.00
O303   O     0.28037  -0.00000   0.83755   0.00000  Uiso   1.00
O304   O     0.21964  -0.00000   0.16245   0.00000  Uiso   1.00
O305   O     0.00000   0.28037   0.83755   0.00000  Uiso   1.00
O306   O     0.00000   0.21964   0.16245   0.00000  Uiso   1.00
O307   O     0.21964  -0.00000   0.83755   0.00000  Uiso   1.00
O308   O     0.25000  -0.00000   0.75000   0.00000  Uiso   1.00
O309   O     0.28037  -0.00000   0.16245   0.00000  Uiso   1.00
O310   O     0.20725   0.07307   0.27302   0.00000  Uiso   1.00
O311   O     0.29276   0.42692   0.72698   0.00000  Uiso   1.00
O312   O     0.42693   0.20724   0.27302   0.00000  Uiso   1.00
O313   O     0.07308   0.29275   0.72698   0.00000  Uiso   1.00
O314   O     0.29276   0.42692   0.27302   0.00000  Uiso   1.00
O315   O     0.20725   0.07307   0.72698   0.00000  Uiso   1.00
O316   O     0.07308   0.29275   0.27302   0.00000  Uiso   1.00
O317   O     0.42693   0.20724   0.72698   0.00000  Uiso   1.00
O318   O     0.20725   0.42692   0.72698   0.00000  Uiso   1.00
O319   O     0.00000   0.25000   0.25000   0.00000  Uiso   1.00
O320   O     0.29276   0.07307   0.27302   0.00000  Uiso   1.00
O321   O     0.42693   0.29275   0.72698   0.00000  Uiso   1.00
O322   O     0.07308   0.20724   0.27302   0.00000  Uiso   1.00
O323   O     0.29276   0.07307   0.72698   0.00000  Uiso   1.00
O324   O     0.20725   0.42692   0.27302   0.00000  Uiso   1.00
O325   O     0.07308   0.20724   0.72698   0.00000  Uiso   1.00
O326   O     0.42693   0.29275   0.27302   0.00000  Uiso   1.00
O327   O     0.45725   0.32307   0.77302   0.00000  Uiso   1.00
O328   O     0.04276   0.17692   0.22698   0.00000  Uiso   1.00
O329   O     0.17693   0.45724   0.77302   0.00000  Uiso   1.00
O330   O     0.00000   0.25000   0.75000   0.00000  Uiso   1.00
O331   O     0.32308   0.04275   0.22698   0.00000  Uiso   1.00
O332   O     0.04276   0.17692   0.77302   0.00000  Uiso   1.00
O333   O     0.45725   0.32307   0.22698   0.00000  Uiso   1.00
O334   O     0.32308   0.04275   0.77302   0.00000  Uiso   1.00
O335   O     0.17693   0.45724   0.22698   0.00000  Uiso   1.00
O336   O     0.45725   0.17692   0.22698   0.00000  Uiso   1.00
O337   O     0.04276   0.32307   0.77302   0.00000  Uiso   1.00
O338   O     0.17693   0.04275   0.22698   0.00000  Uiso   1.00
O339   O     0.32308   0.45724   0.77302   0.00000  Uiso   1.00
O340   O     0.04276   0.32307   0.22698   0.00000  Uiso   1.00
O341   O     0.25000   0.46963   0.33755   0.00000  Uiso   1.00
O342   O     0.45725   0.17692   0.77302   0.00000  Uiso   1.00
O343   O     0.32308   0.45724   0.22698   0.00000  Uiso   1.00
O344   O     0.17693   0.04275   0.77302   0.00000  Uiso   1.00
O345   O     0.25000   0.03036   0.66245   0.00000  Uiso   1.00
O346   O     0.03037   0.25000   0.33755   0.00000  Uiso   1.00
O347   O     0.46964   0.25000   0.66245   0.00000  Uiso   1.00
O348   O     0.25000   0.03036   0.33755   0.00000  Uiso   1.00
Zn349  Zn    0.20660  -0.00000   0.21735   0.00000  Uiso   1.00
Zn350  Zn    0.04341   0.25000   0.28265   0.00000  Uiso   1.00
Zn351  Zn    0.25000   0.45659   0.71735   0.00000  Uiso   1.00
Zn352  Zn    0.25000   0.04340   0.28265   0.00000  Uiso   1.00
Zn353  Zn    0.04341   0.25000   0.71735   0.00000  Uiso   1.00
Zn354  Zn    0.45660   0.25000   0.28265   0.00000  Uiso   1.00
Zn355  Zn    0.25000   0.04340   0.71735   0.00000  Uiso   1.00
Zn356  Zn    0.25000   0.45659   0.28265   0.00000  Uiso   1.00
Zn357  Zn    0.29341  -0.00000   0.78265   0.00000  Uiso   1.00
Zn358  Zn    0.00000   0.20660   0.21735   0.00000  Uiso   1.00
Zn359  Zn    0.00000   0.29341   0.78265   0.00000  Uiso   1.00
Zn360  Zn    0.29341  -0.00000   0.21735   0.00000  Uiso   1.00
Zn361  Zn    0.20660  -0.00000   0.78265   0.00000  Uiso   1.00
Zn362  Zn    0.00000   0.29341   0.21735   0.00000  Uiso   1.00
Zn363  Zn    0.00000   0.20660   0.78265   0.00000  Uiso   1.00
Zn364  Zn    0.45660   0.25000   0.71735   0.00000  Uiso   1.00
C365   C     0.53334   0.24998   0.41892   0.00000  Uiso   1.00
C366   C     0.71667   0.00002   0.08108   0.00000  Uiso   1.00
C367   C     0.75001   0.46654   0.54069   0.00000  Uiso   1.00
C368   C     0.53355   0.24998   0.45938   0.00000  Uiso   1.00
C369   C     0.96645   0.24998   0.54062   0.00000  Uiso   1.00
C370   C     0.75000   0.46654   0.45931   0.00000  Uiso   1.00
C371   C     0.75000   0.03346   0.54069   0.00000  Uiso   1.00
C372   C     0.71649   0.00002   0.95924   0.00000  Uiso   1.00
C373   C     0.78351   0.00002   0.04076   0.00000  Uiso   1.00
C374   C     0.50000   0.28346   0.95931   0.00000  Uiso   1.00
C375   C     0.50000   0.21654   0.04069   0.00000  Uiso   1.00
C376   C     0.78355   0.00002   0.95938   0.00000  Uiso   1.00
C377   C     0.99999   0.21677   0.91884   0.00000  Uiso   1.00
C378   C     0.71645   0.00002   0.04062   0.00000  Uiso   1.00
C379   C     0.50000   0.21654   0.95931   0.00000  Uiso   1.00
C380   C     0.50000   0.28346   0.04069   0.00000  Uiso   1.00
C381   C     0.59810   0.34805   0.25046   0.00000  Uiso   1.00
C382   C     0.90195   0.15190   0.74974   0.00000  Uiso   1.00
C383   C     0.65195   0.09810   0.24974   0.00000  Uiso   1.00
C384   C     0.84810   0.40195   0.75046   0.00000  Uiso   1.00
C385   C     0.90191   0.15195   0.24966   0.00000  Uiso   1.00
C386   C     0.59809   0.34806   0.75036   0.00000  Uiso   1.00
C387   C     0.84809   0.40194   0.25036   0.00000  Uiso   1.00
C388   C     0.50001   0.28323   0.08116   0.00000  Uiso   1.00
C389   C     0.65191   0.09805   0.74966   0.00000  Uiso   1.00
C390   C     0.59810   0.15195   0.75034   0.00000  Uiso   1.00
C391   C     0.90191   0.34806   0.24964   0.00000  Uiso   1.00
C392   C     0.65191   0.40194   0.74964   0.00000  Uiso   1.00
C393   C     0.84810   0.09805   0.25034   0.00000  Uiso   1.00
C394   C     0.90190   0.34805   0.74954   0.00000  Uiso   1.00
C395   C     0.59805   0.15190   0.25026   0.00000  Uiso   1.00
C396   C     0.84805   0.09810   0.75026   0.00000  Uiso   1.00
C397   C     0.65190   0.40195   0.24954   0.00000  Uiso   1.00
C398   C     0.50001   0.24998   0.47964   0.00000  Uiso   1.00
C399   C     0.71674   0.00001   0.91878   0.00000  Uiso   1.00
C400   C     0.99999   0.24998   0.52036   0.00000  Uiso   1.00
C401   C     0.75000   0.00000   0.47964   0.00000  Uiso   1.00
C402   C     0.75000   0.00000   0.52036   0.00000  Uiso   1.00
C403   C     0.75001   0.00002   0.97964   0.00000  Uiso   1.00
C404   C     0.74999   0.00002   0.02036   0.00000  Uiso   1.00
C405   C     0.50000   0.25000   0.97964   0.00000  Uiso   1.00
C406   C     0.50000   0.25000   0.02036   0.00000  Uiso   1.00
C407   C     0.60966   0.44866   0.28000   0.00000  Uiso   1.00
C408   C     0.88736   0.05413   0.71199   0.00000  Uiso   1.00
C409   C     0.55492   0.11131   0.28959   0.00000  Uiso   1.00
C410   C     0.78327   0.00001   0.08122   0.00000  Uiso   1.00
C411   C     0.94731   0.39097   0.71632   0.00000  Uiso   1.00
C412   C     0.89106   0.05305   0.28425   0.00000  Uiso   1.00
C413   C     0.60868   0.44723   0.71653   0.00000  Uiso   1.00
C414   C     0.94892   0.39010   0.28022   0.00000  Uiso   1.00
C415   C     0.55138   0.11026   0.71874   0.00000  Uiso   1.00
C416   C     0.60894   0.05305   0.71575   0.00000  Uiso   1.00
C417   C     0.89132   0.44723   0.28347   0.00000  Uiso   1.00
C418   C     0.55108   0.39010   0.71978   0.00000  Uiso   1.00
C419   C     0.94862   0.11026   0.28127   0.00000  Uiso   1.00
C420   C     0.89034   0.44866   0.72001   0.00000  Uiso   1.00
C421   C     0.99999   0.28323   0.91884   0.00000  Uiso   1.00
C422   C     0.61264   0.05413   0.28800   0.00000  Uiso   1.00
C423   C     0.94508   0.11131   0.71040   0.00000  Uiso   1.00
C424   C     0.55269   0.39097   0.28369   0.00000  Uiso   1.00
C425   C     0.86264   0.19587   0.78801   0.00000  Uiso   1.00
C426   C     0.64034   0.30134   0.22000   0.00000  Uiso   1.00
C427   C     0.80269   0.35903   0.78368   0.00000  Uiso   1.00
C428   C     0.69508   0.13869   0.21041   0.00000  Uiso   1.00
C429   C     0.64132   0.30277   0.78347   0.00000  Uiso   1.00
C430   C     0.85894   0.19695   0.21575   0.00000  Uiso   1.00
C431   C     0.69862   0.13974   0.78127   0.00000  Uiso   1.00
C432   C     0.50001   0.21677   0.08116   0.00000  Uiso   1.00
C433   C     0.80108   0.35990   0.21978   0.00000  Uiso   1.00
C434   C     0.85868   0.30277   0.21653   0.00000  Uiso   1.00
C435   C     0.64106   0.19695   0.78425   0.00000  Uiso   1.00
C436   C     0.80138   0.13974   0.21874   0.00000  Uiso   1.00
C437   C     0.69892   0.35990   0.78022   0.00000  Uiso   1.00
C438   C     0.63736   0.19587   0.21200   0.00000  Uiso   1.00
C439   C     0.85966   0.30134   0.77999   0.00000  Uiso   1.00
C440   C     0.69731   0.35903   0.21632   0.00000  Uiso   1.00
C441   C     0.80492   0.13869   0.78960   0.00000  Uiso   1.00
C442   C     0.50004   0.24999   0.39851   0.00000  Uiso   1.00
C443   C     0.99996   0.24999   0.60149   0.00000  Uiso   1.00
C444   C     0.74999   0.00000   0.39850   0.00000  Uiso   1.00
C445   C     0.96667   0.24998   0.58108   0.00000  Uiso   1.00
C446   C     0.75001   0.00000   0.60150   0.00000  Uiso   1.00
C447   C     0.75004   0.00001   0.89851   0.00000  Uiso   1.00
C448   C     0.74996   0.00001   0.10149   0.00000  Uiso   1.00
C449   C     0.99999   0.25000   0.89850   0.00000  Uiso   1.00
C450   C     0.50001   0.25000   0.10150   0.00000  Uiso   1.00
C451   C     0.93330   0.24998   0.47962   0.00000  Uiso   1.00
C452   C     0.56670   0.24998   0.52038   0.00000  Uiso   1.00
C453   C     0.74999   0.06657   0.47977   0.00000  Uiso   1.00
C454   C     0.75000   0.43343   0.52023   0.00000  Uiso   1.00
C455   C     0.56672   0.24998   0.47992   0.00000  Uiso   1.00
C456   C     0.75000   0.46677   0.41884   0.00000  Uiso   1.00
C457   C     0.93328   0.24998   0.52008   0.00000  Uiso   1.00
C458   C     0.75000   0.43343   0.47977   0.00000  Uiso   1.00
C459   C     0.75000   0.06657   0.52023   0.00000  Uiso   1.00
C460   C     0.68330   0.00002   0.97962   0.00000  Uiso   1.00
C461   C     0.81670   0.00002   0.02038   0.00000  Uiso   1.00
C462   C     0.50000   0.31657   0.97977   0.00000  Uiso   1.00
C463   C     0.50000   0.18343   0.02023   0.00000  Uiso   1.00
C464   C     0.81672   0.00002   0.97992   0.00000  Uiso   1.00
C465   C     0.68328   0.00002   0.02008   0.00000  Uiso   1.00
C466   C     0.50000   0.18343   0.97977   0.00000  Uiso   1.00
C467   C     0.75001   0.03323   0.58116   0.00000  Uiso   1.00
C468   C     0.50000   0.31657   0.02023   0.00000  Uiso   1.00
C469   C     0.75000  -0.00000   0.35602   0.00000  Uiso   1.00
C470   C     0.75000  -0.00000   0.64399   0.00000  Uiso   1.00
C471   C     0.50002   0.25000   0.35604   0.00000  Uiso   1.00
C472   C     0.99998   0.25000   0.64397   0.00000  Uiso   1.00
C473   C     0.50000   0.25000   0.85602   0.00000  Uiso   1.00
C474   C     0.50000   0.25000   0.14399   0.00000  Uiso   1.00
C475   C     0.75002   0.00000   0.85604   0.00000  Uiso   1.00
C476   C     0.74998   0.00000   0.14397   0.00000  Uiso   1.00
C477   C     0.67999   0.06991   0.25001   0.00000  Uiso   1.00
C478   C     0.96674   0.24998   0.41878   0.00000  Uiso   1.00
C479   C     0.82002   0.43009   0.75003   0.00000  Uiso   1.00
C480   C     0.93007   0.18001   0.25000   0.00000  Uiso   1.00
C481   C     0.56992   0.31999   0.75000   0.00000  Uiso   1.00
C482   C     0.81992   0.43001   0.25000   0.00000  Uiso   1.00
C483   C     0.68007   0.06999   0.75000   0.00000  Uiso   1.00
C484   C     0.57002   0.31991   0.25003   0.00000  Uiso   1.00
C485   C     0.92999   0.18009   0.75001   0.00000  Uiso   1.00
C486   C     0.68008   0.43001   0.75000   0.00000  Uiso   1.00
C487   C     0.81993   0.06999   0.25000   0.00000  Uiso   1.00
C488   C     0.92998   0.31991   0.74997   0.00000  Uiso   1.00
C489   C     0.53327   0.24999   0.58122   0.00000  Uiso   1.00
C490   C     0.57001   0.18009   0.25000   0.00000  Uiso   1.00
C491   C     0.82001   0.06991   0.75000   0.00000  Uiso   1.00
C492   C     0.67998   0.43009   0.24997   0.00000  Uiso   1.00
C493   C     0.56993   0.18001   0.75000   0.00000  Uiso   1.00
C494   C     0.93008   0.31999   0.25000   0.00000  Uiso   1.00
C495   C     0.61698   0.41032   0.26480   0.00000  Uiso   1.00
C496   C     0.88168   0.09098   0.73150   0.00000  Uiso   1.00
C497   C     0.59101   0.11821   0.26889   0.00000  Uiso   1.00
C498   C     0.91017   0.38296   0.73433   0.00000  Uiso   1.00
C499   C     0.88303   0.09000   0.26595   0.00000  Uiso   1.00
C500   C     0.74999   0.03323   0.41884   0.00000  Uiso   1.00
C501   C     0.61685   0.41014   0.73446   0.00000  Uiso   1.00
C502   C     0.91048   0.38294   0.26476   0.00000  Uiso   1.00
C503   C     0.58965   0.11721   0.73477   0.00000  Uiso   1.00
C504   C     0.61697   0.09000   0.73405   0.00000  Uiso   1.00
C505   C     0.88315   0.41013   0.26554   0.00000  Uiso   1.00
C506   C     0.58952   0.38294   0.73524   0.00000  Uiso   1.00
C507   C     0.91035   0.11721   0.26523   0.00000  Uiso   1.00
C508   C     0.88302   0.41032   0.73520   0.00000  Uiso   1.00
C509   C     0.61832   0.09098   0.26849   0.00000  Uiso   1.00
C510   C     0.90899   0.11821   0.73111   0.00000  Uiso   1.00
C511   C     0.75001   0.46677   0.58116   0.00000  Uiso   1.00
C512   C     0.58983   0.38296   0.26568   0.00000  Uiso   1.00
C513   C     0.86832   0.15902   0.76850   0.00000  Uiso   1.00
C514   C     0.63302   0.33968   0.23520   0.00000  Uiso   1.00
C515   C     0.83983   0.36704   0.76568   0.00000  Uiso   1.00
C516   C     0.65899   0.13179   0.23111   0.00000  Uiso   1.00
C517   C     0.63315   0.33986   0.76554   0.00000  Uiso   1.00
C518   C     0.86697   0.16000   0.23405   0.00000  Uiso   1.00
C519   C     0.66035   0.13279   0.76523   0.00000  Uiso   1.00
C520   C     0.83952   0.36706   0.23524   0.00000  Uiso   1.00
C521   C     0.86685   0.33986   0.23446   0.00000  Uiso   1.00
C522   C     0.78334   0.00002   0.91892   0.00000  Uiso   1.00
C523   C     0.63303   0.16000   0.76595   0.00000  Uiso   1.00
C524   C     0.83965   0.13279   0.23477   0.00000  Uiso   1.00
C525   C     0.66048   0.36706   0.76476   0.00000  Uiso   1.00
C526   C     0.63168   0.15902   0.23151   0.00000  Uiso   1.00
C527   C     0.86698   0.33968   0.76480   0.00000  Uiso   1.00
C528   C     0.66017   0.36704   0.23432   0.00000  Uiso   1.00
C529   C     0.84101   0.13179   0.76889   0.00000  Uiso   1.00
C530   C     0.96649   0.24998   0.45924   0.00000  Uiso   1.00
C531   C     0.53351   0.24998   0.54076   0.00000  Uiso   1.00
C532   C     0.74999   0.03346   0.45931   0.00000  Uiso   1.00
H533   H     0.90738   0.24998   0.46427   0.00000  Uiso   1.00
H534   H     0.84262   0.00002   0.03573   0.00000  Uiso   1.00
H535   H     0.70280   0.16718   0.79390   0.00000  Uiso   1.00
H536   H     0.70485   0.11960   0.80446   0.00000  Uiso   1.00
H537   H     0.78098   0.36285   0.24367   0.00000  Uiso   1.00
H538   H     0.79448   0.37990   0.19658   0.00000  Uiso   1.00
H539   H     0.79682   0.33239   0.20736   0.00000  Uiso   1.00
H540   H     0.88244   0.28405   0.21555   0.00000  Uiso   1.00
H541   H     0.83683   0.28885   0.23332   0.00000  Uiso   1.00
H542   H     0.84979   0.30636   0.18595   0.00000  Uiso   1.00
H543   H     0.61733   0.21572   0.78505   0.00000  Uiso   1.00
H544   H     0.64961   0.19315   0.81491   0.00000  Uiso   1.00
H545   H     0.50000   0.34245   0.96448   0.00000  Uiso   1.00
H546   H     0.66312   0.21094   0.76784   0.00000  Uiso   1.00
H547   H     0.78094   0.13682   0.24232   0.00000  Uiso   1.00
H548   H     0.79720   0.16718   0.20610   0.00000  Uiso   1.00
H549   H     0.79515   0.11960   0.19554   0.00000  Uiso   1.00
H550   H     0.71902   0.36285   0.75632   0.00000  Uiso   1.00
H551   H     0.70552   0.37990   0.80342   0.00000  Uiso   1.00
H552   H     0.70318   0.33239   0.79264   0.00000  Uiso   1.00
H553   H     0.63556   0.21775   0.23413   0.00000  Uiso   1.00
H554   H     0.66403   0.19920   0.19731   0.00000  Uiso   1.00
H555   H     0.61578   0.20030   0.18976   0.00000  Uiso   1.00
H556   H     0.50000   0.15755   0.03553   0.00000  Uiso   1.00
H557   H     0.86205   0.28163   0.75571   0.00000  Uiso   1.00
H558   H     0.87998   0.29430   0.80280   0.00000  Uiso   1.00
H559   H     0.83224   0.29724   0.79279   0.00000  Uiso   1.00
H560   H     0.71607   0.38276   0.21536   0.00000  Uiso   1.00
H561   H     0.71134   0.33718   0.23303   0.00000  Uiso   1.00
H562   H     0.69363   0.35026   0.18573   0.00000  Uiso   1.00
H563   H     0.78566   0.11534   0.78894   0.00000  Uiso   1.00
H564   H     0.81019   0.14459   0.82070   0.00000  Uiso   1.00
H565   H     0.79061   0.16219   0.77596   0.00000  Uiso   1.00
H566   H     0.84265   0.00002   0.96468   0.00000  Uiso   1.00
H567   H     0.65735   0.00002   0.03532   0.00000  Uiso   1.00
H568   H     0.50000   0.15755   0.96448   0.00000  Uiso   1.00
H569   H     0.50000   0.34245   0.03553   0.00000  Uiso   1.00
H570   H     0.55911   0.24999   0.40336   0.00000  Uiso   1.00
H571   H     0.94089   0.24998   0.59664   0.00000  Uiso   1.00
H572   H     0.75000   0.44104   0.40324   0.00000  Uiso   1.00
H573   H     0.59262   0.24998   0.53573   0.00000  Uiso   1.00
H574   H     0.75001   0.05896   0.59676   0.00000  Uiso   1.00
H575   H     0.94096   0.24999   0.40312   0.00000  Uiso   1.00
H576   H     0.55904   0.24999   0.59688   0.00000  Uiso   1.00
H577   H     0.74999   0.05896   0.40324   0.00000  Uiso   1.00
H578   H     0.75001   0.44104   0.59676   0.00000  Uiso   1.00
H579   H     0.80911   0.00001   0.90336   0.00000  Uiso   1.00
H580   H     0.69089   0.00001   0.09664   0.00000  Uiso   1.00
H581   H     0.99999   0.19104   0.90324   0.00000  Uiso   1.00
H582   H     0.50001   0.30896   0.09676   0.00000  Uiso   1.00
H583   H     0.69096   0.00001   0.90312   0.00000  Uiso   1.00
H584   H     0.74999   0.09245   0.46448   0.00000  Uiso   1.00
H585   H     0.80904   0.00001   0.09688   0.00000  Uiso   1.00
H586   H     0.99999   0.30896   0.90324   0.00000  Uiso   1.00
H587   H     0.50001   0.19104   0.09676   0.00000  Uiso   1.00
H588   H     0.61205   0.46837   0.25572   0.00000  Uiso   1.00
H589   H     0.58225   0.45275   0.29280   0.00000  Uiso   1.00
H590   H     0.62999   0.45569   0.30281   0.00000  Uiso   1.00
H591   H     0.88556   0.03225   0.73412   0.00000  Uiso   1.00
H592   H     0.86577   0.04971   0.68976   0.00000  Uiso   1.00
H593   H     0.91403   0.05080   0.69731   0.00000  Uiso   1.00
H594   H     0.53566   0.13466   0.28893   0.00000  Uiso   1.00
H595   H     0.75001   0.40755   0.53553   0.00000  Uiso   1.00
H596   H     0.54061   0.08781   0.27595   0.00000  Uiso   1.00
H597   H     0.56019   0.10541   0.32070   0.00000  Uiso   1.00
H598   H     0.96608   0.36724   0.71537   0.00000  Uiso   1.00
H599   H     0.94364   0.39975   0.68573   0.00000  Uiso   1.00
H600   H     0.96134   0.41282   0.73304   0.00000  Uiso   1.00
H601   H     0.86733   0.03428   0.28505   0.00000  Uiso   1.00
H602   H     0.91312   0.03906   0.26784   0.00000  Uiso   1.00
H603   H     0.89961   0.05685   0.31491   0.00000  Uiso   1.00
H604   H     0.63244   0.46595   0.71555   0.00000  Uiso   1.00
H605   H     0.59979   0.44364   0.68596   0.00000  Uiso   1.00
H606   H     0.59265   0.24998   0.46468   0.00000  Uiso   1.00
H607   H     0.58683   0.46115   0.73332   0.00000  Uiso   1.00
H608   H     0.96902   0.38715   0.25633   0.00000  Uiso   1.00
H609   H     0.95318   0.41761   0.29264   0.00000  Uiso   1.00
H610   H     0.95552   0.37010   0.30343   0.00000  Uiso   1.00
H611   H     0.53094   0.11318   0.74232   0.00000  Uiso   1.00
H612   H     0.54515   0.13040   0.69554   0.00000  Uiso   1.00
H613   H     0.54720   0.08282   0.70610   0.00000  Uiso   1.00
H614   H     0.63267   0.03428   0.71495   0.00000  Uiso   1.00
H615   H     0.58688   0.03906   0.73216   0.00000  Uiso   1.00
H616   H     0.60039   0.05685   0.68509   0.00000  Uiso   1.00
H617   H     0.90735   0.24998   0.53532   0.00000  Uiso   1.00
H618   H     0.86756   0.46595   0.28445   0.00000  Uiso   1.00
H619   H     0.90021   0.44364   0.31405   0.00000  Uiso   1.00
H620   H     0.91317   0.46115   0.26668   0.00000  Uiso   1.00
H621   H     0.53098   0.38715   0.74368   0.00000  Uiso   1.00
H622   H     0.54682   0.41761   0.70736   0.00000  Uiso   1.00
H623   H     0.54448   0.37010   0.69658   0.00000  Uiso   1.00
H624   H     0.96906   0.11318   0.25768   0.00000  Uiso   1.00
H625   H     0.95485   0.13040   0.30446   0.00000  Uiso   1.00
H626   H     0.95280   0.08282   0.29390   0.00000  Uiso   1.00
H627   H     0.88795   0.46837   0.74429   0.00000  Uiso   1.00
H628   H     0.75000   0.40755   0.46448   0.00000  Uiso   1.00
H629   H     0.91776   0.45276   0.70721   0.00000  Uiso   1.00
H630   H     0.87002   0.45570   0.69720   0.00000  Uiso   1.00
H631   H     0.61444   0.03225   0.26587   0.00000  Uiso   1.00
H632   H     0.63423   0.04970   0.31024   0.00000  Uiso   1.00
H633   H     0.58597   0.05080   0.30269   0.00000  Uiso   1.00
H634   H     0.96434   0.13466   0.71106   0.00000  Uiso   1.00
H635   H     0.95939   0.08781   0.72405   0.00000  Uiso   1.00
H636   H     0.93981   0.10541   0.67930   0.00000  Uiso   1.00
H637   H     0.53393   0.36724   0.28464   0.00000  Uiso   1.00
H638   H     0.55637   0.39974   0.31428   0.00000  Uiso   1.00
H639   H     0.75000   0.09245   0.53553   0.00000  Uiso   1.00
H640   H     0.53867   0.41282   0.26697   0.00000  Uiso   1.00
H641   H     0.86444   0.21775   0.76588   0.00000  Uiso   1.00
H642   H     0.83597   0.19920   0.80269   0.00000  Uiso   1.00
H643   H     0.88423   0.20029   0.81024   0.00000  Uiso   1.00
H644   H     0.63795   0.28163   0.24428   0.00000  Uiso   1.00
H645   H     0.62001   0.29431   0.19719   0.00000  Uiso   1.00
H646   H     0.66776   0.29725   0.20720   0.00000  Uiso   1.00
H647   H     0.78393   0.38276   0.78463   0.00000  Uiso   1.00
H648   H     0.78866   0.33718   0.76696   0.00000  Uiso   1.00
H649   H     0.80636   0.35025   0.81427   0.00000  Uiso   1.00
H650   H     0.65738   0.00002   0.96427   0.00000  Uiso   1.00
H651   H     0.71434   0.11534   0.21107   0.00000  Uiso   1.00
H652   H     0.68981   0.14459   0.17930   0.00000  Uiso   1.00
H653   H     0.70939   0.16219   0.22405   0.00000  Uiso   1.00
H654   H     0.61756   0.28405   0.78445   0.00000  Uiso   1.00
H655   H     0.66317   0.28885   0.76668   0.00000  Uiso   1.00
H656   H     0.65021   0.30636   0.81405   0.00000  Uiso   1.00
H657   H     0.88267   0.21572   0.21495   0.00000  Uiso   1.00
H658   H     0.85039   0.19315   0.18509   0.00000  Uiso   1.00
H659   H     0.83688   0.21094   0.23216   0.00000  Uiso   1.00
H660   H     0.71906   0.13682   0.75768   0.00000  Uiso   1.00
O661   O     0.75000  -0.00000   0.25000   0.00000  Uiso   1.00
O662   O     0.75000   0.46963   0.66245   0.00000  Uiso   1.00
O663   O     0.96964   0.25000   0.33755   0.00000  Uiso   1.00
O664   O     0.53037   0.25000   0.66245   0.00000  Uiso   1.00
O665   O     0.50000   0.21964   0.83755   0.00000  Uiso   1.00
O666   O     0.50000   0.28037   0.16245   0.00000  Uiso   1.00
O667   O     0.78037  -0.00000   0.83755   0.00000  Uiso   1.00
O668   O     0.71964  -0.00000   0.16245   0.00000  Uiso   1.00
O669   O     0.50000   0.28037   0.83755   0.00000  Uiso   1.00
O670   O     0.50000   0.21964   0.16245   0.00000  Uiso   1.00
O671   O     0.71964  -0.00000   0.83755   0.00000  Uiso   1.00
O672   O     0.75000  -0.00000   0.75000   0.00000  Uiso   1.00
O673   O     0.78037  -0.00000   0.16245   0.00000  Uiso   1.00
O674   O     0.70725   0.07307   0.27302   0.00000  Uiso   1.00
O675   O     0.79276   0.42692   0.72698   0.00000  Uiso   1.00
O676   O     0.92693   0.20724   0.27302   0.00000  Uiso   1.00
O677   O     0.57308   0.29275   0.72698   0.00000  Uiso   1.00
O678   O     0.79276   0.42692   0.27302   0.00000  Uiso   1.00
O679   O     0.70725   0.07307   0.72698   0.00000  Uiso   1.00
O680   O     0.57308   0.29275   0.27302   0.00000  Uiso   1.00
O681   O     0.92693   0.20724   0.72698   0.00000  Uiso   1.00
O682   O     0.70725   0.42692   0.72698   0.00000  Uiso   1.00
O683   O     0.50000   0.25000   0.25000   0.00000  Uiso   1.00
O684   O     0.79276   0.07307   0.27302   0.00000  Uiso   1.00
O685   O     0.92693   0.29275   0.72698   0.00000  Uiso   1.00
O686   O     0.57308   0.20724   0.27302   0.00000  Uiso   1.00
O687   O     0.79276   0.07307   0.72698   0.00000  Uiso   1.00
O688   O     0.70725   0.42692   0.27302   0.00000  Uiso   1.00
O689   O     0.57308   0.20724   0.72698   0.00000  Uiso   1.00
O690   O     0.92693   0.29275   0.27302   0.00000  Uiso   1.00
O691   O     0.95725   0.32307   0.77302   0.00000  Uiso   1.00
O692   O     0.54276   0.17692   0.22698   0.00000  Uiso   1.00
O693   O     0.67693   0.45724   0.77302   0.00000  Uiso   1.00
O694   O     0.50000   0.25000   0.75000   0.00000  Uiso   1.00
O695   O     0.82308   0.04275   0.22698   0.00000  Uiso   1.00
O696   O     0.54276   0.17692   0.77302   0.00000  Uiso   1.00
O697   O     0.95725   0.32307   0.22698   0.00000  Uiso   1.00
O698   O     0.82308   0.04275   0.77302   0.00000  Uiso   1.00
O699   O     0.67693   0.45724   0.22698   0.00000  Uiso   1.00
O700   O     0.95725   0.17692   0.22698   0.00000  Uiso   1.00
O701   O     0.54276   0.32307   0.77302   0.00000  Uiso   1.00
O702   O     0.67693   0.04275   0.22698   0.00000  Uiso   1.00
O703   O     0.82308   0.45724   0.77302   0.00000  Uiso   1.00
O704   O     0.54276   0.32307   0.22698   0.00000  Uiso   1.00
O705   O     0.75000   0.46963   0.33755   0.00000  Uiso   1.00
O706   O     0.95725   0.17692   0.77302   0.00000  Uiso   1.00
O707   O     0.82308   0.45724   0.22698   0.00000  Uiso   1.00
O708   O     0.67693   0.04275   0.77302   0.00000  Uiso   1.00
O709   O     0.75000   0.03036   0.66245   0.00000  Uiso   1.00
O710   O     0.53037   0.25000   0.33755   0.00000  Uiso   1.00
O711   O     0.96964   0.25000   0.66245   0.00000  Uiso   1.00
O712   O     0.75000   0.03036   0.33755   0.00000  Uiso   1.00
Zn713  Zn    0.70660  -0.00000   0.21735   0.00000  Uiso   1.00
Zn714  Zn    0.54341   0.25000   0.28265   0.00000  Uiso   1.00
Zn715  Zn    0.75000   0.45659   0.71735   0.00000  Uiso   1.00
Zn716  Zn    0.75000   0.04340   0.28265   0.00000  Uiso   1.00
Zn717  Zn    0.54341   0.25000   0.71735   0.00000  Uiso   1.00
Zn718  Zn    0.95660   0.25000   0.28265   0.00000  Uiso   1.00
Zn719  Zn    0.75000   0.04340   0.71735   0.00000  Uiso   1.00
Zn720  Zn    0.75000   0.45659   0.28265   0.00000  Uiso   1.00
Zn721  Zn    0.79341  -0.00000   0.78265   0.00000  Uiso   1.00
Zn722  Zn    0.50000   0.20660   0.21735   0.00000  Uiso   1.00
Zn723  Zn    0.50000   0.29341   0.78265   0.00000  Uiso   1.00
Zn724  Zn    0.79341  -0.00000   0.21735   0.00000  Uiso   1.00
Zn725  Zn    0.70660  -0.00000   0.78265   0.00000  Uiso   1.00
Zn726  Zn    0.50000   0.29341   0.21735   0.00000  Uiso   1.00
Zn727  Zn    0.50000   0.20660   0.78265   0.00000  Uiso   1.00
Zn728  Zn    0.95660   0.25000   0.71735   0.00000  Uiso   1.00
C729   C     0.03334   0.74998   0.41892   0.00000  Uiso   1.00
C730   C     0.21667   0.50002   0.08108   0.00000  Uiso   1.00
C731   C     0.25001   0.96654   0.54069   0.00000  Uiso   1.00
C732   C     0.03355   0.74998   0.45938   0.00000  Uiso   1.00
C733   C     0.46645   0.74998   0.54062   0.00000  Uiso   1.00
C734   C     0.25000   0.96654   0.45931   0.00000  Uiso   1.00
C735   C     0.25000   0.53346   0.54069   0.00000  Uiso   1.00
C736   C     0.21649   0.50002   0.95924   0.00000  Uiso   1.00
C737   C     0.28351   0.50002   0.04076   0.00000  Uiso   1.00
C738   C    -0.00000   0.78346   0.95931   0.00000  Uiso   1.00
C739   C     0.00000   0.71654   0.04069   0.00000  Uiso   1.00
C740   C     0.28355   0.50002   0.95938   0.00000  Uiso   1.00
C741   C     0.49999   0.71677   0.91884   0.00000  Uiso   1.00
C742   C     0.21645   0.50002   0.04062   0.00000  Uiso   1.00
C743   C    -0.00000   0.71654   0.95931   0.00000  Uiso   1.00
C744   C     0.00000   0.78346   0.04069   0.00000  Uiso   1.00
C745   C     0.09810   0.84805   0.25046   0.00000  Uiso   1.00
C746   C     0.40195   0.65190   0.74974   0.00000  Uiso   1.00
C747   C     0.15195   0.59810   0.24974   0.00000  Uiso   1.00
C748   C     0.34810   0.90195   0.75046   0.00000  Uiso   1.00
C749   C     0.40191   0.65195   0.24966   0.00000  Uiso   1.00
C750   C     0.09809   0.84806   0.75036   0.00000  Uiso   1.00
C751   C     0.34809   0.90194   0.25036   0.00000  Uiso   1.00
C752   C     0.00001   0.78323   0.08116   0.00000  Uiso   1.00
C753   C     0.15191   0.59805   0.74966   0.00000  Uiso   1.00
C754   C     0.09810   0.65195   0.75034   0.00000  Uiso   1.00
C755   C     0.40191   0.84806   0.24964   0.00000  Uiso   1.00
C756   C     0.15191   0.90194   0.74964   0.00000  Uiso   1.00
C757   C     0.34810   0.59805   0.25034   0.00000  Uiso   1.00
C758   C     0.40190   0.84805   0.74954   0.00000  Uiso   1.00
C759   C     0.09805   0.65190   0.25026   0.00000  Uiso   1.00
C760   C     0.34805   0.59810   0.75026   0.00000  Uiso   1.00
C761   C     0.15190   0.90195   0.24954   0.00000  Uiso   1.00
C762   C     0.00001   0.74998   0.47964   0.00000  Uiso   1.00
C763   C     0.21674   0.50001   0.91878   0.00000  Uiso   1.00
C764   C     0.49999   0.74998   0.52036   0.00000  Uiso   1.00
C765   C     0.25000   0.50000   0.47964   0.00000  Uiso   1.00
C766   C     0.25000   0.50000   0.52036   0.00000  Uiso   1.00
C767   C     0.25001   0.50002   0.97964   0.00000  Uiso   1.00
C768   C     0.24999   0.50002   0.02036   0.00000  Uiso   1.00
C769   C    -0.00000   0.75000   0.97964   0.00000  Uiso   1.00
C770   C     0.00000   0.75000   0.02036   0.00000  Uiso   1.00
C771   C     0.10966   0.94866   0.28000   0.00000  Uiso   1.00
C772   C     0.38736   0.55413   0.71199   0.00000  Uiso   1.00
C773   C     0.05492   0.61131   0.28959   0.00000  Uiso   1.00
C774   C     0.28327   0.50001   0.08122   0.00000  Uiso   1.00
C775   C     0.44731   0.89097   0.71632   0.00000  Uiso   1.00
C776   C     0.39106   0.55305   0.28425   0.00000  Uiso   1.00
C777   C     0.10868   0.94723   0.71653   0.00000  Uiso   1.00
C778   C     0.44892   0.89010   0.28022   0.00000  Uiso   1.00
C779   C     0.05138   0.61026   0.71874   0.00000  Uiso   1.00
C780   C     0.10894   0.55305   0.71575   0.00000  Uiso   1.00
C781   C     0.39132   0.94723   0.28347   0.00000  Uiso   1.00
C782   C     0.05108   0.89010   0.71978   0.00000  Uiso   1.00
C783   C     0.44862   0.61026   0.28127   0.00000  Uiso   1.00
C784   C     0.39034   0.94866   0.72001   0.00000  Uiso   1.00
C785   C     0.49999   0.78323   0.91884   0.00000  Uiso   1.00
C786   C     0.11264   0.55413   0.28800   0.00000  Uiso   1.00
C787   C     0.44508   0.61131   0.71040   0.00000  Uiso   1.00
C788   C     0.05269   0.89097   0.28369   0.00000  Uiso   1.00
C789   C     0.36264   0.69587   0.78801   0.00000  Uiso   1.00
C790   C     0.14034   0.80134   0.22000   0.00000  Uiso   1.00
C791   C     0.30269   0.85903   0.78368   0.00000  Uiso   1.00
C792   C     0.19508   0.63869   0.21041   0.00000  Uiso   1.00
C793   C     0.14132   0.80277   0.78347   0.00000  Uiso   1.00
C794   C     0.35894   0.69695   0.21575   0.00000  Uiso   1.00
C795   C     0.19862   0.63974   0.78127   0.00000  Uiso   1.00
C796   C     0.00001   0.71677   0.08116   0.00000  Uiso   1.00
C797   C     0.30108   0.85990   0.21978   0.00000  Uiso   1.00
C798   C     0.35868   0.80277   0.21653   0.00000  Uiso   1.00
C799   C     0.14106   0.69695   0.78425   0.00000  Uiso   1.00
C800   C     0.30138   0.63974   0.21874   0.00000  Uiso   1.00
C801   C     0.19892   0.85990   0.78022   0.00000  Uiso   1.00
C802   C     0.13736   0.69587   0.21200   0.00000  Uiso   1.00
C803   C     0.35966   0.80134   0.77999   0.00000  Uiso   1.00
C804   C     0.19731   0.85903   0.21632   0.00000  Uiso   1.00
C805   C     0.30492   0.63869   0.78960   0.00000  Uiso   1.00
C806   C     0.00004   0.74999   0.39851   0.00000  Uiso   1.00
C807   C     0.49996   0.74999   0.60149   0.00000  Uiso   1.00
C808   C     0.24999   0.50000   0.39850   0.00000  Uiso   1.00
C809   C     0.46667   0.74998   0.58108   0.00000  Uiso   1.00
C810   C     0.25001   0.50000   0.60150   0.00000  Uiso   1.00
C811   C     0.25004   0.50001   0.89851   0.00000  Uiso   1.00
C812   C     0.24996   0.50001   0.10149   0.00000  Uiso   1.00
C813   C     0.49999   0.75000   0.89850   0.00000  Uiso   1.00
C814   C     0.00001   0.75000   0.10150   0.00000  Uiso   1.00
C815   C     0.43330   0.74998   0.47962   0.00000  Uiso   1.00
C816   C     0.06670   0.74998   0.52038   0.00000  Uiso   1.00
C817   C     0.24999   0.56657   0.47977   0.00000  Uiso   1.00
C818   C     0.25000   0.93343   0.52023   0.00000  Uiso   1.00
C819   C     0.06672   0.74998   0.47992   0.00000  Uiso   1.00
C820   C     0.25000   0.96677   0.41884   0.00000  Uiso   1.00
C821   C     0.43328   0.74998   0.52008   0.00000  Uiso   1.00
C822   C     0.25000   0.93343   0.47977   0.00000  Uiso   1.00
C823   C     0.25000   0.56657   0.52023   0.00000  Uiso   1.00
C824   C     0.18330   0.50002   0.97962   0.00000  Uiso   1.00
C825   C     0.31670   0.50002   0.02038   0.00000  Uiso   1.00
C826   C    -0.00000   0.81657   0.97977   0.00000  Uiso   1.00
C827   C     0.00000   0.68343   0.02023   0.00000  Uiso   1.00
C828   C     0.31672   0.50002   0.97992   0.00000  Uiso   1.00
C829   C     0.18328   0.50002   0.02008   0.00000  Uiso   1.00
C830   C    -0.00000   0.68343   0.97977   0.00000  Uiso   1.00
C831   C     0.25001   0.53323   0.58116   0.00000  Uiso   1.00
C832   C     0.00000   0.81657   0.02023   0.00000  Uiso   1.00
C833   C     0.25000   0.50000   0.35602   0.00000  Uiso   1.00
C834   C     0.25000   0.50000   0.64399   0.00000  Uiso   1.00
C835   C     0.00002   0.75000   0.35604   0.00000  Uiso   1.00
C836   C     0.49998   0.75000   0.64397   0.00000  Uiso   1.00
C837   C    -0.00000   0.75000   0.85602   0.00000  Uiso   1.00
C838   C     0.00000   0.75000   0.14399   0.00000  Uiso   1.00
C839   C     0.25002   0.50000   0.85604   0.00000  Uiso   1.00
C840   C     0.24998   0.50000   0.14397   0.00000  Uiso   1.00
C841   C     0.17999   0.56991   0.25001   0.00000  Uiso   1.00
C842   C     0.46674   0.74998   0.41878   0.00000  Uiso   1.00
C843   C     0.32002   0.93009   0.75003   0.00000  Uiso   1.00
C844   C     0.43007   0.68001   0.25000   0.00000  Uiso   1.00
C845   C     0.06992   0.81999   0.75000   0.00000  Uiso   1.00
C846   C     0.31992   0.93001   0.25000   0.00000  Uiso   1.00
C847   C     0.18007   0.56999   0.75000   0.00000  Uiso   1.00
C848   C     0.07002   0.81991   0.25003   0.00000  Uiso   1.00
C849   C     0.42999   0.68009   0.75001   0.00000  Uiso   1.00
C850   C     0.18008   0.93001   0.75000   0.00000  Uiso   1.00
C851   C     0.31993   0.56999   0.25000   0.00000  Uiso   1.00
C852   C     0.42998   0.81991   0.74997   0.00000  Uiso   1.00
C853   C     0.03327   0.74999   0.58122   0.00000  Uiso   1.00
C854   C     0.07001   0.68009   0.25000   0.00000  Uiso   1.00
C855   C     0.32001   0.56991   0.75000   0.00000  Uiso   1.00
C856   C     0.17998   0.93009   0.24997   0.00000  Uiso   1.00
C857   C     0.06993   0.68001   0.75000   0.00000  Uiso   1.00
C858   C     0.43008   0.81999   0.25000   0.00000  Uiso   1.00
C859   C     0.11698   0.91032   0.26480   0.00000  Uiso   1.00
C860   C     0.38168   0.59098   0.73150   0.00000  Uiso   1.00
C861   C     0.09101   0.61821   0.26889   0.00000  Uiso   1.00
C862   C     0.41017   0.88296   0.73433   0.00000  Uiso   1.00
C863   C     0.38303   0.59000   0.26595   0.00000  Uiso   1.00
C864   C     0.24999   0.53323   0.41884   0.00000  Uiso   1.00
C865   C     0.11685   0.91014   0.73446   0.00000  Uiso   1.00
C866   C     0.41048   0.88294   0.26476   0.00000  Uiso   1.00
C867   C     0.08965   0.61721   0.73477   0.00000  Uiso   1.00
C868   C     0.11697   0.59000   0.73405   0.00000  Uiso   1.00
C869   C     0.38315   0.91013   0.26554   0.00000  Uiso   1.00
C870   C     0.08952   0.88294   0.73524   0.00000  Uiso   1.00
C871   C     0.41035   0.61721   0.26523   0.00000  Uiso   1.00
C872   C     0.38302   0.91032   0.73520   0.00000  Uiso   1.00
C873   C     0.11832   0.59098   0.26849   0.00000  Uiso   1.00
C874   C     0.40899   0.61821   0.73111   0.00000  Uiso   1.00
C875   C     0.25001   0.96677   0.58116   0.00000  Uiso   1.00
C876   C     0.08983   0.88296   0.26568   0.00000  Uiso   1.00
C877   C     0.36832   0.65902   0.76850   0.00000  Uiso   1.00
C878   C     0.13302   0.83968   0.23520   0.00000  Uiso   1.00
C879   C     0.33983   0.86704   0.76568   0.00000  Uiso   1.00
C880   C     0.15899   0.63179   0.23111   0.00000  Uiso   1.00
C881   C     0.13315   0.83986   0.76554   0.00000  Uiso   1.00
C882   C     0.36697   0.66000   0.23405   0.00000  Uiso   1.00
C883   C     0.16035   0.63279   0.76523   0.00000  Uiso   1.00
C884   C     0.33952   0.86706   0.23524   0.00000  Uiso   1.00
C885   C     0.36685   0.83986   0.23446   0.00000  Uiso   1.00
C886   C     0.28334   0.50002   0.91892   0.00000  Uiso   1.00
C887   C     0.13303   0.66000   0.76595   0.00000  Uiso   1.00
C888   C     0.33965   0.63279   0.23477   0.00000  Uiso   1.00
C889   C     0.16048   0.86706   0.76476   0.00000  Uiso   1.00
C890   C     0.13168   0.65902   0.23151   0.00000  Uiso   1.00
C891   C     0.36698   0.83968   0.76480   0.00000  Uiso   1.00
C892   C     0.16017   0.86704   0.23432   0.00000  Uiso   1.00
C893   C     0.34101   0.63179   0.76889   0.00000  Uiso   1.00
C894   C     0.46649   0.74998   0.45924   0.00000  Uiso   1.00
C895   C     0.03351   0.74998   0.54076   0.00000  Uiso   1.00
C896   C     0.24999   0.53346   0.45931   0.00000  Uiso   1.00
H897   H     0.40738   0.74998   0.46427   0.00000  Uiso   1.00
H898   H     0.34262   0.50002   0.03573   0.00000  Uiso   1.00
H899   H     0.20280   0.66718   0.79390   0.00000  Uiso   1.00
H900   H     0.20485   0.61960   0.80446   0.00000  Uiso   1.00
H901   H     0.28098   0.86285   0.24367   0.00000  Uiso   1.00
H902   H     0.29448   0.87990   0.19658   0.00000  Uiso   1.00
H903   H     0.29682   0.83239   0.20736   0.00000  Uiso   1.00
H904   H     0.38244   0.78405   0.21555   0.00000  Uiso   1.00
H905   H     0.33683   0.78885   0.23332   0.00000  Uiso   1.00
H906   H     0.34979   0.80636   0.18595   0.00000  Uiso   1.00
H907   H     0.11733   0.71572   0.78505   0.00000  Uiso   1.00
H908   H     0.14961   0.69315   0.81491   0.00000  Uiso   1.00
H909   H    -0.00000   0.84245   0.96448   0.00000  Uiso   1.00
H910   H     0.16312   0.71094   0.76784   0.00000  Uiso   1.00
H911   H     0.28094   0.63682   0.24232   0.00000  Uiso   1.00
H912   H     0.29720   0.66718   0.20610   0.00000  Uiso   1.00
H913   H     0.29515   0.61960   0.19554   0.00000  Uiso   1.00
H914   H     0.21902   0.86285   0.75632   0.00000  Uiso   1.00
H915   H     0.20552   0.87990   0.80342   0.00000  Uiso   1.00
H916   H     0.20318   0.83239   0.79264   0.00000  Uiso   1.00
H917   H     0.13556   0.71775   0.23413   0.00000  Uiso   1.00
H918   H     0.16403   0.69920   0.19731   0.00000  Uiso   1.00
H919   H     0.11578   0.70030   0.18976   0.00000  Uiso   1.00
H920   H     0.00000   0.65755   0.03553   0.00000  Uiso   1.00
H921   H     0.36205   0.78163   0.75571   0.00000  Uiso   1.00
H922   H     0.37998   0.79430   0.80280   0.00000  Uiso   1.00
H923   H     0.33224   0.79724   0.79279   0.00000  Uiso   1.00
H924   H     0.21607   0.88276   0.21536   0.00000  Uiso   1.00
H925   H     0.21134   0.83718   0.23303   0.00000  Uiso   1.00
H926   H     0.19363   0.85026   0.18573   0.00000  Uiso   1.00
H927   H     0.28566   0.61534   0.78894   0.00000  Uiso   1.00
H928   H     0.31019   0.64459   0.82070   0.00000  Uiso   1.00
H929   H     0.29061   0.66219   0.77596   0.00000  Uiso   1.00
H930   H     0.34265   0.50002   0.96468   0.00000  Uiso   1.00
H931   H     0.15735   0.50002   0.03532   0.00000  Uiso   1.00
H932   H    -0.00000   0.65755   0.96448   0.00000  Uiso   1.00
H933   H     0.00000   0.84245   0.03553   0.00000  Uiso   1.00
H934   H     0.05911   0.74999   0.40336   0.00000  Uiso   1.00
H935   H     0.44089   0.74998   0.59664   0.00000  Uiso   1.00
H936   H     0.25000   0.94104   0.40324   0.00000  Uiso   1.00
H937   H     0.09262   0.74998   0.53573   0.00000  Uiso   1.00
H938   H     0.25001   0.55896   0.59676   0.00000  Uiso   1.00
H939   H     0.44096   0.74999   0.40312   0.00000  Uiso   1.00
H940   H     0.05904   0.74999   0.59688   0.00000  Uiso   1.00
H941   H     0.24999   0.55896   0.40324   0.00000  Uiso   1.00
H942   H     0.25001   0.94104   0.59676   0.00000  Uiso   1.00
H943   H     0.30911   0.50001   0.90336   0.00000  Uiso   1.00
H944   H     0.19089   0.50001   0.09664   0.00000  Uiso   1.00
H945   H     0.49999   0.69104   0.90324   0.00000  Uiso   1.00
H946   H     0.00001   0.80896   0.09676   0.00000  Uiso   1.00
H947   H     0.19096   0.50001   0.90312   0.00000  Uiso   1.00
H948   H     0.24999   0.59245   0.46448   0.00000  Uiso   1.00
H949   H     0.30904   0.50001   0.09688   0.00000  Uiso   1.00
H950   H     0.49999   0.80896   0.90324   0.00000  Uiso   1.00
H951   H     0.00001   0.69104   0.09676   0.00000  Uiso   1.00
H952   H     0.11205   0.96837   0.25572   0.00000  Uiso   1.00
H953   H     0.08225   0.95275   0.29280   0.00000  Uiso   1.00
H954   H     0.12999   0.95569   0.30281   0.00000  Uiso   1.00
H955   H     0.38556   0.53225   0.73412   0.00000  Uiso   1.00
H956   H     0.36577   0.54971   0.68976   0.00000  Uiso   1.00
H957   H     0.41403   0.55080   0.69731   0.00000  Uiso   1.00
H958   H     0.03566   0.63466   0.28893   0.00000  Uiso   1.00
H959   H     0.25001   0.90755   0.53553   0.00000  Uiso   1.00
H960   H     0.04061   0.58781   0.27595   0.00000  Uiso   1.00
H961   H     0.06019   0.60541   0.32070   0.00000  Uiso   1.00
H962   H     0.46608   0.86724   0.71537   0.00000  Uiso   1.00
H963   H     0.44364   0.89975   0.68573   0.00000  Uiso   1.00
H964   H     0.46134   0.91282   0.73304   0.00000  Uiso   1.00
H965   H     0.36733   0.53428   0.28505   0.00000  Uiso   1.00
H966   H     0.41312   0.53906   0.26784   0.00000  Uiso   1.00
H967   H     0.39961   0.55685   0.31491   0.00000  Uiso   1.00
H968   H     0.13244   0.96595   0.71555   0.00000  Uiso   1.00
H969   H     0.09979   0.94364   0.68596   0.00000  Uiso   1.00
H970   H     0.09265   0.74998   0.46468   0.00000  Uiso   1.00
H971   H     0.08683   0.96115   0.73332   0.00000  Uiso   1.00
H972   H     0.46902   0.88715   0.25633   0.00000  Uiso   1.00
H973   H     0.45318   0.91761   0.29264   0.00000  Uiso   1.00
H974   H     0.45552   0.87010   0.30343   0.00000  Uiso   1.00
H975   H     0.03094   0.61318   0.74232   0.00000  Uiso   1.00
H976   H     0.04515   0.63040   0.69554   0.00000  Uiso   1.00
H977   H     0.04720   0.58282   0.70610   0.00000  Uiso   1.00
H978   H     0.13267   0.53428   0.71495   0.00000  Uiso   1.00
H979   H     0.08688   0.53906   0.73216   0.00000  Uiso   1.00
H980   H     0.10039   0.55685   0.68509   0.00000  Uiso   1.00
H981   H     0.40735   0.74998   0.53532   0.00000  Uiso   1.00
H982   H     0.36756   0.96595   0.28445   0.00000  Uiso   1.00
H983   H     0.40021   0.94364   0.31405   0.00000  Uiso   1.00
H984   H     0.41317   0.96115   0.26668   0.00000  Uiso   1.00
H985   H     0.03098   0.88715   0.74368   0.00000  Uiso   1.00
H986   H     0.04682   0.91761   0.70736   0.00000  Uiso   1.00
H987   H     0.04448   0.87010   0.69658   0.00000  Uiso   1.00
H988   H     0.46906   0.61318   0.25768   0.00000  Uiso   1.00
H989   H     0.45485   0.63040   0.30446   0.00000  Uiso   1.00
H990   H     0.45280   0.58282   0.29390   0.00000  Uiso   1.00
H991   H     0.38795   0.96837   0.74429   0.00000  Uiso   1.00
H992   H     0.25000   0.90755   0.46448   0.00000  Uiso   1.00
H993   H     0.41776   0.95276   0.70721   0.00000  Uiso   1.00
H994   H     0.37002   0.95570   0.69720   0.00000  Uiso   1.00
H995   H     0.11444   0.53225   0.26587   0.00000  Uiso   1.00
H996   H     0.13423   0.54970   0.31024   0.00000  Uiso   1.00
H997   H     0.08597   0.55080   0.30269   0.00000  Uiso   1.00
H998   H     0.46434   0.63466   0.71106   0.00000  Uiso   1.00
H999   H     0.45939   0.58781   0.72405   0.00000  Uiso   1.00
H1000  H     0.43981   0.60541   0.67930   0.00000  Uiso   1.00
H1001  H     0.03393   0.86724   0.28464   0.00000  Uiso   1.00
H1002  H     0.05637   0.89974   0.31428   0.00000  Uiso   1.00
H1003  H     0.25000   0.59245   0.53553   0.00000  Uiso   1.00
H1004  H     0.03867   0.91282   0.26697   0.00000  Uiso   1.00
H1005  H     0.36444   0.71775   0.76588   0.00000  Uiso   1.00
H1006  H     0.33597   0.69920   0.80269   0.00000  Uiso   1.00
H1007  H     0.38423   0.70029   0.81024   0.00000  Uiso   1.00
H1008  H     0.13795   0.78163   0.24428   0.00000  Uiso   1.00
H1009  H     0.12001   0.79431   0.19719   0.00000  Uiso   1.00
H1010  H     0.16776   0.79725   0.20720   0.00000  Uiso   1.00
H1011  H     0.28393   0.88276   0.78463   0.00000  Uiso   1.00
H1012  H     0.28866   0.83718   0.76696   0.00000  Uiso   1.00
H1013  H     0.30636   0.85025   0.81427   0.00000  Uiso   1.00
H1014  H     0.15738   0.50002   0.96427   0.00000  Uiso   1.00
H1015  H     0.21434   0.61534   0.21107   0.00000  Uiso   1.00
H1016  H     0.18981   0.64459   0.17930   0.00000  Uiso   1.00
H1017  H     0.20939   0.66219   0.22405   0.00000  Uiso   1.00
H1018  H     0.11756   0.78405   0.78445   0.00000  Uiso   1.00
H1019  H     0.16317   0.78885   0.76668   0.00000  Uiso   1.00
H1020  H     0.15021   0.80636   0.81405   0.00000  Uiso   1.00
H1021  H     0.38267   0.71572   0.21495   0.00000  Uiso   1.00
H1022  H     0.35039   0.69315   0.18509   0.00000  Uiso   1.00
H1023  H     0.33688   0.71094   0.23216   0.00000  Uiso   1.00
H1024  H     0.21906   0.63682   0.75768   0.00000  Uiso   1.00
O1025  O     0.25000   0.50000   0.25000   0.00000  Uiso   1.00
O1026  O     0.25000   0.96963   0.66245   0.00000  Uiso   1.00
O1027  O     0.46964   0.75000   0.33755   0.00000  Uiso   1.00
O1028  O     0.03037   0.75000   0.66245   0.00000  Uiso   1.00
O1029  O     0.00000   0.71964   0.83755   0.00000  Uiso   1.00
O1030  O     0.00000   0.78037   0.16245   0.00000  Uiso   1.00
O1031  O     0.28037   0.50000   0.83755   0.00000  Uiso   1.00
O1032  O     0.21964   0.50000   0.16245   0.00000  Uiso   1.00
O1033  O     0.00000   0.78037   0.83755   0.00000  Uiso   1.00
O1034  O     0.00000   0.71964   0.16245   0.00000  Uiso   1.00
O1035  O     0.21964   0.50000   0.83755   0.00000  Uiso   1.00
O1036  O     0.25000   0.50000   0.75000   0.00000  Uiso   1.00
O1037  O     0.28037   0.50000   0.16245   0.00000  Uiso   1.00
O1038  O     0.20725   0.57307   0.27302   0.00000  Uiso   1.00
O1039  O     0.29276   0.92692   0.72698   0.00000  Uiso   1.00
O1040  O     0.42693   0.70724   0.27302   0.00000  Uiso   1.00
O1041  O     0.07308   0.79275   0.72698   0.00000  Uiso   1.00
O1042  O     0.29276   0.92692   0.27302   0.00000  Uiso   1.00
O1043  O     0.20725   0.57307   0.72698   0.00000  Uiso   1.00
O1044  O     0.07308   0.79275   0.27302   0.00000  Uiso   1.00
O1045  O     0.42693   0.70724   0.72698   0.00000  Uiso   1.00
O1046  O     0.20725   0.92692   0.72698   0.00000  Uiso   1.00
O1047  O     0.00000   0.75000   0.25000   0.00000  Uiso   1.00
O1048  O     0.29276   0.57307   0.27302   0.00000  Uiso   1.00
O1049  O     0.42693   0.79275   0.72698   0.00000  Uiso   1.00
O1050  O     0.07308   0.70724   0.27302   0.00000  Uiso   1.00
O1051  O     0.29276   0.57307   0.72698   0.00000  Uiso   1.00
O1052  O     0.20725   0.92692   0.27302   0.00000  Uiso   1.00
O1053  O     0.07308   0.70724   0.72698   0.00000  Uiso   1.00
O1054  O     0.42693   0.79275   0.27302   0.00000  Uiso   1.00
O1055  O     0.45725   0.82307   0.77302   0.00000  Uiso   1.00
O1056  O     0.04276   0.67692   0.22698   0.00000  Uiso   1.00
O1057  O     0.17693   0.95724   0.77302   0.00000  Uiso   1.00
O1058  O     0.00000   0.75000   0.75000   0.00000  Uiso   1.00
O1059  O     0.32308   0.54275   0.22698   0.00000  Uiso   1.00
O1060  O     0.04276   0.67692   0.77302   0.00000  Uiso   1.00
O1061  O     0.45725   0.82307   0.22698   0.00000  Uiso   1.00
O1062  O     0.32308   0.54275   0.77302   0.00000  Uiso   1.00
O1063  O     0.17693   0.95724   0.22698   0.00000  Uiso   1.00
O1064  O     0.45725   0.67692   0.22698   0.00000  Uiso   1.00
O1065  O     0.04276   0.82307   0.77302   0.00000  Uiso   1.00
O1066  O     0.17693   0.54275   0.22698   0.00000  Uiso   1.00
O1067  O     0.32308   0.95724   0.77302   0.00000  Uiso   1.00
O1068  O     0.04276   0.82307   0.22698   0.00000  Uiso   1.00
O1069  O     0.25000   0.96963   0.33755   0.00000  Uiso   1.00
O1070  O     0.45725   0.67692   0.77302   0.00000  Uiso   1.00
O1071  O     0.32308   0.95724   0.22698   0.00000  Uiso   1.00
O1072  O     0.17693   0.54275   0.77302   0.00000  Uiso   1.00
O1073  O     0.25000   0.53036   0.66245   0.00000  Uiso   1.00
O1074  O     0.03037   0.75000   0.33755   0.00000  Uiso   1.00
O1075  O     0.46964   0.75000   0.66245   0.00000  Uiso   1.00
O1076  O     0.25000   0.53036   0.33755   0.00000  Uiso   1.00
Zn1077 Zn    0.20660   0.50000   0.21735   0.00000  Uiso   1.00
Zn1078 Zn    0.04341   0.75000   0.28265   0.00000  Uiso   1.00
Zn1079 Zn    0.25000   0.95659   0.71735   0.00000  Uiso   1.00
Zn1080 Zn    0.25000   0.54340   0.28265   0.00000  Uiso   1.00
Zn1081 Zn    0.04341   0.75000   0.71735   0.00000  Uiso   1.00
Zn1082 Zn    0.45660   0.75000   0.28265   0.00000  Uiso   1.00
Zn1083 Zn    0.25000   0.54340   0.71735   0.00000  Uiso   1.00
Zn1084 Zn    0.25000   0.95659   0.28265   0.00000  Uiso   1.00
Zn1085 Zn    0.29341   0.50000   0.78265   0.00000  Uiso   1.00
Zn1086 Zn    0.00000   0.70660   0.21735   0.00000  Uiso   1.00
Zn1087 Zn    0.00000   0.79341   0.78265   0.00000  Uiso   1.00
Zn1088 Zn    0.29341   0.50000   0.21735   0.00000  Uiso   1.00
Zn1089 Zn    0.20660   0.50000   0.78265   0.00000  Uiso   1.00
Zn1090 Zn    0.00000   0.79341   0.21735   0.00000  Uiso   1.00
Zn1091 Zn    0.00000   0.70660   0.78265   0.00000  Uiso   1.00
Zn1092 Zn    0.45660   0.75000   0.71735   0.00000  Uiso   1.00
C1093  C     0.53334   0.74998   0.41892   0.00000  Uiso   1.00
C1094  C     0.71667   0.50002   0.08108   0.00000  Uiso   1.00
C1095  C     0.75001   0.96654   0.54069   0.00000  Uiso   1.00
C1096  C     0.53355   0.74998   0.45938   0.00000  Uiso   1.00
C1097  C     0.96645   0.74998   0.54062   0.00000  Uiso   1.00
C1098  C     0.75000   0.96654   0.45931   0.00000  Uiso   1.00
C1099  C     0.75000   0.53346   0.54069   0.00000  Uiso   1.00
C1100  C     0.71649   0.50002   0.95924   0.00000  Uiso   1.00
C1101  C     0.78351   0.50002   0.04076   0.00000  Uiso   1.00
C1102  C     0.50000   0.78346   0.95931   0.00000  Uiso   1.00
C1103  C     0.50000   0.71654   0.04069   0.00000  Uiso   1.00
C1104  C     0.78355   0.50002   0.95938   0.00000  Uiso   1.00
C1105  C     0.99999   0.71677   0.91884   0.00000  Uiso   1.00
C1106  C     0.71645   0.50002   0.04062   0.00000  Uiso   1.00
C1107  C     0.50000   0.71654   0.95931   0.00000  Uiso   1.00
C1108  C     0.50000   0.78346   0.04069   0.00000  Uiso   1.00
C1109  C     0.59810   0.84805   0.25046   0.00000  Uiso   1.00
C1110  C     0.90195   0.65190   0.74974   0.00000  Uiso   1.00
C1111  C     0.65195   0.59810   0.24974   0.00000  Uiso   1.00
C1112  C     0.84810   0.90195   0.75046   0.00000  Uiso   1.00
C1113  C     0.90191   0.65195   0.24966   0.00000  Uiso   1.00
C1114  C     0.59809   0.84806   0.75036   0.00000  Uiso   1.00
C1115  C     0.84809   0.90194   0.25036   0.00000  Uiso   1.00
C1116  C     0.50001   0.78323   0.08116   0.00000  Uiso   1.00
C1117  C     0.65191   0.59805   0.74966   0.00000  Uiso   1.00
C1118  C     0.59810   0.65195   0.75034   0.00000  Uiso   1.00
C1119  C     0.90191   0.84806   0.24964   0.00000  Uiso   1.00
C1120  C     0.65191   0.90194   0.74964   0.00000  Uiso   1.00
C1121  C     0.84810   0.59805   0.25034   0.00000  Uiso   1.00
C1122  C     0.90190   0.84805   0.74954   0.00000  Uiso   1.00
C1123  C     0.59805   0.65190   0.25026   0.00000  Uiso   1.00
C1124  C     0.84805   0.59810   0.75026   0.00000  Uiso   1.00
C1125  C     0.65190   0.90195   0.24954   0.00000  Uiso   1.00
C1126  C     0.50001   0.74998   0.47964   0.00000  Uiso   1.00
C1127  C     0.71674   0.50001   0.91878   0.00000  Uiso   1.00
C1128  C     0.99999   0.74998   0.52036   0.00000  Uiso   1.00
C1129  C     0.75000   0.50000   0.47964   0.00000  Uiso   1.00
C1130  C     0.75000   0.50000   0.52036   0.00000  Uiso   1.00
C1131  C     0.75001   0.50002   0.97964   0.00000  Uiso   1.00
C1132  C     0.74999   0.50002   0.02036   0.00000  Uiso   1.00
C1133  C     0.50000   0.75000   0.97964   0.00000  Uiso   1.00
C1134  C     0.50000   0.75000   0.02036   0.00000  Uiso   1.00
C1135  C     0.60966   0.94866   0.28000   0.00000  Uiso   1.00
C1136  C     0.88736   0.55413   0.71199   0.00000  Uiso   1.00
C1137  C     0.55492   0.61131   0.28959   0.00000  Uiso   1.00
C1138  C     0.78327   0.50001   0.08122   0.00000  Uiso   1.00
C1139  C     0.94731   0.89097   0.71632   0.00000  Uiso   1.00
C1140  C     0.89106   0.55305   0.28425   0.00000  Uiso   1.00
C1141  C     0.60868   0.94723   0.71653   0.00000  Uiso   1.00
C1142  C     0.94892   0.89010   0.28022   0.00000  Uiso   1.00
C1143  C     0.55138   0.61026   0.71874   0.00000  Uiso   1.00
C1144  C     0.60894   0.55305   0.71575   0.00000  Uiso   1.00
C1145  C     0.89132   0.94723   0.28347   0.00000  Uiso   1.00
C1146  C     0.55108   0.89010   0.71978   0.00000  Uiso   1.00
C1147  C     0.94862   0.61026   0.28127   0.00000  Uiso   1.00
C1148  C     0.89034   0.94866   0.72001   0.00000  Uiso   1.00
C1149  C     0.99999   0.78323   0.91884   0.00000  Uiso   1.00
C1150  C     0.61264   0.55413   0.28800   0.00000  Uiso   1.00
C1151  C     0.94508   0.61131   0.71040   0.00000  Uiso   1.00
C1152  C     0.55269   0.89097   0.28369   0.00000  Uiso   1.00
C1153  C     0.86264   0.69587   0.78801   0.00000  Uiso   1.00
C1154  C     0.64034   0.80134   0.22000   0.00000  Uiso   1.00
C1155  C     0.80269   0.85903   0.78368   0.00000  Uiso   1.00
C1156  C     0.69508   0.63869   0.21041   0.00000  Uiso   1.00
C1157  C     0.64132   0.80277   0.78347   0.00000  Uiso   1.00
C1158  C     0.85894   0.69695   0.21575   0.00000  Uiso   1.00
C1159  C     0.69862   0.63974   0.78127   0.00000  Uiso   1.00
C1160  C     0.50001   0.71677   0.08116   0.00000  Uiso   1.00
C1161  C     0.80108   0.85990   0.21978   0.00000  Uiso   1.00
C1162  C     0.85868   0.80277   0.21653   0.00000  Uiso   1.00
C1163  C     0.64106   0.69695   0.78425   0.00000  Uiso   1.00
C1164  C     0.80138   0.63974   0.21874   0.00000  Uiso   1.00
C1165  C     0.69892   0.85990   0.78022   0.00000  Uiso   1.00
C1166  C     0.63736   0.69587   0.21200   0.00000  Uiso   1.00
C1167  C     0.85966   0.80134   0.77999   0.00000  Uiso   1.00
C1168  C     0.69731   0.85903   0.21632   0.00000  Uiso   1.00
C1169  C     0.80492   0.63869   0.78960   0.00000  Uiso   1.00
C1170  C     0.50004   0.74999   0.39851   0.00000  Uiso   1.00
C1171  C     0.99996   0.74999   0.60149   0.00000  Uiso   1.00
C1172  C     0.74999   0.50000   0.39850   0.00000  Uiso   1.00
C1173  C     0.96667   0.74998   0.58108   0.00000  Uiso   1.00
C1174  C     0.75001   0.50000   0.60150   0.00000  Uiso   1.00
C1175  C     0.75004   0.50001   0.89851   0.00000  Uiso   1.00
C1176  C     0.74996   0.50001   0.10149   0.00000  Uiso   1.00
C1177  C     0.99999   0.75000   0.89850   0.00000  Uiso   1.00
C1178  C     0.50001   0.75000   0.10150   0.00000  Uiso   1.00
C1179  C     0.93330   0.74998   0.47962   0.00000  Uiso   1.00
C1180  C     0.56670   0.74998   0.52038   0.00000  Uiso   1.00
C1181  C     0.74999   0.56657   0.47977   0.00000  Uiso   1.00
C1182  C     0.75000   0.93343   0.52023   0.00000  Uiso   1.00
C1183  C     0.56672   0.74998   0.47992   0.00000  Uiso   1.00
C1184  C     0.75000   0.96677   0.41884   0.00000  Uiso   1.00
C1185  C     0.93328   0.74998   0.52008   0.00000  Uiso   1.00
C1186  C     0.75000   0.93343   0.47977   0.00000  Uiso   1.00
C1187  C     0.75000   0.56657   0.52023   0.00000  Uiso   1.00
C1188  C     0.68330   0.50002   0.97962   0.00000  Uiso   1.00
C1189  C     0.81670   0.50002   0.02038   0.00000  Uiso   1.00
C1190  C     0.50000   0.81657   0.97977   0.00000  Uiso   1.00
C1191  C     0.50000   0.68343   0.02023   0.00000  Uiso   1.00
C1192  C     0.81672   0.50002   0.97992   0.00000  Uiso   1.00
C1193  C     0.68328   0.50002   0.02008   0.00000  Uiso   1.00
C1194  C     0.50000   0.68343   0.97977   0.00000  Uiso   1.00
C1195  C     0.75001   0.53323   0.58116   0.00000  Uiso   1.00
C1196  C     0.50000   0.81657   0.02023   0.00000  Uiso   1.00
C1197  C     0.75000   0.50000   0.35602   0.00000  Uiso   1.00
C1198  C     0.75000   0.50000   0.64399   0.00000  Uiso   1.00
C1199  C     0.50002   0.75000   0.35604   0.00000  Uiso   1.00
C1200  C     0.99998   0.75000   0.64397   0.00000  Uiso   1.00
C1201  C     0.50000   0.75000   0.85602   0.00000  Uiso   1.00
C1202  C     0.50000   0.75000   0.14399   0.00000  Uiso   1.00
C1203  C     0.75002   0.50000   0.85604   0.00000  Uiso   1.00
C1204  C     0.74998   0.50000   0.14397   0.00000  Uiso   1.00
C1205  C     0.67999   0.56991   0.25001   0.00000  Uiso   1.00
C1206  C     0.96674   0.74998   0.41878   0.00000  Uiso   1.00
C1207  C     0.82002   0.93009   0.75003   0.00000  Uiso   1.00
C1208  C     0.93007   0.68001   0.25000   0.00000  Uiso   1.00
C1209  C     0.56992   0.81999   0.75000   0.00000  Uiso   1.00
C1210  C     0.81992   0.93001   0.25000   0.00000  Uiso   1.00
C1211  C     0.68007   0.56999   0.75000   0.00000  Uiso   1.00
C1212  C     0.57002   0.81991   0.25003   0.00000  Uiso   1.00
C1213  C     0.92999   0.68009   0.75001   0.00000  Uiso   1.00
C1214  C     0.68008   0.93001   0.75000   0.00000  Uiso   1.00
C1215  C     0.81993   0.56999   0.25000   0.00000  Uiso   1.00
C1216  C     0.92998   0.81991   0.74997   0.00000  Uiso   1.00
C1217  C     0.53327   0.74999   0.58122   0.00000  Uiso   1.00
C1218  C     0.57001   0.68009   0.25000   0.00000  Uiso   1.00
C1219  C     0.82001   0.56991   0.75000   0.00000  Uiso   1.00
C1220  C     0.67998   0.93009   0.24997   0.00000  Uiso   1.00
C1221  C     0.56993   0.68001   0.75000   0.00000  Uiso   1.00
C1222  C     0.93008   0.81999   0.25000   0.00000  Uiso   1.00
C1223  C     0.61698   0.91032   0.26480   0.00000  Uiso   1.00
C1224  C     0.88168   0.59098   0.73150   0.00000  Uiso   1.00
C1225  C     0.59101   0.61821   0.26889   0.00000  Uiso   1.00
C1226  C     0.91017   0.88296   0.73433   0.00000  Uiso   1.00
C1227  C     0.88303   0.59000   0.26595   0.00000  Uiso   1.00
C1228  C     0.74999   0.53323   0.41884   0.00000  Uiso   1.00
C1229  C     0.61685   0.91014   0.73446   0.00000  Uiso   1.00
C1230  C     0.91048   0.88294   0.26476   0.00000  Uiso   1.00
C1231  C     0.58965   0.61721   0.73477   0.00000  Uiso   1.00
C1232  C     0.61697   0.59000   0.73405   0.00000  Uiso   1.00
C1233  C     0.88315   0.91013   0.26554   0.00000  Uiso   1.00
C1234  C     0.58952   0.88294   0.73524   0.00000  Uiso   1.00
C1235  C     0.91035   0.61721   0.26523   0.00000  Uiso   1.00
C1236  C     0.88302   0.91032   0.73520   0.00000  Uiso   1.00
C1237  C     0.61832   0.59098   0.26849   0.00000  Uiso   1.00
C1238  C     0.90899   0.61821   0.73111   0.00000  Uiso   1.00
C1239  C     0.75001   0.96677   0.58116   0.00000  Uiso   1.00
C1240  C     0.58983   0.88296   0.26568   0.00000  Uiso   1.00
C1241  C     0.86832   0.65902   0.76850   0.00000  Uiso   1.00
C1242  C     0.63302   0.83968   0.23520   0.00000  Uiso   1.00
C1243  C     0.83983   0.86704   0.76568   0.00000  Uiso   1.00
C1244  C     0.65899   0.63179   0.23111   0.00000  Uiso   1.00
C1245  C     0.63315   0.83986   0.76554   0.00000  Uiso   1.00
C1246  C     0.86697   0.66000   0.23405   0.00000  Uiso   1.00
C1247  C     0.66035   0.63279   0.76523   0.00000  Uiso   1.00
C1248  C     0.83952   0.86706   0.23524   0.00000  Uiso   1.00
C1249  C     0.86685   0.83986   0.23446   0.00000  Uiso   1.00
C1250  C     0.78334   0.50002   0.91892   0.00000  Uiso   1.00
C1251  C     0.63303   0.66000   0.76595   0.00000  Uiso   1.00
C1252  C     0.83965   0.63279   0.23477   0.00000  Uiso   1.00
C1253  C     0.66048   0.86706   0.76476   0.00000  Uiso   1.00
C1254  C     0.63168   0.65902   0.23151   0.00000  Uiso   1.00
C1255  C     0.86698   0.83968   0.76480   0.00000  Uiso   1.00
C1256  C     0.66017   0.86704   0.23432   0.00000  Uiso   1.00
C1257  C     0.84101   0.63179   0.76889   0.00000  Uiso   1.00
C1258  C     0.96649   0.74998   0.45924   0.00000  Uiso   1.00
C1259  C     0.53351   0.74998   0.54076   0.00000  Uiso   1.00
C1260  C     0.74999   0.53346   0.45931   0.00000  Uiso   1.00
H1261  H     0.90738   0.74998   0.46427   0.00000  Uiso   1.00
H1262  H     0.84262   0.50002   0.03573   0.00000  Uiso   1.00
H1263  H     0.70280   0.66718   0.79390   0.00000  Uiso   1.00
H1264  H     0.70485   0.61960   0.80446   0.00000  Uiso   1.00
H1265  H     0.78098   0.86285   0.24367   0.00000  Uiso   1.00
H1266  H     0.79448   0.87990   0.19658   0.00000  Uiso   1.00
H1267  H     0.79682   0.83239   0.20736   0.00000  Uiso   1.00
H1268  H     0.88244   0.78405   0.21555   0.00000  Uiso   1.00
H1269  H     0.83683   0.78885   0.23332   0.00000  Uiso   1.00
H1270  H     0.84979   0.80636   0.18595   0.00000  Uiso   1.00
H1271  H     0.61733   0.71572   0.78505   0.00000  Uiso   1.00
H1272  H     0.64961   0.69315   0.81491   0.00000  Uiso   1.00
H1273  H     0.50000   0.84245   0.96448   0.00000  Uiso   1.00
H1274  H     0.66312   0.71094   0.76784   0.00000  Uiso   1.00
H1275  H     0.78094   0.63682   0.24232   0.00000  Uiso   1.00
H1276  H     0.79720   0.66718   0.20610   0.00000  Uiso   1.00
H1277  H     0.79515   0.61960   0.19554   0.00000  Uiso   1.00
H1278  H     0.71902   0.86285   0.75632   0.00000  Uiso   1.00
H1279  H     0.70552   0.87990   0.80342   0.00000  Uiso   1.00
H1280  H     0.70318   0.83239   0.79264   0.00000  Uiso   1.00
H1281  H     0.63556   0.71775   0.23413   0.00000  Uiso   1.00
H1282  H     0.66403   0.69920   0.19731   0.00000  Uiso   1.00
H1283  H     0.61578   0.70030   0.18976   0.00000  Uiso   1.00
H1284  H     0.50000   0.65755   0.03553   0.00000  Uiso   1.00
H1285  H     0.86205   0.78163   0.75571   0.00000  Uiso   1.00
H1286  H     0.87998   0.79430   0.80280   0.00000  Uiso   1.00
H1287  H     0.83224   0.79724   0.79279   0.00000  Uiso   1.00
H1288  H     0.71607   0.88276   0.21536   0.00000  Uiso   1.00
H1289  H     0.71134   0.83718   0.23303   0.00000  Uiso   1.00
H1290  H     0.69363   0.85026   0.18573   0.00000  Uiso   1.00
H1291  H     0.78566   0.61534   0.78894   0.00000  Uiso   1.00
H1292  H     0.81019   0.64459   0.82070   0.00000  Uiso   1.00
H1293  H     0.79061   0.66219   0.77596   0.00000  Uiso   1.00
H1294  H     0.84265   0.50002   0.96468   0.00000  Uiso   1.00
H1295  H     0.65735   0.50002   0.03532   0.00000  Uiso   1.00
H1296  H     0.50000   0.65755   0.96448   0.00000  Uiso   1.00
H1297  H     0.50000   0.84245   0.03553   0.00000  Uiso   1.00
H1298  H     0.55911   0.74999   0.40336   0.00000  Uiso   1.00
H1299  H     0.94089   0.74998   0.59664   0.00000  Uiso   1.00
H1300  H     0.75000   0.94104   0.40324   0.00000  Uiso   1.00
H1301  H     0.59262   0.74998   0.53573   0.00000  Uiso   1.00
H1302  H     0.75001   0.55896   0.59676   0.00000  Uiso   1.00
H1303  H     0.94096   0.74999   0.40312   0.00000  Uiso   1.00
H1304  H     0.55904   0.74999   0.59688   0.00000  Uiso   1.00
H1305  H     0.74999   0.55896   0.40324   0.00000  Uiso   1.00
H1306  H     0.75001   0.94104   0.59676   0.00000  Uiso   1.00
H1307  H     0.80911   0.50001   0.90336   0.00000  Uiso   1.00
H1308  H     0.69089   0.50001   0.09664   0.00000  Uiso   1.00
H1309  H     0.99999   0.69104   0.90324   0.00000  Uiso   1.00
H1310  H     0.50001   0.80896   0.09676   0.00000  Uiso   1.00
H1311  H     0.69096   0.50001   0.90312   0.00000  Uiso   1.00
H1312  H     0.74999   0.59245   0.46448   0.00000  Uiso   1.00
H1313  H     0.80904   0.50001   0.09688   0.00000  Uiso   1.00
H1314  H     0.99999   0.80896   0.90324   0.00000  Uiso   1.00
H1315  H     0.50001   0.69104   0.09676   0.00000  Uiso   1.00
H1316  H     0.61205   0.96837   0.25572   0.00000  Uiso   1.00
H1317  H     0.58225   0.95275   0.29280   0.00000  Uiso   1.00
H1318  H     0.62999   0.95569   0.30281   0.00000  Uiso   1.00
H1319  H     0.88556   0.53225   0.73412   0.00000  Uiso   1.00
H1320  H     0.86577   0.54971   0.68976   0.00000  Uiso   1.00
H1321  H     0.91403   0.55080   0.69731   0.00000  Uiso   1.00
H1322  H     0.53566   0.63466   0.28893   0.00000  Uiso   1.00
H1323  H     0.75001   0.90755   0.53553   0.00000  Uiso   1.00
H1324  H     0.54061   0.58781   0.27595   0.00000  Uiso   1.00
H1325  H     0.56019   0.60541   0.32070   0.00000  Uiso   1.00
H1326  H     0.96608   0.86724   0.71537   0.00000  Uiso   1.00
H1327  H     0.94364   0.89975   0.68573   0.00000  Uiso   1.00
H1328  H     0.96134   0.91282   0.73304   0.00000  Uiso   1.00
H1329  H     0.86733   0.53428   0.28505   0.00000  Uiso   1.00
H1330  H     0.91312   0.53906   0.26784   0.00000  Uiso   1.00
H1331  H     0.89961   0.55685   0.31491   0.00000  Uiso   1.00
H1332  H     0.63244   0.96595   0.71555   0.00000  Uiso   1.00
H1333  H     0.59979   0.94364   0.68596   0.00000  Uiso   1.00
H1334  H     0.59265   0.74998   0.46468   0.00000  Uiso   1.00
H1335  H     0.58683   0.96115   0.73332   0.00000  Uiso   1.00
H1336  H     0.96902   0.88715   0.25633   0.00000  Uiso   1.00
H1337  H     0.95318   0.91761   0.29264   0.00000  Uiso   1.00
H1338  H     0.95552   0.87010   0.30343   0.00000  Uiso   1.00
H1339  H     0.53094   0.61318   0.74232   0.00000  Uiso   1.00
H1340  H     0.54515   0.63040   0.69554   0.00000  Uiso   1.00
H1341  H     0.54720   0.58282   0.70610   0.00000  Uiso   1.00
H1342  H     0.63267   0.53428   0.71495   0.00000  Uiso   1.00
H1343  H     0.58688   0.53906   0.73216   0.00000  Uiso   1.00
H1344  H     0.60039   0.55685   0.68509   0.00000  Uiso   1.00
H1345  H     0.90735   0.74998   0.53532   0.00000  Uiso   1.00
H1346  H     0.86756   0.96595   0.28445   0.00000  Uiso   1.00
H1347  H     0.90021   0.94364   0.31405   0.00000  Uiso   1.00
H1348  H     0.91317   0.96115   0.26668   0.00000  Uiso   1.00
H1349  H     0.53098   0.88715   0.74368   0.00000  Uiso   1.00
H1350  H     0.54682   0.91761   0.70736   0.00000  Uiso   1.00
H1351  H     0.54448   0.87010   0.69658   0.00000  Uiso   1.00
H1352  H     0.96906   0.61318   0.25768   0.00000  Uiso   1.00
H1353  H     0.95485   0.63040   0.30446   0.00000  Uiso   1.00
H1354  H     0.95280   0.58282   0.29390   0.00000  Uiso   1.00
H1355  H     0.88795   0.96837   0.74429   0.00000  Uiso   1.00
H1356  H     0.75000   0.90755   0.46448   0.00000  Uiso   1.00
H1357  H     0.91776   0.95276   0.70721   0.00000  Uiso   1.00
H1358  H     0.87002   0.95570   0.69720   0.00000  Uiso   1.00
H1359  H     0.61444   0.53225   0.26587   0.00000  Uiso   1.00
H1360  H     0.63423   0.54970   0.31024   0.00000  Uiso   1.00
H1361  H     0.58597   0.55080   0.30269   0.00000  Uiso   1.00
H1362  H     0.96434   0.63466   0.71106   0.00000  Uiso   1.00
H1363  H     0.95939   0.58781   0.72405   0.00000  Uiso   1.00
H1364  H     0.93981   0.60541   0.67930   0.00000  Uiso   1.00
H1365  H     0.53393   0.86724   0.28464   0.00000  Uiso   1.00
H1366  H     0.55637   0.89974   0.31428   0.00000  Uiso   1.00
H1367  H     0.75000   0.59245   0.53553   0.00000  Uiso   1.00
H1368  H     0.53867   0.91282   0.26697   0.00000  Uiso   1.00
H1369  H     0.86444   0.71775   0.76588   0.00000  Uiso   1.00
H1370  H     0.83597   0.69920   0.80269   0.00000  Uiso   1.00
H1371  H     0.88423   0.70029   0.81024   0.00000  Uiso   1.00
H1372  H     0.63795   0.78163   0.24428   0.00000  Uiso   1.00
H1373  H     0.62001   0.79431   0.19719   0.00000  Uiso   1.00
H1374  H     0.66776   0.79725   0.20720   0.00000  Uiso   1.00
H1375  H     0.78393   0.88276   0.78463   0.00000  Uiso   1.00
H1376  H     0.78866   0.83718   0.76696   0.00000  Uiso   1.00
H1377  H     0.80636   0.85025   0.81427   0.00000  Uiso   1.00
H1378  H     0.65738   0.50002   0.96427   0.00000  Uiso   1.00
H1379  H     0.71434   0.61534   0.21107   0.00000  Uiso   1.00
H1380  H     0.68981   0.64459   0.17930   0.00000  Uiso   1.00
H1381  H     0.70939   0.66219   0.22405   0.00000  Uiso   1.00
H1382  H     0.61756   0.78405   0.78445   0.00000  Uiso   1.00
H1383  H     0.66317   0.78885   0.76668   0.00000  Uiso   1.00
H1384  H     0.65021   0.80636   0.81405   0.00000  Uiso   1.00
H1385  H     0.88267   0.71572   0.21495   0.00000  Uiso   1.00
H1386  H     0.85039   0.69315   0.18509   0.00000  Uiso   1.00
H1387  H     0.83688   0.71094   0.23216   0.00000  Uiso   1.00
H1388  H     0.71906   0.63682   0.75768   0.00000  Uiso   1.00
O1389  O     0.75000   0.50000   0.25000   0.00000  Uiso   1.00
O1390  O     0.75000   0.96963   0.66245   0.00000  Uiso   1.00
O1391  O     0.96964   0.75000   0.33755   0.00000  Uiso   1.00
O1392  O     0.53037   0.75000   0.66245   0.00000  Uiso   1.00
O1393  O     0.50000   0.71964   0.83755   0.00000  Uiso   1.00
O1394  O     0.50000   0.78037   0.16245   0.00000  Uiso   1.00
O1395  O     0.78037   0.50000   0.83755   0.00000  Uiso   1.00
O1396  O     0.71964   0.50000   0.16245   0.00000  Uiso   1.00
O1397  O     0.50000   0.78037   0.83755   0.00000  Uiso   1.00
O1398  O     0.50000   0.71964   0.16245   0.00000  Uiso   1.00
O1399  O     0.71964   0.50000   0.83755   0.00000  Uiso   1.00
O1400  O     0.75000   0.50000   0.75000   0.00000  Uiso   1.00
O1401  O     0.78037   0.50000   0.16245   0.00000  Uiso   1.00
O1402  O     0.70725   0.57307   0.27302   0.00000  Uiso   1.00
O1403  O     0.79276   0.92692   0.72698   0.00000  Uiso   1.00
O1404  O     0.92693   0.70724   0.27302   0.00000  Uiso   1.00
O1405  O     0.57308   0.79275   0.72698   0.00000  Uiso   1.00
O1406  O     0.79276   0.92692   0.27302   0.00000  Uiso   1.00
O1407  O     0.70725   0.57307   0.72698   0.00000  Uiso   1.00
O1408  O     0.57308   0.79275   0.27302   0.00000  Uiso   1.00
O1409  O     0.92693   0.70724   0.72698   0.00000  Uiso   1.00
O1410  O     0.70725   0.92692   0.72698   0.00000  Uiso   1.00
O1411  O     0.50000   0.75000   0.25000   0.00000  Uiso   1.00
O1412  O     0.79276   0.57307   0.27302   0.00000  Uiso   1.00
O1413  O     0.92693   0.79275   0.72698   0.00000  Uiso   1.00
O1414  O     0.57308   0.70724   0.27302   0.00000  Uiso   1.00
O1415  O     0.79276   0.57307   0.72698   0.00000  Uiso   1.00
O1416  O     0.70725   0.92692   0.27302   0.00000  Uiso   1.00
O1417  O     0.57308   0.70724   0.72698   0.00000  Uiso   1.00
O1418  O     0.92693   0.79275   0.27302   0.00000  Uiso   1.00
O1419  O     0.95725   0.82307   0.77302   0.00000  Uiso   1.00
O1420  O     0.54276   0.67692   0.22698   0.00000  Uiso   1.00
O1421  O     0.67693   0.95724   0.77302   0.00000  Uiso   1.00
O1422  O     0.50000   0.75000   0.75000   0.00000  Uiso   1.00
O1423  O     0.82308   0.54275   0.22698   0.00000  Uiso   1.00
O1424  O     0.54276   0.67692   0.77302   0.00000  Uiso   1.00
O1425  O     0.95725   0.82307   0.22698   0.00000  Uiso   1.00
O1426  O     0.82308   0.54275   0.77302   0.00000  Uiso   1.00
O1427  O     0.67693   0.95724   0.22698   0.00000  Uiso   1.00
O1428  O     0.95725   0.67692   0.22698   0.00000  Uiso   1.00
O1429  O     0.54276   0.82307   0.77302   0.00000  Uiso   1.00
O1430  O     0.67693   0.54275   0.22698   0.00000  Uiso   1.00
O1431  O     0.82308   0.95724   0.77302   0.00000  Uiso   1.00
O1432  O     0.54276   0.82307   0.22698   0.00000  Uiso   1.00
O1433  O     0.75000   0.96963   0.33755   0.00000  Uiso   1.00
O1434  O     0.95725   0.67692   0.77302   0.00000  Uiso   1.00
O1435  O     0.82308   0.95724   0.22698   0.00000  Uiso   1.00
O1436  O     0.67693   0.54275   0.77302   0.00000  Uiso   1.00
O1437  O     0.75000   0.53036   0.66245   0.00000  Uiso   1.00
O1438  O     0.53037   0.75000   0.33755   0.00000  Uiso   1.00
O1439  O     0.96964   0.75000   0.66245   0.00000  Uiso   1.00
O1440  O     0.75000   0.53036   0.33755   0.00000  Uiso   1.00
Zn1441 Zn    0.70660   0.50000   0.21735   0.00000  Uiso   1.00
Zn1442 Zn    0.54341   0.75000   0.28265   0.00000  Uiso   1.00
Zn1443 Zn    0.75000   0.95659   0.71735   0.00000  Uiso   1.00
Zn1444 Zn    0.75000   0.54340   0.28265   0.00000  Uiso   1.00
Zn1445 Zn    0.54341   0.75000   0.71735   0.00000  Uiso   1.00
Zn1446 Zn    0.95660   0.75000   0.28265   0.00000  Uiso   1.00
Zn1447 Zn    0.75000   0.54340   0.71735   0.00000  Uiso   1.00
Zn1448 Zn    0.75000   0.95659   0.28265   0.00000  Uiso   1.00
Zn1449 Zn    0.79341   0.50000   0.78265   0.00000  Uiso   1.00
Zn1450 Zn    0.50000   0.70660   0.21735   0.00000  Uiso   1.00
Zn1451 Zn    0.50000   0.79341   0.78265   0.00000  Uiso   1.00
Zn1452 Zn    0.79341   0.50000   0.21735   0.00000  Uiso   1.00
Zn1453 Zn    0.70660   0.50000   0.78265   0.00000  Uiso   1.00
Zn1454 Zn    0.50000   0.79341   0.21735   0.00000  Uiso   1.00
Zn1455 Zn    0.50000   0.70660   0.78265   0.00000  Uiso   1.00
Zn1456 Zn    0.95660   0.75000   0.71735   0.00000  Uiso   1.00
loop_
_geom_bond_atom_site_label_1
_geom_bond_atom_site_label_2
_geom_bond_distance
_geom_bond_site_symmetry_2
_ccdc_geom_bond_type
C1     H206    1.084   .     S
C1     C78     1.404   .     A
C1     C4      1.395   .     A
C2     H216    1.084   .     S
C2     C14     1.395   .     A
C2     C84     1.404   .     A
C3     C147    1.395   .     A
C3     C90     1.402   .     A
C3     C766    1.411   .     S
C4     C91     1.402   .     A
C4     C34     1.411   .     A
C5     C36     1.411   .     A
C5     C81     1.395   .     A
C5     C93     1.402   .     A
C6     C94     1.402   .     A
C6     C92     1.395   .     A
C6     C765    1.411   .     S
C7     C103    1.395   .     A
C7     C95     1.402   .     A
C7     C38     1.411   .     A
C8     C35     1.395   .     A
C8     C96     1.402   .     A
C8     C39     1.411   .     A
C9     C46     1.395   .     A
C9     C40     1.411   .     A
C9     C97     1.402   .     A
C10    C41     1.411   .     A
C10    C98     1.402   .     A
C10    C421    1.395   1_455 A
C11    C99     1.402   .     A
C11    C68     1.395   .     A
C11    C42     1.411   .     A
C12    C158    1.395   .     A
C12    C39     1.411   .     A
C12    C100    1.402   .     A
C13    C85     1.404   .     A
C13    C379    1.395   .     A
C13    H217    1.084   .     S
C14    C101    1.402   .     A
C14    C40     1.411   .     A
C15    C377    1.395   1_455 A
C15    C41     1.411   .     A
C15    C102    1.402   .     A
C16    C104    1.402   .     A
C16    C24     1.395   .     A
C16    C42     1.411   .     A
C17    C148    1.414   .     A
C17    C120    1.453   .     S
C17    C150    1.414   .     A
C18    C121    1.453   .     S
C18    C149    1.413   .     A
C18    C146    1.414   .     A
C19    C113    1.453   .     S
C19    C145    1.413   .     A
C19    C152    1.414   .     A
C20    C144    1.414   .     A
C20    C151    1.414   .     A
C20    C115    1.453   .     S
C21    C116    1.453   .     S
C21    C143    1.414   .     A
C21    C154    1.415   .     A
C22    C142    1.414   .     A
C22    C153    1.415   .     A
C22    C117    1.453   .     S
C23    C118    1.453   .     S
C23    C156    1.414   .     A
C23    C141    1.415   .     A
C24    H218    1.084   .     S
C24    C86     1.404   .     A
C25    C119    1.453   .     S
C25    C140    1.415   .     A
C25    C155    1.414   .     A
C26    C139    1.414   .     A
C26    C159    1.415   .     A
C26    C129    1.453   .     S
C27    C138    1.414   .     A
C27    C157    1.415   .     A
C27    C130    1.453   .     S
C28    C137    1.415   .     A
C28    C122    1.453   .     S
C28    C161    1.414   .     A
C29    C135    1.415   .     A
C29    C160    1.414   .     A
C29    C123    1.453   .     S
C30    C134    1.414   .     A
C30    C163    1.414   .     A
C30    C124    1.453   .     S
C31    C162    1.413   .     A
C31    C133    1.414   .     A
C31    C126    1.453   .     S
C32    C127    1.453   .     S
C32    C165    1.414   .     A
C32    C132    1.413   .     A
C33    C164    1.414   .     A
C33    C131    1.414   .     A
C33    C128    1.453   .     S
C34    C400    1.404   1_455 S
C34    C530    1.411   1_455 S
C35    H219    1.084   .     S
C35    C83     1.404   .     A
C36    C398    1.404   .     S
C36    C531    1.411   .     S
C37    C168    1.411   .     A
C37    C38     1.404   .     A
C37    C734    1.411   1_545 S
C38    C731    1.411   1_545 S
C39    C40     1.404   1_556 S
C40    C39     1.404   1_554 S
C41    C42     1.404   1_556 S
C42    C41     1.404   1_554 S
C43    C131    1.521   .     S
C43    H226    1.111   .     S
C43    H224    1.108   .     S
C43    H225    1.105   .     S
C44    C132    1.521   .     S
C44    H227    1.108   .     S
C44    H229    1.105   .     S
C44    H228    1.111   .     S
C45    C133    1.521   .     S
C45    H230    1.107   .     S
C45    H233    1.110   .     S
C45    H232    1.110   .     S
C46    C84     1.404   .     A
C46    H221    1.084   .     S
C47    H235    1.110   .     S
C47    C134    1.521   .     S
C47    H236    1.110   .     S
C47    H234    1.106   .     S
C48    C135    1.521   .     S
C48    H239    1.110   .     S
C48    H238    1.110   .     S
C48    H237    1.106   .     S
C49    H241    1.110   .     S
C49    C137    1.521   .     S
C49    H243    1.110   .     S
C49    H240    1.106   .     S
C50    C138    1.523   .     S
C50    H246    1.111   .     S
C50    H244    1.110   .     S
C50    H245    1.105   .     S
C51    C139    1.523   .     S
C51    H248    1.111   .     S
C51    H247    1.110   .     S
C51    H249    1.105   .     S
C52    H250    1.106   .     S
C52    H252    1.110   .     S
C52    C140    1.521   .     S
C52    H251    1.110   .     S
C53    H254    1.106   .     S
C53    H256    1.110   .     S
C53    C141    1.521   .     S
C53    H255    1.110   .     S
C54    H258    1.105   .     S
C54    H259    1.111   .     S
C54    C142    1.523   .     S
C54    H257    1.109   .     S
C55    H260    1.110   .     S
C55    C143    1.523   .     S
C55    H262    1.105   .     S
C55    H261    1.111   .     S
C56    H266    1.111   .     S
C56    H263    1.108   .     S
C56    C144    1.521   .     S
C56    H265    1.105   .     S
C57    C85     1.404   .     A
C57    H222    1.084   .     S
C57    C374    1.395   .     A
C58    H268    1.111   .     S
C58    C145    1.521   .     S
C58    H269    1.105   .     S
C58    H267    1.108   .     S
C59    H272    1.110   .     S
C59    H270    1.107   .     S
C59    H271    1.110   .     S
C59    C146    1.521   .     S
C60    H273    1.106   .     S
C60    C148    1.521   .     S
C60    H274    1.110   .     S
C60    H276    1.110   .     S
C61    H278    1.105   .     S
C61    H277    1.108   .     S
C61    H279    1.111   .     S
C61    C149    1.521   .     S
C62    C150    1.521   .     S
C62    H281    1.111   .     S
C62    H282    1.105   .     S
C62    H280    1.108   .     S
C63    H284    1.110   .     S
C63    H285    1.110   .     S
C63    C151    1.521   .     S
C63    H283    1.106   .     S
C64    C152    1.521   .     S
C64    H288    1.110   .     S
C64    H287    1.107   .     S
C64    H289    1.110   .     S
C65    H290    1.106   .     S
C65    C153    1.521   .     S
C65    H292    1.110   .     S
C65    H291    1.110   .     S
C66    H294    1.110   .     S
C66    C154    1.521   .     S
C66    H295    1.110   .     S
C66    H293    1.106   .     S
C67    H296    1.110   .     S
C67    H172    1.111   .     S
C67    C155    1.523   .     S
C67    H171    1.105   .     S
C68    C86     1.404   .     A
C68    H223    1.084   .     S
C69    H173    1.110   .     S
C69    C156    1.523   .     S
C69    H175    1.105   .     S
C69    H174    1.111   .     S
C70    C157    1.521   .     S
C70    H177    1.110   .     S
C70    H176    1.106   .     S
C70    H178    1.110   .     S
C71    H180    1.110   .     S
C71    C159    1.521   .     S
C71    H179    1.106   .     S
C71    H182    1.110   .     S
C72    H184    1.105   .     S
C72    H185    1.111   .     S
C72    H183    1.110   .     S
C72    C160    1.523   .     S
C73    H186    1.110   .     S
C73    C161    1.523   .     S
C73    H188    1.105   .     S
C73    H187    1.111   .     S
C74    H190    1.105   .     S
C74    C162    1.521   .     S
C74    H191    1.111   .     S
C74    H189    1.108   .     S
C75    H193    1.108   .     S
C75    H194    1.111   .     S
C75    H195    1.105   .     S
C75    C163    1.521   .     S
C76    H197    1.110   .     S
C76    H196    1.106   .     S
C76    H198    1.110   .     S
C76    C164    1.521   .     S
C77    C165    1.521   .     S
C77    H201    1.110   .     S
C77    H200    1.110   .     S
C77    H199    1.107   .     S
C78    C107    1.464   .     S
C78    C478    1.404   1_455 S
C79    C108    1.464   .     S
C79    C81     1.404   .     A
C79    C489    1.404   .     S
C80    C136    1.404   .     A
C80    C105    1.465   .     S
C80    C820    1.404   1_545 S
C81    H207    1.084   .     S
C82    C106    1.465   .     S
C82    C103    1.404   .     A
C82    C875    1.404   1_545 S
C83    C158    1.404   .     A
C83    C111    1.464   .     S
C84    C112    1.464   .     S
C85    C473    1.465   .     S
C86    C110    1.465   .     S
C87    H169    1.084   .     S
C87    C93     1.395   .     A
C87    C166    1.402   .     A
C88    C91     1.395   .     A
C88    C167    1.402   .     A
C88    H209    1.084   .     S
C89    C95     1.395   .     A
C89    C168    1.402   .     A
C89    H220    1.084   .     S
C90    C94     1.395   .     A
C90    H231    1.084   .     S
C91    H242    1.084   .     S
C92    H208    1.084   .     S
C92    C808    1.404   .     S
C93    H253    1.084   .     S
C94    H264    1.084   .     S
C95    H275    1.084   .     S
C96    H286    1.084   .     S
C96    C101    1.395   1_556 S
C97    H170    1.084   .     S
C97    C100    1.395   1_554 S
C98    H181    1.084   .     S
C98    C104    1.395   1_556 S
C99    H192    1.084   .     S
C99    C102    1.395   1_554 S
C100   H202    1.084   .     S
C100   C97     1.395   1_556 S
C101   H203    1.084   .     S
C101   C96     1.395   1_554 S
C102   H204    1.084   .     S
C102   C99     1.395   1_556 S
C103   H210    1.084   .     S
C104   H205    1.084   .     S
C104   C98     1.395   1_554 S
C105   O348    1.281   .     A
C105   O1069   1.281   1_545 S
C106   O345    1.281   .     A
C106   O1026   1.281   1_545 S
C107   O346    1.279   .     A
C107   O663    1.279   1_455 S
C108   O347    1.279   .     A
C108   O664    1.279   .     S
C109   C449    1.465   1_455 S
C109   O301    1.281   .     S
C109   O305    1.281   .     S
C110   O306    1.281   .     A
C110   O302    1.281   .     A
C111   O307    1.279   .     A
C111   O303    1.279   .     A
C112   O304    1.279   .     A
C112   O309    1.279   .     A
C113   O310    1.277   .     A
C113   O338    1.277   .     A
C114   H211    1.084   .     S
C114   C166    1.395   .     A
C114   C442    1.404   .     S
C115   O311    1.278   .     A
C115   O339    1.276   .     A
C116   O336    1.277   .     A
C116   O312    1.279   .     A
C117   O337    1.277   .     A
C117   O313    1.279   .     A
C118   O314    1.277   .     A
C118   O343    1.279   .     A
C119   O344    1.279   .     A
C119   O315    1.277   .     A
C120   O316    1.276   .     A
C120   O340    1.278   .     A
C121   O317    1.277   .     A
C121   O342    1.277   .     A
C122   O329    1.279   .     A
C122   O318    1.277   .     A
C123   O331    1.279   .     A
C123   O320    1.277   .     A
C124   O321    1.276   .     A
C124   O327    1.278   .     A
C125   H212    1.084   .     S
C125   C167    1.395   .     A
C125   C443    1.404   1_455 S
C126   O322    1.277   .     A
C126   O328    1.277   .     A
C127   O323    1.277   .     A
C127   O334    1.277   .     A
C128   O335    1.276   .     A
C128   O324    1.278   .     A
C129   O332    1.277   .     A
C129   O325    1.279   .     A
C130   O333    1.277   .     A
C130   O326    1.279   .     A
C131   C148    1.409   .     A
C132   C146    1.410   .     A
C133   C145    1.410   .     A
C134   C144    1.409   .     A
C135   C143    1.410   .     A
C136   H213    1.084   .     S
C136   C168    1.395   .     A
C137   C142    1.410   .     A
C138   C141    1.410   .     A
C139   C140    1.410   .     A
C147   H214    1.084   .     S
C147   C810    1.404   .     S
C149   C165    1.410   .     A
C150   C164    1.409   .     A
C151   C163    1.409   .     A
C152   C162    1.410   .     A
C153   C161    1.410   .     A
C154   C160    1.410   .     A
C155   C159    1.410   .     A
C156   C157    1.410   .     A
C158   H215    1.084   .     S
C166   C398    1.411   .     S
C167   C400    1.411   1_455 S
O297   Zn352   1.947   .     S
O297   Zn360   1.946   .     S
O297   Zn349   1.942   .     S
O297   Zn1084  1.947   1_545 S
O298   Zn351   1.952   .     S
O298   C834    1.281   .     S
O299   Zn354   1.951   .     S
O299   C471    1.279   .     S
O300   Zn353   1.951   .     S
O300   C472    1.279   1_455 S
O301   Zn363   1.952   .     S
O302   Zn362   1.952   .     S
O303   Zn357   1.952   .     S
O304   Zn349   1.952   .     S
O305   Zn359   1.952   .     S
O306   Zn358   1.952   .     S
O307   Zn361   1.951   .     S
O308   Zn1079  1.947   1_545 S
O308   Zn357   1.942   .     S
O308   Zn361   1.946   .     S
O308   Zn355   1.947   .     S
O309   Zn360   1.951   .     S
O310   Zn352   1.930   .     S
O311   Zn351   1.930   .     S
O312   Zn354   1.931   .     S
O313   Zn353   1.931   .     S
O314   Zn356   1.931   .     S
O315   Zn355   1.931   .     S
O316   Zn350   1.932   .     S
O317   Zn364   1.932   .     S
O318   Zn351   1.931   .     S
O319   Zn350   1.942   .     S
O319   Zn358   1.947   .     S
O319   Zn362   1.947   .     S
O319   Zn718   1.946   1_455 S
O320   Zn352   1.931   .     S
O321   Zn364   1.932   .     S
O322   Zn350   1.932   .     S
O323   Zn355   1.930   .     S
O324   Zn356   1.930   .     S
O325   Zn353   1.931   .     S
O326   Zn354   1.931   .     S
O327   Zn723   1.930   .     S
O328   Zn358   1.930   .     S
O329   Zn1089  1.931   .     S
O330   Zn359   1.947   .     S
O330   Zn363   1.947   .     S
O330   Zn353   1.946   .     S
O330   Zn728   1.942   1_455 S
O331   Zn360   1.931   .     S
O332   Zn363   1.931   .     S
O333   Zn726   1.931   .     S
O334   Zn357   1.932   .     S
O335   Zn1077  1.932   .     S
O336   Zn722   1.931   .     S
O337   Zn359   1.931   .     S
O338   Zn349   1.932   .     S
O339   Zn1085  1.932   .     S
O340   Zn362   1.930   .     S
O341   Zn356   1.952   .     S
O341   C833    1.281   .     S
O342   Zn727   1.930   .     S
O343   Zn1088  1.931   .     S
O344   Zn361   1.931   .     S
O345   Zn355   1.952   .     S
O346   Zn350   1.952   .     S
O347   Zn364   1.952   .     S
O348   Zn352   1.952   .     S
Zn349  O1063   1.932   1_545 S
Zn351  O1036   1.947   .     S
Zn354  O683    1.946   .     S
Zn356  O1025   1.947   .     S
Zn357  O1067   1.932   1_545 S
Zn358  O700    1.931   1_455 S
Zn359  O691    1.930   1_455 S
Zn360  O1071   1.931   1_545 S
Zn361  O1057   1.931   1_545 S
Zn362  O697    1.931   1_455 S
Zn363  O706    1.930   1_455 S
Zn364  O694    1.942   .     S
C365   H570    1.084   .     S
C365   C442    1.404   .     A
C365   C368    1.395   .     A
C366   H580    1.084   .     S
C366   C378    1.395   .     A
C366   C448    1.404   .     A
C367   C511    1.395   .     A
C367   C454    1.402   .     A
C367   C1130   1.411   .     S
C368   C455    1.402   .     A
C368   C398    1.411   .     A
C369   C400    1.411   .     A
C369   C445    1.395   .     A
C369   C457    1.402   .     A
C370   C458    1.402   .     A
C370   C456    1.395   .     A
C370   C1129   1.411   .     S
C371   C467    1.395   .     A
C371   C459    1.402   .     A
C371   C402    1.411   .     A
C372   C399    1.395   .     A
C372   C460    1.402   .     A
C372   C403    1.411   .     A
C373   C410    1.395   .     A
C373   C404    1.411   .     A
C373   C461    1.402   .     A
C374   C405    1.411   .     A
C374   C462    1.402   .     A
C375   C463    1.402   .     A
C375   C432    1.395   .     A
C375   C406    1.411   .     A
C376   C522    1.395   .     A
C376   C403    1.411   .     A
C376   C464    1.402   .     A
C377   C449    1.404   .     A
C377   C15     1.395   1_655 A
C377   H581    1.084   .     S
C378   C465    1.402   .     A
C378   C404    1.411   .     A
C379   C405    1.411   .     A
C379   C466    1.402   .     A
C380   C468    1.402   .     A
C380   C388    1.395   .     A
C380   C406    1.411   .     A
C381   C512    1.414   .     A
C381   C484    1.453   .     S
C381   C514    1.414   .     A
C382   C485    1.453   .     S
C382   C513    1.413   .     A
C382   C510    1.414   .     A
C383   C477    1.453   .     S
C383   C509    1.413   .     A
C383   C516    1.414   .     A
C384   C508    1.414   .     A
C384   C515    1.414   .     A
C384   C479    1.453   .     S
C385   C480    1.453   .     S
C385   C507    1.414   .     A
C385   C518    1.415   .     A
C386   C506    1.414   .     A
C386   C517    1.415   .     A
C386   C481    1.453   .     S
C387   C482    1.453   .     S
C387   C520    1.414   .     A
C387   C505    1.415   .     A
C388   H582    1.084   .     S
C388   C450    1.404   .     A
C389   C483    1.453   .     S
C389   C504    1.415   .     A
C389   C519    1.414   .     A
C390   C503    1.414   .     A
C390   C523    1.415   .     A
C390   C493    1.453   .     S
C391   C502    1.414   .     A
C391   C521    1.415   .     A
C391   C494    1.453   .     S
C392   C501    1.415   .     A
C392   C486    1.453   .     S
C392   C525    1.414   .     A
C393   C499    1.415   .     A
C393   C524    1.414   .     A
C393   C487    1.453   .     S
C394   C498    1.414   .     A
C394   C527    1.414   .     A
C394   C488    1.453   .     S
C395   C526    1.413   .     A
C395   C497    1.414   .     A
C395   C490    1.453   .     S
C396   C491    1.453   .     S
C396   C529    1.414   .     A
C396   C496    1.413   .     A
C397   C528    1.414   .     A
C397   C495    1.414   .     A
C397   C492    1.453   .     S
C399   H583    1.084   .     S
C399   C447    1.404   .     A
C400   C34     1.404   1_655 S
C400   C167    1.411   1_655 S
C401   C532    1.411   .     A
C401   C402    1.404   .     A
C401   C1098   1.411   1_545 S
C402   C1095   1.411   1_545 S
C403   C404    1.404   1_556 S
C404   C403    1.404   1_554 S
C405   C406    1.404   1_556 S
C406   C405    1.404   1_554 S
C407   C495    1.521   .     S
C407   H590    1.111   .     S
C407   H588    1.108   .     S
C407   H589    1.105   .     S
C408   C496    1.521   .     S
C408   H591    1.108   .     S
C408   H593    1.105   .     S
C408   H592    1.111   .     S
C409   C497    1.521   .     S
C409   H594    1.107   .     S
C409   H597    1.110   .     S
C409   H596    1.110   .     S
C410   C448    1.404   .     A
C410   H585    1.084   .     S
C411   H599    1.110   .     S
C411   C498    1.521   .     S
C411   H600    1.110   .     S
C411   H598    1.106   .     S
C412   C499    1.521   .     S
C412   H603    1.110   .     S
C412   H602    1.110   .     S
C412   H601    1.106   .     S
C413   H605    1.110   .     S
C413   C501    1.521   .     S
C413   H607    1.110   .     S
C413   H604    1.106   .     S
C414   C502    1.523   .     S
C414   H610    1.111   .     S
C414   H608    1.110   .     S
C414   H609    1.105   .     S
C415   C503    1.523   .     S
C415   H612    1.111   .     S
C415   H611    1.110   .     S
C415   H613    1.105   .     S
C416   H614    1.106   .     S
C416   H616    1.110   .     S
C416   C504    1.521   .     S
C416   H615    1.110   .     S
C417   H618    1.106   .     S
C417   H620    1.110   .     S
C417   C505    1.521   .     S
C417   H619    1.110   .     S
C418   H622    1.105   .     S
C418   H623    1.111   .     S
C418   C506    1.523   .     S
C418   H621    1.109   .     S
C419   H624    1.110   .     S
C419   C507    1.523   .     S
C419   H626    1.105   .     S
C419   H625    1.111   .     S
C420   H630    1.111   .     S
C420   H627    1.108   .     S
C420   C508    1.521   .     S
C420   H629    1.105   .     S
C421   C449    1.404   .     A
C421   H586    1.084   .     S
C421   C10     1.395   1_655 A
C422   H632    1.111   .     S
C422   C509    1.521   .     S
C422   H633    1.105   .     S
C422   H631    1.108   .     S
C423   H636    1.110   .     S
C423   H634    1.107   .     S
C423   H635    1.110   .     S
C423   C510    1.521   .     S
C424   H637    1.106   .     S
C424   C512    1.521   .     S
C424   H638    1.110   .     S
C424   H640    1.110   .     S
C425   H642    1.105   .     S
C425   H641    1.108   .     S
C425   H643    1.111   .     S
C425   C513    1.521   .     S
C426   C514    1.521   .     S
C426   H645    1.111   .     S
C426   H646    1.105   .     S
C426   H644    1.108   .     S
C427   H648    1.110   .     S
C427   H649    1.110   .     S
C427   C515    1.521   .     S
C427   H647    1.106   .     S
C428   C516    1.521   .     S
C428   H652    1.110   .     S
C428   H651    1.107   .     S
C428   H653    1.110   .     S
C429   H654    1.106   .     S
C429   C517    1.521   .     S
C429   H656    1.110   .     S
C429   H655    1.110   .     S
C430   H658    1.110   .     S
C430   C518    1.521   .     S
C430   H659    1.110   .     S
C430   H657    1.106   .     S
C431   H660    1.110   .     S
C431   H536    1.111   .     S
C431   C519    1.523   .     S
C431   H535    1.105   .     S
C432   C450    1.404   .     A
C432   H587    1.084   .     S
C433   H537    1.110   .     S
C433   C520    1.523   .     S
C433   H539    1.105   .     S
C433   H538    1.111   .     S
C434   C521    1.521   .     S
C434   H541    1.110   .     S
C434   H540    1.106   .     S
C434   H542    1.110   .     S
C435   H544    1.110   .     S
C435   C523    1.521   .     S
C435   H543    1.106   .     S
C435   H546    1.110   .     S
C436   H548    1.105   .     S
C436   H549    1.111   .     S
C436   H547    1.110   .     S
C436   C524    1.523   .     S
C437   H550    1.110   .     S
C437   C525    1.523   .     S
C437   H552    1.105   .     S
C437   H551    1.111   .     S
C438   H554    1.105   .     S
C438   C526    1.521   .     S
C438   H555    1.111   .     S
C438   H553    1.108   .     S
C439   H557    1.108   .     S
C439   H558    1.111   .     S
C439   H559    1.105   .     S
C439   C527    1.521   .     S
C440   H561    1.110   .     S
C440   H560    1.106   .     S
C440   H562    1.110   .     S
C440   C528    1.521   .     S
C441   C529    1.521   .     S
C441   H565    1.110   .     S
C441   H564    1.110   .     S
C441   H563    1.107   .     S
C442   C471    1.464   .     S
C443   C472    1.464   .     S
C443   C445    1.404   .     A
C443   C125    1.404   1_655 S
C444   C500    1.404   .     A
C444   C469    1.465   .     S
C444   C1184   1.404   1_545 S
C445   H571    1.084   .     S
C446   C470    1.465   .     S
C446   C467    1.404   .     A
C446   C1239   1.404   1_545 S
C447   C522    1.404   .     A
C447   C475    1.464   .     S
C448   C476    1.464   .     S
C449   C109    1.465   1_655 S
C450   C474    1.465   .     S
C451   H533    1.084   .     S
C451   C457    1.395   .     A
C451   C530    1.402   .     A
C452   C455    1.395   .     A
C452   C531    1.402   .     A
C452   H573    1.084   .     S
C453   C459    1.395   .     A
C453   C532    1.402   .     A
C453   H584    1.084   .     S
C454   C458    1.395   .     A
C454   H595    1.084   .     S
C455   H606    1.084   .     S
C456   H572    1.084   .     S
C456   C1172   1.404   .     S
C457   H617    1.084   .     S
C458   H628    1.084   .     S
C459   H639    1.084   .     S
C460   H650    1.084   .     S
C460   C465    1.395   1_556 S
C461   H534    1.084   .     S
C461   C464    1.395   1_554 S
C462   H545    1.084   .     S
C462   C468    1.395   1_556 S
C463   H556    1.084   .     S
C463   C466    1.395   1_554 S
C464   H566    1.084   .     S
C464   C461    1.395   1_556 S
C465   H567    1.084   .     S
C465   C460    1.395   1_554 S
C466   H568    1.084   .     S
C466   C463    1.395   1_556 S
C467   H574    1.084   .     S
C468   H569    1.084   .     S
C468   C462    1.395   1_554 S
C469   O712    1.281   .     A
C469   O1433   1.281   1_545 S
C470   O709    1.281   .     A
C470   O1390   1.281   1_545 S
C471   O710    1.279   .     A
C472   O711    1.279   .     A
C472   O300    1.279   1_655 S
C473   O665    1.281   .     S
C473   O669    1.281   .     S
C474   O670    1.281   .     A
C474   O666    1.281   .     A
C475   O671    1.279   .     A
C475   O667    1.279   .     A
C476   O668    1.279   .     A
C476   O673    1.279   .     A
C477   O674    1.277   .     A
C477   O702    1.277   .     A
C478   H575    1.084   .     S
C478   C530    1.395   .     A
C478   C78     1.404   1_655 S
C479   O675    1.278   .     A
C479   O703    1.276   .     A
C480   O700    1.277   .     A
C480   O676    1.279   .     A
C481   O701    1.277   .     A
C481   O677    1.279   .     A
C482   O678    1.277   .     A
C482   O707    1.279   .     A
C483   O708    1.279   .     A
C483   O679    1.277   .     A
C484   O680    1.276   .     A
C484   O704    1.278   .     A
C485   O681    1.277   .     A
C485   O706    1.277   .     A
C486   O693    1.279   .     A
C486   O682    1.277   .     A
C487   O695    1.279   .     A
C487   O684    1.277   .     A
C488   O685    1.276   .     A
C488   O691    1.278   .     A
C489   H576    1.084   .     S
C489   C531    1.395   .     A
C490   O686    1.277   .     A
C490   O692    1.277   .     A
C491   O687    1.277   .     A
C491   O698    1.277   .     A
C492   O699    1.276   .     A
C492   O688    1.278   .     A
C493   O696    1.277   .     A
C493   O689    1.279   .     A
C494   O697    1.277   .     A
C494   O690    1.279   .     A
C495   C512    1.409   .     A
C496   C510    1.410   .     A
C497   C509    1.410   .     A
C498   C508    1.409   .     A
C499   C507    1.410   .     A
C500   H577    1.084   .     S
C500   C532    1.395   .     A
C501   C506    1.410   .     A
C502   C505    1.410   .     A
C503   C504    1.410   .     A
C511   H578    1.084   .     S
C511   C1174   1.404   .     S
C513   C529    1.410   .     A
C514   C528    1.409   .     A
C515   C527    1.409   .     A
C516   C526    1.410   .     A
C517   C525    1.410   .     A
C518   C524    1.410   .     A
C519   C523    1.410   .     A
C520   C521    1.410   .     A
C522   H579    1.084   .     S
C530   C34     1.411   1_655 S
O661   Zn716   1.947   .     S
O661   Zn724   1.946   .     S
O661   Zn713   1.942   .     S
O661   Zn1448  1.947   1_545 S
O662   Zn715   1.952   .     S
O662   C1198   1.281   .     S
O663   Zn718   1.951   .     S
O663   C107    1.279   1_655 S
O664   Zn717   1.951   .     S
O665   Zn727   1.952   .     S
O666   Zn726   1.952   .     S
O667   Zn721   1.952   .     S
O668   Zn713   1.952   .     S
O669   Zn723   1.952   .     S
O670   Zn722   1.952   .     S
O671   Zn725   1.951   .     S
O672   Zn1443  1.947   1_545 S
O672   Zn721   1.942   .     S
O672   Zn725   1.946   .     S
O672   Zn719   1.947   .     S
O673   Zn724   1.951   .     S
O674   Zn716   1.930   .     S
O675   Zn715   1.930   .     S
O676   Zn718   1.931   .     S
O677   Zn717   1.931   .     S
O678   Zn720   1.931   .     S
O679   Zn719   1.931   .     S
O680   Zn714   1.932   .     S
O681   Zn728   1.932   .     S
O682   Zn715   1.931   .     S
O683   Zn714   1.942   .     S
O683   Zn722   1.947   .     S
O683   Zn726   1.947   .     S
O684   Zn716   1.931   .     S
O685   Zn728   1.932   .     S
O686   Zn714   1.932   .     S
O687   Zn719   1.930   .     S
O688   Zn720   1.930   .     S
O689   Zn717   1.931   .     S
O690   Zn718   1.931   .     S
O691   Zn359   1.930   1_655 S
O692   Zn722   1.930   .     S
O693   Zn1453  1.931   .     S
O694   Zn723   1.947   .     S
O694   Zn727   1.947   .     S
O694   Zn717   1.946   .     S
O695   Zn724   1.931   .     S
O696   Zn727   1.931   .     S
O697   Zn362   1.931   1_655 S
O698   Zn721   1.932   .     S
O699   Zn1441  1.932   .     S
O700   Zn358   1.931   1_655 S
O701   Zn723   1.931   .     S
O702   Zn713   1.932   .     S
O703   Zn1449  1.932   .     S
O704   Zn726   1.930   .     S
O705   Zn720   1.952   .     S
O705   C1197   1.281   .     S
O706   Zn363   1.930   1_655 S
O707   Zn1452  1.931   .     S
O708   Zn725   1.931   .     S
O709   Zn719   1.952   .     S
O710   Zn714   1.952   .     S
O711   Zn728   1.952   .     S
O712   Zn716   1.952   .     S
Zn713  O1427   1.932   1_545 S
Zn715  O1400   1.947   .     S
Zn718  O319    1.946   1_655 S
Zn720  O1389   1.947   .     S
Zn721  O1431   1.932   1_545 S
Zn724  O1435   1.931   1_545 S
Zn725  O1421   1.931   1_545 S
Zn728  O330    1.942   1_655 S
C729   H934    1.084   .     S
C729   C806    1.404   .     A
C729   C732    1.395   .     A
C730   H944    1.084   .     S
C730   C742    1.395   .     A
C730   C812    1.404   .     A
C731   C875    1.395   .     A
C731   C818    1.402   .     A
C731   C38     1.411   1_565 S
C732   C819    1.402   .     A
C732   C762    1.411   .     A
C733   C764    1.411   .     A
C733   C809    1.395   .     A
C733   C821    1.402   .     A
C734   C822    1.402   .     A
C734   C820    1.395   .     A
C734   C37     1.411   1_565 S
C735   C831    1.395   .     A
C735   C823    1.402   .     A
C735   C766    1.411   .     A
C736   C763    1.395   .     A
C736   C824    1.402   .     A
C736   C767    1.411   .     A
C737   C774    1.395   .     A
C737   C768    1.411   .     A
C737   C825    1.402   .     A
C738   C769    1.411   .     A
C738   C826    1.402   .     A
C738   C1149   1.395   1_455 A
C739   C827    1.402   .     A
C739   C796    1.395   .     A
C739   C770    1.411   .     A
C740   C886    1.395   .     A
C740   C767    1.411   .     A
C740   C828    1.402   .     A
C741   C813    1.404   .     A
C741   C1107   1.395   .     A
C741   H945    1.084   .     S
C742   C829    1.402   .     A
C742   C768    1.411   .     A
C743   C1105   1.395   1_455 A
C743   C769    1.411   .     A
C743   C830    1.402   .     A
C744   C832    1.402   .     A
C744   C752    1.395   .     A
C744   C770    1.411   .     A
C745   C876    1.414   .     A
C745   C848    1.453   .     S
C745   C878    1.414   .     A
C746   C849    1.453   .     S
C746   C877    1.413   .     A
C746   C874    1.414   .     A
C747   C841    1.453   .     S
C747   C873    1.413   .     A
C747   C880    1.414   .     A
C748   C872    1.414   .     A
C748   C879    1.414   .     A
C748   C843    1.453   .     S
C749   C844    1.453   .     S
C749   C871    1.414   .     A
C749   C882    1.415   .     A
C750   C870    1.414   .     A
C750   C881    1.415   .     A
C750   C845    1.453   .     S
C751   C846    1.453   .     S
C751   C884    1.414   .     A
C751   C869    1.415   .     A
C752   H946    1.084   .     S
C752   C814    1.404   .     A
C753   C847    1.453   .     S
C753   C868    1.415   .     A
C753   C883    1.414   .     A
C754   C867    1.414   .     A
C754   C887    1.415   .     A
C754   C857    1.453   .     S
C755   C866    1.414   .     A
C755   C885    1.415   .     A
C755   C858    1.453   .     S
C756   C865    1.415   .     A
C756   C850    1.453   .     S
C756   C889    1.414   .     A
C757   C863    1.415   .     A
C757   C888    1.414   .     A
C757   C851    1.453   .     S
C758   C862    1.414   .     A
C758   C891    1.414   .     A
C758   C852    1.453   .     S
C759   C890    1.413   .     A
C759   C861    1.414   .     A
C759   C854    1.453   .     S
C760   C855    1.453   .     S
C760   C893    1.414   .     A
C760   C860    1.413   .     A
C761   C892    1.414   .     A
C761   C859    1.414   .     A
C761   C856    1.453   .     S
C762   C1128   1.404   1_455 S
C762   C1258   1.411   1_455 S
C763   H947    1.084   .     S
C763   C811    1.404   .     A
C764   C1126   1.404   .     S
C764   C1259   1.411   .     S
C765   C896    1.411   .     A
C765   C766    1.404   .     A
C767   C768    1.404   1_556 S
C768   C767    1.404   1_554 S
C769   C770    1.404   1_556 S
C770   C769    1.404   1_554 S
C771   C859    1.521   .     S
C771   H954    1.111   .     S
C771   H952    1.108   .     S
C771   H953    1.105   .     S
C772   C860    1.521   .     S
C772   H955    1.108   .     S
C772   H957    1.105   .     S
C772   H956    1.111   .     S
C773   C861    1.521   .     S
C773   H958    1.107   .     S
C773   H961    1.110   .     S
C773   H960    1.110   .     S
C774   C812    1.404   .     A
C774   H949    1.084   .     S
C775   H963    1.110   .     S
C775   C862    1.521   .     S
C775   H964    1.110   .     S
C775   H962    1.106   .     S
C776   C863    1.521   .     S
C776   H967    1.110   .     S
C776   H966    1.110   .     S
C776   H965    1.106   .     S
C777   H969    1.110   .     S
C777   C865    1.521   .     S
C777   H971    1.110   .     S
C777   H968    1.106   .     S
C778   C866    1.523   .     S
C778   H974    1.111   .     S
C778   H972    1.110   .     S
C778   H973    1.105   .     S
C779   C867    1.523   .     S
C779   H976    1.111   .     S
C779   H975    1.110   .     S
C779   H977    1.105   .     S
C780   H978    1.106   .     S
C780   H980    1.110   .     S
C780   C868    1.521   .     S
C780   H979    1.110   .     S
C781   H982    1.106   .     S
C781   H984    1.110   .     S
C781   C869    1.521   .     S
C781   H983    1.110   .     S
C782   H986    1.105   .     S
C782   H987    1.111   .     S
C782   C870    1.523   .     S
C782   H985    1.109   .     S
C783   H988    1.110   .     S
C783   C871    1.523   .     S
C783   H990    1.105   .     S
C783   H989    1.111   .     S
C784   H994    1.111   .     S
C784   H991    1.108   .     S
C784   C872    1.521   .     S
C784   H993    1.105   .     S
C785   C813    1.404   .     A
C785   H950    1.084   .     S
C785   C1102   1.395   .     A
C786   H996    1.111   .     S
C786   C873    1.521   .     S
C786   H997    1.105   .     S
C786   H995    1.108   .     S
C787   H1000   1.110   .     S
C787   H998    1.107   .     S
C787   H999    1.110   .     S
C787   C874    1.521   .     S
C788   H1001   1.106   .     S
C788   C876    1.521   .     S
C788   H1002   1.110   .     S
C788   H1004   1.110   .     S
C789   H1006   1.105   .     S
C789   H1005   1.108   .     S
C789   H1007   1.111   .     S
C789   C877    1.521   .     S
C790   C878    1.521   .     S
C790   H1009   1.111   .     S
C790   H1010   1.105   .     S
C790   H1008   1.108   .     S
C791   H1012   1.110   .     S
C791   H1013   1.110   .     S
C791   C879    1.521   .     S
C791   H1011   1.106   .     S
C792   C880    1.521   .     S
C792   H1016   1.110   .     S
C792   H1015   1.107   .     S
C792   H1017   1.110   .     S
C793   H1018   1.106   .     S
C793   C881    1.521   .     S
C793   H1020   1.110   .     S
C793   H1019   1.110   .     S
C794   H1022   1.110   .     S
C794   C882    1.521   .     S
C794   H1023   1.110   .     S
C794   H1021   1.106   .     S
C795   H1024   1.110   .     S
C795   H900    1.111   .     S
C795   C883    1.523   .     S
C795   H899    1.105   .     S
C796   C814    1.404   .     A
C796   H951    1.084   .     S
C797   H901    1.110   .     S
C797   C884    1.523   .     S
C797   H903    1.105   .     S
C797   H902    1.111   .     S
C798   C885    1.521   .     S
C798   H905    1.110   .     S
C798   H904    1.106   .     S
C798   H906    1.110   .     S
C799   H908    1.110   .     S
C799   C887    1.521   .     S
C799   H907    1.106   .     S
C799   H910    1.110   .     S
C800   H912    1.105   .     S
C800   H913    1.111   .     S
C800   H911    1.110   .     S
C800   C888    1.523   .     S
C801   H914    1.110   .     S
C801   C889    1.523   .     S
C801   H916    1.105   .     S
C801   H915    1.111   .     S
C802   H918    1.105   .     S
C802   C890    1.521   .     S
C802   H919    1.111   .     S
C802   H917    1.108   .     S
C803   H921    1.108   .     S
C803   H922    1.111   .     S
C803   H923    1.105   .     S
C803   C891    1.521   .     S
C804   H925    1.110   .     S
C804   H924    1.106   .     S
C804   H926    1.110   .     S
C804   C892    1.521   .     S
C805   C893    1.521   .     S
C805   H929    1.110   .     S
C805   H928    1.110   .     S
C805   H927    1.107   .     S
C806   C835    1.464   .     S
C806   C1206   1.404   1_455 S
C807   C836    1.464   .     S
C807   C809    1.404   .     A
C807   C1217   1.404   .     S
C808   C864    1.404   .     A
C808   C833    1.465   .     S
C809   H935    1.084   .     S
C810   C834    1.465   .     S
C810   C831    1.404   .     A
C811   C886    1.404   .     A
C811   C839    1.464   .     S
C812   C840    1.464   .     S
C813   C1201   1.465   .     S
C814   C838    1.465   .     S
C815   H897    1.084   .     S
C815   C821    1.395   .     A
C815   C894    1.402   .     A
C816   C819    1.395   .     A
C816   C895    1.402   .     A
C816   H937    1.084   .     S
C817   C823    1.395   .     A
C817   C896    1.402   .     A
C817   H948    1.084   .     S
C818   C822    1.395   .     A
C818   H959    1.084   .     S
C819   H970    1.084   .     S
C820   H936    1.084   .     S
C820   C80     1.404   1_565 S
C821   H981    1.084   .     S
C822   H992    1.084   .     S
C823   H1003   1.084   .     S
C824   H1014   1.084   .     S
C824   C829    1.395   1_556 S
C825   H898    1.084   .     S
C825   C828    1.395   1_554 S
C826   H909    1.084   .     S
C826   C832    1.395   1_556 S
C827   H920    1.084   .     S
C827   C830    1.395   1_554 S
C828   H930    1.084   .     S
C828   C825    1.395   1_556 S
C829   H931    1.084   .     S
C829   C824    1.395   1_554 S
C830   H932    1.084   .     S
C830   C827    1.395   1_556 S
C831   H938    1.084   .     S
C832   H933    1.084   .     S
C832   C826    1.395   1_554 S
C833   O1076   1.281   .     A
C834   O1073   1.281   .     A
C835   O1074   1.279   .     A
C835   O1391   1.279   1_455 S
C836   O1075   1.279   .     A
C836   O1392   1.279   .     S
C837   C1177   1.465   1_455 S
C837   O1029   1.281   .     S
C837   O1033   1.281   .     S
C838   O1034   1.281   .     A
C838   O1030   1.281   .     A
C839   O1035   1.279   .     A
C839   O1031   1.279   .     A
C840   O1032   1.279   .     A
C840   O1037   1.279   .     A
C841   O1038   1.277   .     A
C841   O1066   1.277   .     A
C842   H939    1.084   .     S
C842   C894    1.395   .     A
C842   C1170   1.404   .     S
C843   O1039   1.278   .     A
C843   O1067   1.276   .     A
C844   O1064   1.277   .     A
C844   O1040   1.279   .     A
C845   O1065   1.277   .     A
C845   O1041   1.279   .     A
C846   O1042   1.277   .     A
C846   O1071   1.279   .     A
C847   O1072   1.279   .     A
C847   O1043   1.277   .     A
C848   O1044   1.276   .     A
C848   O1068   1.278   .     A
C849   O1045   1.277   .     A
C849   O1070   1.277   .     A
C850   O1057   1.279   .     A
C850   O1046   1.277   .     A
C851   O1059   1.279   .     A
C851   O1048   1.277   .     A
C852   O1049   1.276   .     A
C852   O1055   1.278   .     A
C853   H940    1.084   .     S
C853   C895    1.395   .     A
C853   C1171   1.404   1_455 S
C854   O1050   1.277   .     A
C854   O1056   1.277   .     A
C855   O1051   1.277   .     A
C855   O1062   1.277   .     A
C856   O1063   1.276   .     A
C856   O1052   1.278   .     A
C857   O1060   1.277   .     A
C857   O1053   1.279   .     A
C858   O1061   1.277   .     A
C858   O1054   1.279   .     A
C859   C876    1.409   .     A
C860   C874    1.410   .     A
C861   C873    1.410   .     A
C862   C872    1.409   .     A
C863   C871    1.410   .     A
C864   H941    1.084   .     S
C864   C896    1.395   .     A
C865   C870    1.410   .     A
C866   C869    1.410   .     A
C867   C868    1.410   .     A
C875   H942    1.084   .     S
C875   C82     1.404   1_565 S
C877   C893    1.410   .     A
C878   C892    1.409   .     A
C879   C891    1.409   .     A
C880   C890    1.410   .     A
C881   C889    1.410   .     A
C882   C888    1.410   .     A
C883   C887    1.410   .     A
C884   C885    1.410   .     A
C886   H943    1.084   .     S
C894   C1126   1.411   .     S
C895   C1128   1.411   1_455 S
O1025  Zn1080  1.947   .     S
O1025  Zn1088  1.946   .     S
O1025  Zn1077  1.942   .     S
O1026  Zn1079  1.952   .     S
O1026  C106    1.281   1_565 S
O1027  Zn1082  1.951   .     S
O1027  C1199   1.279   .     S
O1028  Zn1081  1.951   .     S
O1028  C1200   1.279   1_455 S
O1029  Zn1091  1.952   .     S
O1030  Zn1090  1.952   .     S
O1031  Zn1085  1.952   .     S
O1032  Zn1077  1.952   .     S
O1033  Zn1087  1.952   .     S
O1034  Zn1086  1.952   .     S
O1035  Zn1089  1.951   .     S
O1036  Zn1085  1.942   .     S
O1036  Zn1089  1.946   .     S
O1036  Zn1083  1.947   .     S
O1037  Zn1088  1.951   .     S
O1038  Zn1080  1.930   .     S
O1039  Zn1079  1.930   .     S
O1040  Zn1082  1.931   .     S
O1041  Zn1081  1.931   .     S
O1042  Zn1084  1.931   .     S
O1043  Zn1083  1.931   .     S
O1044  Zn1078  1.932   .     S
O1045  Zn1092  1.932   .     S
O1046  Zn1079  1.931   .     S
O1047  Zn1078  1.942   .     S
O1047  Zn1086  1.947   .     S
O1047  Zn1090  1.947   .     S
O1047  Zn1446  1.946   1_455 S
O1048  Zn1080  1.931   .     S
O1049  Zn1092  1.932   .     S
O1050  Zn1078  1.932   .     S
O1051  Zn1083  1.930   .     S
O1052  Zn1084  1.930   .     S
O1053  Zn1081  1.931   .     S
O1054  Zn1082  1.931   .     S
O1055  Zn1451  1.930   .     S
O1056  Zn1086  1.930   .     S
O1057  Zn361   1.931   1_565 S
O1058  Zn1087  1.947   .     S
O1058  Zn1091  1.947   .     S
O1058  Zn1081  1.946   .     S
O1058  Zn1456  1.942   1_455 S
O1059  Zn1088  1.931   .     S
O1060  Zn1091  1.931   .     S
O1061  Zn1454  1.931   .     S
O1062  Zn1085  1.932   .     S
O1063  Zn349   1.932   1_565 S
O1064  Zn1450  1.931   .     S
O1065  Zn1087  1.931   .     S
O1066  Zn1077  1.932   .     S
O1067  Zn357   1.932   1_565 S
O1068  Zn1090  1.930   .     S
O1069  Zn1084  1.952   .     S
O1069  C105    1.281   1_565 S
O1070  Zn1455  1.930   .     S
O1071  Zn360   1.931   1_565 S
O1072  Zn1089  1.931   .     S
O1073  Zn1083  1.952   .     S
O1074  Zn1078  1.952   .     S
O1075  Zn1092  1.952   .     S
O1076  Zn1080  1.952   .     S
Zn1079 O308    1.947   1_565 S
Zn1082 O1411   1.946   .     S
Zn1084 O297    1.947   1_565 S
Zn1086 O1428   1.931   1_455 S
Zn1087 O1419   1.930   1_455 S
Zn1090 O1425   1.931   1_455 S
Zn1091 O1434   1.930   1_455 S
Zn1092 O1422   1.942   .     S
C1093  H1298   1.084   .     S
C1093  C1170   1.404   .     A
C1093  C1096   1.395   .     A
C1094  H1308   1.084   .     S
C1094  C1106   1.395   .     A
C1094  C1176   1.404   .     A
C1095  C1239   1.395   .     A
C1095  C1182   1.402   .     A
C1095  C402    1.411   1_565 S
C1096  C1183   1.402   .     A
C1096  C1126   1.411   .     A
C1097  C1128   1.411   .     A
C1097  C1173   1.395   .     A
C1097  C1185   1.402   .     A
C1098  C1186   1.402   .     A
C1098  C1184   1.395   .     A
C1098  C401    1.411   1_565 S
C1099  C1195   1.395   .     A
C1099  C1187   1.402   .     A
C1099  C1130   1.411   .     A
C1100  C1127   1.395   .     A
C1100  C1188   1.402   .     A
C1100  C1131   1.411   .     A
C1101  C1138   1.395   .     A
C1101  C1132   1.411   .     A
C1101  C1189   1.402   .     A
C1102  C1133   1.411   .     A
C1102  C1190   1.402   .     A
C1103  C1191   1.402   .     A
C1103  C1160   1.395   .     A
C1103  C1134   1.411   .     A
C1104  C1250   1.395   .     A
C1104  C1131   1.411   .     A
C1104  C1192   1.402   .     A
C1105  C1177   1.404   .     A
C1105  C743    1.395   1_655 A
C1105  H1309   1.084   .     S
C1106  C1193   1.402   .     A
C1106  C1132   1.411   .     A
C1107  C1133   1.411   .     A
C1107  C1194   1.402   .     A
C1108  C1196   1.402   .     A
C1108  C1116   1.395   .     A
C1108  C1134   1.411   .     A
C1109  C1240   1.414   .     A
C1109  C1212   1.453   .     S
C1109  C1242   1.414   .     A
C1110  C1213   1.453   .     S
C1110  C1241   1.413   .     A
C1110  C1238   1.414   .     A
C1111  C1205   1.453   .     S
C1111  C1237   1.413   .     A
C1111  C1244   1.414   .     A
C1112  C1236   1.414   .     A
C1112  C1243   1.414   .     A
C1112  C1207   1.453   .     S
C1113  C1208   1.453   .     S
C1113  C1235   1.414   .     A
C1113  C1246   1.415   .     A
C1114  C1234   1.414   .     A
C1114  C1245   1.415   .     A
C1114  C1209   1.453   .     S
C1115  C1210   1.453   .     S
C1115  C1248   1.414   .     A
C1115  C1233   1.415   .     A
C1116  H1310   1.084   .     S
C1116  C1178   1.404   .     A
C1117  C1211   1.453   .     S
C1117  C1232   1.415   .     A
C1117  C1247   1.414   .     A
C1118  C1231   1.414   .     A
C1118  C1251   1.415   .     A
C1118  C1221   1.453   .     S
C1119  C1230   1.414   .     A
C1119  C1249   1.415   .     A
C1119  C1222   1.453   .     S
C1120  C1229   1.415   .     A
C1120  C1214   1.453   .     S
C1120  C1253   1.414   .     A
C1121  C1227   1.415   .     A
C1121  C1252   1.414   .     A
C1121  C1215   1.453   .     S
C1122  C1226   1.414   .     A
C1122  C1255   1.414   .     A
C1122  C1216   1.453   .     S
C1123  C1254   1.413   .     A
C1123  C1225   1.414   .     A
C1123  C1218   1.453   .     S
C1124  C1219   1.453   .     S
C1124  C1257   1.414   .     A
C1124  C1224   1.413   .     A
C1125  C1256   1.414   .     A
C1125  C1223   1.414   .     A
C1125  C1220   1.453   .     S
C1127  H1311   1.084   .     S
C1127  C1175   1.404   .     A
C1128  C762    1.404   1_655 S
C1128  C895    1.411   1_655 S
C1129  C1260   1.411   .     A
C1129  C1130   1.404   .     A
C1131  C1132   1.404   1_556 S
C1132  C1131   1.404   1_554 S
C1133  C1134   1.404   1_556 S
C1134  C1133   1.404   1_554 S
C1135  C1223   1.521   .     S
C1135  H1318   1.111   .     S
C1135  H1316   1.108   .     S
C1135  H1317   1.105   .     S
C1136  C1224   1.521   .     S
C1136  H1319   1.108   .     S
C1136  H1321   1.105   .     S
C1136  H1320   1.111   .     S
C1137  C1225   1.521   .     S
C1137  H1322   1.107   .     S
C1137  H1325   1.110   .     S
C1137  H1324   1.110   .     S
C1138  C1176   1.404   .     A
C1138  H1313   1.084   .     S
C1139  H1327   1.110   .     S
C1139  C1226   1.521   .     S
C1139  H1328   1.110   .     S
C1139  H1326   1.106   .     S
C1140  C1227   1.521   .     S
C1140  H1331   1.110   .     S
C1140  H1330   1.110   .     S
C1140  H1329   1.106   .     S
C1141  H1333   1.110   .     S
C1141  C1229   1.521   .     S
C1141  H1335   1.110   .     S
C1141  H1332   1.106   .     S
C1142  C1230   1.523   .     S
C1142  H1338   1.111   .     S
C1142  H1336   1.110   .     S
C1142  H1337   1.105   .     S
C1143  C1231   1.523   .     S
C1143  H1340   1.111   .     S
C1143  H1339   1.110   .     S
C1143  H1341   1.105   .     S
C1144  H1342   1.106   .     S
C1144  H1344   1.110   .     S
C1144  C1232   1.521   .     S
C1144  H1343   1.110   .     S
C1145  H1346   1.106   .     S
C1145  H1348   1.110   .     S
C1145  C1233   1.521   .     S
C1145  H1347   1.110   .     S
C1146  H1350   1.105   .     S
C1146  H1351   1.111   .     S
C1146  C1234   1.523   .     S
C1146  H1349   1.109   .     S
C1147  H1352   1.110   .     S
C1147  C1235   1.523   .     S
C1147  H1354   1.105   .     S
C1147  H1353   1.111   .     S
C1148  H1358   1.111   .     S
C1148  H1355   1.108   .     S
C1148  C1236   1.521   .     S
C1148  H1357   1.105   .     S
C1149  C1177   1.404   .     A
C1149  H1314   1.084   .     S
C1149  C738    1.395   1_655 A
C1150  H1360   1.111   .     S
C1150  C1237   1.521   .     S
C1150  H1361   1.105   .     S
C1150  H1359   1.108   .     S
C1151  H1364   1.110   .     S
C1151  H1362   1.107   .     S
C1151  H1363   1.110   .     S
C1151  C1238   1.521   .     S
C1152  H1365   1.106   .     S
C1152  C1240   1.521   .     S
C1152  H1366   1.110   .     S
C1152  H1368   1.110   .     S
C1153  H1370   1.105   .     S
C1153  H1369   1.108   .     S
C1153  H1371   1.111   .     S
C1153  C1241   1.521   .     S
C1154  C1242   1.521   .     S
C1154  H1373   1.111   .     S
C1154  H1374   1.105   .     S
C1154  H1372   1.108   .     S
C1155  H1376   1.110   .     S
C1155  H1377   1.110   .     S
C1155  C1243   1.521   .     S
C1155  H1375   1.106   .     S
C1156  C1244   1.521   .     S
C1156  H1380   1.110   .     S
C1156  H1379   1.107   .     S
C1156  H1381   1.110   .     S
C1157  H1382   1.106   .     S
C1157  C1245   1.521   .     S
C1157  H1384   1.110   .     S
C1157  H1383   1.110   .     S
C1158  H1386   1.110   .     S
C1158  C1246   1.521   .     S
C1158  H1387   1.110   .     S
C1158  H1385   1.106   .     S
C1159  H1388   1.110   .     S
C1159  H1264   1.111   .     S
C1159  C1247   1.523   .     S
C1159  H1263   1.105   .     S
C1160  C1178   1.404   .     A
C1160  H1315   1.084   .     S
C1161  H1265   1.110   .     S
C1161  C1248   1.523   .     S
C1161  H1267   1.105   .     S
C1161  H1266   1.111   .     S
C1162  C1249   1.521   .     S
C1162  H1269   1.110   .     S
C1162  H1268   1.106   .     S
C1162  H1270   1.110   .     S
C1163  H1272   1.110   .     S
C1163  C1251   1.521   .     S
C1163  H1271   1.106   .     S
C1163  H1274   1.110   .     S
C1164  H1276   1.105   .     S
C1164  H1277   1.111   .     S
C1164  H1275   1.110   .     S
C1164  C1252   1.523   .     S
C1165  H1278   1.110   .     S
C1165  C1253   1.523   .     S
C1165  H1280   1.105   .     S
C1165  H1279   1.111   .     S
C1166  H1282   1.105   .     S
C1166  C1254   1.521   .     S
C1166  H1283   1.111   .     S
C1166  H1281   1.108   .     S
C1167  H1285   1.108   .     S
C1167  H1286   1.111   .     S
C1167  H1287   1.105   .     S
C1167  C1255   1.521   .     S
C1168  H1289   1.110   .     S
C1168  H1288   1.106   .     S
C1168  H1290   1.110   .     S
C1168  C1256   1.521   .     S
C1169  C1257   1.521   .     S
C1169  H1293   1.110   .     S
C1169  H1292   1.110   .     S
C1169  H1291   1.107   .     S
C1170  C1199   1.464   .     S
C1171  C1200   1.464   .     S
C1171  C1173   1.404   .     A
C1171  C853    1.404   1_655 S
C1172  C1228   1.404   .     A
C1172  C1197   1.465   .     S
C1173  H1299   1.084   .     S
C1174  C1198   1.465   .     S
C1174  C1195   1.404   .     A
C1175  C1250   1.404   .     A
C1175  C1203   1.464   .     S
C1176  C1204   1.464   .     S
C1177  C837    1.465   1_655 S
C1178  C1202   1.465   .     S
C1179  H1261   1.084   .     S
C1179  C1185   1.395   .     A
C1179  C1258   1.402   .     A
C1180  C1183   1.395   .     A
C1180  C1259   1.402   .     A
C1180  H1301   1.084   .     S
C1181  C1187   1.395   .     A
C1181  C1260   1.402   .     A
C1181  H1312   1.084   .     S
C1182  C1186   1.395   .     A
C1182  H1323   1.084   .     S
C1183  H1334   1.084   .     S
C1184  H1300   1.084   .     S
C1184  C444    1.404   1_565 S
C1185  H1345   1.084   .     S
C1186  H1356   1.084   .     S
C1187  H1367   1.084   .     S
C1188  H1378   1.084   .     S
C1188  C1193   1.395   1_556 S
C1189  H1262   1.084   .     S
C1189  C1192   1.395   1_554 S
C1190  H1273   1.084   .     S
C1190  C1196   1.395   1_556 S
C1191  H1284   1.084   .     S
C1191  C1194   1.395   1_554 S
C1192  H1294   1.084   .     S
C1192  C1189   1.395   1_556 S
C1193  H1295   1.084   .     S
C1193  C1188   1.395   1_554 S
C1194  H1296   1.084   .     S
C1194  C1191   1.395   1_556 S
C1195  H1302   1.084   .     S
C1196  H1297   1.084   .     S
C1196  C1190   1.395   1_554 S
C1197  O1440   1.281   .     A
C1198  O1437   1.281   .     A
C1199  O1438   1.279   .     A
C1200  O1439   1.279   .     A
C1200  O1028   1.279   1_655 S
C1201  O1393   1.281   .     S
C1201  O1397   1.281   .     S
C1202  O1398   1.281   .     A
C1202  O1394   1.281   .     A
C1203  O1399   1.279   .     A
C1203  O1395   1.279   .     A
C1204  O1396   1.279   .     A
C1204  O1401   1.279   .     A
C1205  O1402   1.277   .     A
C1205  O1430   1.277   .     A
C1206  H1303   1.084   .     S
C1206  C1258   1.395   .     A
C1206  C806    1.404   1_655 S
C1207  O1403   1.278   .     A
C1207  O1431   1.276   .     A
C1208  O1428   1.277   .     A
C1208  O1404   1.279   .     A
C1209  O1429   1.277   .     A
C1209  O1405   1.279   .     A
C1210  O1406   1.277   .     A
C1210  O1435   1.279   .     A
C1211  O1436   1.279   .     A
C1211  O1407   1.277   .     A
C1212  O1408   1.276   .     A
C1212  O1432   1.278   .     A
C1213  O1409   1.277   .     A
C1213  O1434   1.277   .     A
C1214  O1421   1.279   .     A
C1214  O1410   1.277   .     A
C1215  O1423   1.279   .     A
C1215  O1412   1.277   .     A
C1216  O1413   1.276   .     A
C1216  O1419   1.278   .     A
C1217  H1304   1.084   .     S
C1217  C1259   1.395   .     A
C1218  O1414   1.277   .     A
C1218  O1420   1.277   .     A
C1219  O1415   1.277   .     A
C1219  O1426   1.277   .     A
C1220  O1427   1.276   .     A
C1220  O1416   1.278   .     A
C1221  O1424   1.277   .     A
C1221  O1417   1.279   .     A
C1222  O1425   1.277   .     A
C1222  O1418   1.279   .     A
C1223  C1240   1.409   .     A
C1224  C1238   1.410   .     A
C1225  C1237   1.410   .     A
C1226  C1236   1.409   .     A
C1227  C1235   1.410   .     A
C1228  H1305   1.084   .     S
C1228  C1260   1.395   .     A
C1229  C1234   1.410   .     A
C1230  C1233   1.410   .     A
C1231  C1232   1.410   .     A
C1239  H1306   1.084   .     S
C1239  C446    1.404   1_565 S
C1241  C1257   1.410   .     A
C1242  C1256   1.409   .     A
C1243  C1255   1.409   .     A
C1244  C1254   1.410   .     A
C1245  C1253   1.410   .     A
C1246  C1252   1.410   .     A
C1247  C1251   1.410   .     A
C1248  C1249   1.410   .     A
C1250  H1307   1.084   .     S
C1258  C762    1.411   1_655 S
O1389  Zn1444  1.947   .     S
O1389  Zn1452  1.946   .     S
O1389  Zn1441  1.942   .     S
O1390  Zn1443  1.952   .     S
O1390  C470    1.281   1_565 S
O1391  Zn1446  1.951   .     S
O1391  C835    1.279   1_655 S
O1392  Zn1445  1.951   .     S
O1393  Zn1455  1.952   .     S
O1394  Zn1454  1.952   .     S
O1395  Zn1449  1.952   .     S
O1396  Zn1441  1.952   .     S
O1397  Zn1451  1.952   .     S
O1398  Zn1450  1.952   .     S
O1399  Zn1453  1.951   .     S
O1400  Zn1449  1.942   .     S
O1400  Zn1453  1.946   .     S
O1400  Zn1447  1.947   .     S
O1401  Zn1452  1.951   .     S
O1402  Zn1444  1.930   .     S
O1403  Zn1443  1.930   .     S
O1404  Zn1446  1.931   .     S
O1405  Zn1445  1.931   .     S
O1406  Zn1448  1.931   .     S
O1407  Zn1447  1.931   .     S
O1408  Zn1442  1.932   .     S
O1409  Zn1456  1.932   .     S
O1410  Zn1443  1.931   .     S
O1411  Zn1442  1.942   .     S
O1411  Zn1450  1.947   .     S
O1411  Zn1454  1.947   .     S
O1412  Zn1444  1.931   .     S
O1413  Zn1456  1.932   .     S
O1414  Zn1442  1.932   .     S
O1415  Zn1447  1.930   .     S
O1416  Zn1448  1.930   .     S
O1417  Zn1445  1.931   .     S
O1418  Zn1446  1.931   .     S
O1419  Zn1087  1.930   1_655 S
O1420  Zn1450  1.930   .     S
O1421  Zn725   1.931   1_565 S
O1422  Zn1451  1.947   .     S
O1422  Zn1455  1.947   .     S
O1422  Zn1445  1.946   .     S
O1423  Zn1452  1.931   .     S
O1424  Zn1455  1.931   .     S
O1425  Zn1090  1.931   1_655 S
O1426  Zn1449  1.932   .     S
O1427  Zn713   1.932   1_565 S
O1428  Zn1086  1.931   1_655 S
O1429  Zn1451  1.931   .     S
O1430  Zn1441  1.932   .     S
O1431  Zn721   1.932   1_565 S
O1432  Zn1454  1.930   .     S
O1433  Zn1448  1.952   .     S
O1433  C469    1.281   1_565 S
O1434  Zn1091  1.930   1_655 S
O1435  Zn724   1.931   1_565 S
O1436  Zn1453  1.931   .     S
O1437  Zn1447  1.952   .     S
O1438  Zn1442  1.952   .     S
O1439  Zn1456  1.952   .     S
O1440  Zn1444  1.952   .     S
Zn1443 O672    1.947   1_565 S
Zn1446 O1047   1.946   1_655 S
Zn1448 O661    1.947   1_565 S
Zn1456 O1058   1.942   1_655 S
