data_str_m2_o2_o10_pcu_sym.253
_audit_creation_date              2020-01-03
_audit_creation_method            'Materials Studio'
_symmetry_space_group_name_H-M    'P1'
_symmetry_Int_Tables_number       1
_symmetry_cell_setting            triclinic
loop_
_symmetry_equiv_pos_as_xyz
  x,y,z
_cell_length_a                    26.1356
_cell_length_b                    30.2104
_cell_length_c                    27.8138
_cell_angle_alpha                 89.6105
_cell_angle_beta                  97.7370
_cell_angle_gamma                 90.8230
loop_
_atom_site_label
_atom_site_type_symbol
_atom_site_fract_x
_atom_site_fract_y
_atom_site_fract_z
_atom_site_U_iso_or_equiv
_atom_site_adp_type
_atom_site_occupancy
C1     C     0.16665   0.16500   0.25008   0.00000  Uiso   1.00
C2     C     0.16660   0.33507   0.24984   0.00000  Uiso   1.00
C3     C     0.20396   0.27170   0.05783   0.00000  Uiso   1.00
C4     C     0.15103   0.21483   0.44584   0.00000  Uiso   1.00
C5     C     0.20483   0.27217   0.10924   0.00000  Uiso   1.00
C6     C     0.14934   0.21429   0.39499   0.00000  Uiso   1.00
C7     C     0.12624   0.23072   0.10053   0.00000  Uiso   1.00
C8     C     0.18073   0.28789   0.39594   0.00000  Uiso   1.00
C9     C     0.12153   0.23352   0.04942   0.00000  Uiso   1.00
C10    C     0.17659   0.29166   0.44602   0.00000  Uiso   1.00
C11    C     0.16209   0.25326   0.02705   0.00000  Uiso   1.00
C12    C     0.16282   0.25381   0.47242   0.00000  Uiso   1.00
C13    C     0.06795   0.24934   0.23764   0.00000  Uiso   1.00
C14    C     0.26539   0.24992   0.26240   0.00000  Uiso   1.00
C15    C     0.01270   0.24770   0.23093   0.00000  Uiso   1.00
C16    C     0.32066   0.25030   0.26927   0.00000  Uiso   1.00
C17    C     0.13580   0.04728   0.28099   0.00000  Uiso   1.00
C18    C     0.14664   0.45233   0.20545   0.00000  Uiso   1.00
C19    C     0.13882   0.09345   0.28237   0.00000  Uiso   1.00
C20    C     0.14945   0.40613   0.20591   0.00000  Uiso   1.00
C21    C     0.16583   0.11678   0.24996   0.00000  Uiso   1.00
C22    C     0.16560   0.38340   0.24930   0.00000  Uiso   1.00
C23    C     0.19105   0.09385   0.21663   0.00000  Uiso   1.00
C24    C     0.18030   0.40709   0.29218   0.00000  Uiso   1.00
C25    C     0.19018   0.04785   0.21647   0.00000  Uiso   1.00
C26    C     0.17954   0.45303   0.29159   0.00000  Uiso   1.00
C27    C     0.16284   0.02435   0.24865   0.00000  Uiso   1.00
C28    C     0.16296   0.47585   0.24841   0.00000  Uiso   1.00
Cu29   Cu    0.16667   0.24999   0.29821   0.00000  Uiso   1.00
Cu30   Cu    0.16667   0.25000   0.20178   0.00000  Uiso   1.00
H31    H     0.32615   0.24413   0.19425   0.00000  Uiso   1.00
H32    H     0.00721   0.25328   0.30605   0.00000  Uiso   1.00
H33    H     0.11887   0.11096   0.30780   0.00000  Uiso   1.00
H34    H     0.13830   0.38811   0.17251   0.00000  Uiso   1.00
H35    H     0.21223   0.11152   0.19142   0.00000  Uiso   1.00
H36    H     0.19321   0.39015   0.32599   0.00000  Uiso   1.00
H37    H     0.21116   0.03052   0.19147   0.00000  Uiso   1.00
H38    H     0.19227   0.47089   0.32480   0.00000  Uiso   1.00
H39    H     0.23472   0.28655   0.04080   0.00000  Uiso   1.00
H40    H     0.14134   0.18482   0.46425   0.00000  Uiso   1.00
H41    H     0.09592   0.21462   0.11739   0.00000  Uiso   1.00
H42    H     0.19343   0.31646   0.37700   0.00000  Uiso   1.00
N43    N     0.16667   0.25001   0.12934   0.00000  Uiso   1.00
N44    N     0.16667   0.24999   0.37065   0.00000  Uiso   1.00
O45    O     0.16667   0.18572   0.29071   0.00000  Uiso   1.00
O46    O     0.16666   0.31427   0.20928   0.00000  Uiso   1.00
O47    O     0.16667   0.18573   0.20928   0.00000  Uiso   1.00
O48    O     0.16666   0.31427   0.29072   0.00000  Uiso   1.00
O49    O     0.09161   0.24999   0.28132   0.00000  Uiso   1.00
O50    O     0.24172   0.25000   0.21868   0.00000  Uiso   1.00
O51    O     0.09161   0.25000   0.19988   0.00000  Uiso   1.00
O52    O     0.24172   0.25000   0.30011   0.00000  Uiso   1.00
O53    O     0.10791   0.02440   0.31226   0.00000  Uiso   1.00
C54    C     0.05479   0.02760   0.29478   0.00000  Uiso   1.00
H55    H     0.04643   0.01618   0.25647   0.00000  Uiso   1.00
H56    H     0.04147   0.06226   0.29718   0.00000  Uiso   1.00
C57    C     0.02410   0.49834   0.32557   0.00000  Uiso   1.00
H58    H     0.03081   0.00933   0.36396   0.00000  Uiso   1.00
H59    H     0.31557   0.00053   0.31204   0.00000  Uiso   1.00
H60    H     0.03617   0.46337   0.32355   0.00000  Uiso   1.00
O61    O     0.13008   0.47488   0.16283   0.00000  Uiso   1.00
C62    C     0.07641   0.46780   0.15031   0.00000  Uiso   1.00
H63    H     0.05505   0.47354   0.18177   0.00000  Uiso   1.00
H64    H     0.06826   0.43354   0.13665   0.00000  Uiso   1.00
C65    C     0.05626   0.00005   0.11022   0.00000  Uiso   1.00
H66    H     0.07605   0.49481   0.07784   0.00000  Uiso   1.00
H67    H     0.01408   0.49473   0.09992   0.00000  Uiso   1.00
H68    H     0.06340   0.03462   0.12301   0.00000  Uiso   1.00
O69    O     0.24012   0.29704   0.14074   0.00000  Uiso   1.00
C70    C     0.28530   0.31160   0.12213   0.00000  Uiso   1.00
H71    H     0.29991   0.28745   0.09742   0.00000  Uiso   1.00
H72    H     0.31655   0.31455   0.15322   0.00000  Uiso   1.00
C73    C     0.27813   0.35782   0.09986   0.00000  Uiso   1.00
H74    H     0.27031   0.38170   0.12809   0.00000  Uiso   1.00
H75    H     0.31387   0.36846   0.08525   0.00000  Uiso   1.00
H76    H     0.24538   0.35842   0.07011   0.00000  Uiso   1.00
O77    O     0.13003   0.17708   0.37006   0.00000  Uiso   1.00
C78    C     0.07528   0.17672   0.36495   0.00000  Uiso   1.00
H79    H     0.06049   0.17318   0.32580   0.00000  Uiso   1.00
H80    H     0.05781   0.20746   0.37745   0.00000  Uiso   1.00
C81    C     0.05599   0.13705   0.39182   0.00000  Uiso   1.00
H82    H     0.06747   0.14064   0.43148   0.00000  Uiso   1.00
H83    H     0.01321   0.13486   0.38441   0.00000  Uiso   1.00
H84    H     0.07232   0.10600   0.37960   0.00000  Uiso   1.00
C85    C     0.07167   0.21725   0.02104   0.00000  Uiso   1.00
H86    H     0.06555   0.23081   0.48361   0.00000  Uiso   1.00
H87    H     0.07127   0.18053   0.01983   0.00000  Uiso   1.00
H88    H     0.03845   0.22820   0.03886   0.00000  Uiso   1.00
C89    C     0.18461   0.33693   0.46840   0.00000  Uiso   1.00
H90    H     0.16742   0.33948   0.00258   0.00000  Uiso   1.00
H91    H     0.22652   0.34496   0.47527   0.00000  Uiso   1.00
H92    H     0.16535   0.36220   0.44325   0.00000  Uiso   1.00
C93    C     0.49998   0.16500   0.25008   0.00000  Uiso   1.00
C94    C     0.49993   0.33507   0.24984   0.00000  Uiso   1.00
C95    C     0.53729   0.27170   0.05783   0.00000  Uiso   1.00
C96    C     0.48436   0.21483   0.44584   0.00000  Uiso   1.00
C97    C     0.53816   0.27217   0.10924   0.00000  Uiso   1.00
C98    C     0.48267   0.21429   0.39499   0.00000  Uiso   1.00
C99    C     0.45958   0.23072   0.10053   0.00000  Uiso   1.00
C100   C     0.51406   0.28789   0.39594   0.00000  Uiso   1.00
C101   C     0.45486   0.23352   0.04942   0.00000  Uiso   1.00
C102   C     0.50993   0.29166   0.44602   0.00000  Uiso   1.00
C103   C     0.49542   0.25326   0.02705   0.00000  Uiso   1.00
C104   C     0.49616   0.25381   0.47242   0.00000  Uiso   1.00
C105   C     0.40128   0.24934   0.23764   0.00000  Uiso   1.00
C106   C     0.59872   0.24992   0.26240   0.00000  Uiso   1.00
C107   C     0.34604   0.24770   0.23093   0.00000  Uiso   1.00
C108   C     0.65400   0.25030   0.26927   0.00000  Uiso   1.00
C109   C     0.46914   0.04728   0.28099   0.00000  Uiso   1.00
C110   C     0.47997   0.45233   0.20545   0.00000  Uiso   1.00
C111   C     0.47215   0.09345   0.28237   0.00000  Uiso   1.00
C112   C     0.48278   0.40613   0.20591   0.00000  Uiso   1.00
C113   C     0.49917   0.11678   0.24996   0.00000  Uiso   1.00
C114   C     0.49893   0.38340   0.24930   0.00000  Uiso   1.00
C115   C     0.52438   0.09385   0.21663   0.00000  Uiso   1.00
C116   C     0.51363   0.40709   0.29218   0.00000  Uiso   1.00
C117   C     0.52352   0.04785   0.21647   0.00000  Uiso   1.00
C118   C     0.51287   0.45303   0.29159   0.00000  Uiso   1.00
C119   C     0.49617   0.02435   0.24865   0.00000  Uiso   1.00
C120   C     0.49630   0.47585   0.24841   0.00000  Uiso   1.00
Cu121  Cu    0.50000   0.24999   0.29821   0.00000  Uiso   1.00
Cu122  Cu    0.50000   0.25000   0.20178   0.00000  Uiso   1.00
H123   H     0.65948   0.24413   0.19425   0.00000  Uiso   1.00
H124   H     0.34054   0.25328   0.30605   0.00000  Uiso   1.00
H125   H     0.45220   0.11096   0.30780   0.00000  Uiso   1.00
H126   H     0.47164   0.38811   0.17251   0.00000  Uiso   1.00
H127   H     0.54557   0.11152   0.19142   0.00000  Uiso   1.00
H128   H     0.52654   0.39015   0.32599   0.00000  Uiso   1.00
H129   H     0.54449   0.03052   0.19147   0.00000  Uiso   1.00
H130   H     0.52560   0.47089   0.32480   0.00000  Uiso   1.00
H131   H     0.56805   0.28655   0.04080   0.00000  Uiso   1.00
H132   H     0.47468   0.18482   0.46425   0.00000  Uiso   1.00
H133   H     0.42925   0.21462   0.11739   0.00000  Uiso   1.00
H134   H     0.52676   0.31646   0.37700   0.00000  Uiso   1.00
N135   N     0.50000   0.25001   0.12934   0.00000  Uiso   1.00
N136   N     0.50000   0.24999   0.37065   0.00000  Uiso   1.00
O137   O     0.50000   0.18572   0.29071   0.00000  Uiso   1.00
O138   O     0.50000   0.31427   0.20928   0.00000  Uiso   1.00
O139   O     0.50000   0.18573   0.20928   0.00000  Uiso   1.00
O140   O     0.50000   0.31427   0.29072   0.00000  Uiso   1.00
O141   O     0.42495   0.24999   0.28132   0.00000  Uiso   1.00
O142   O     0.57505   0.25000   0.21868   0.00000  Uiso   1.00
O143   O     0.42495   0.25000   0.19988   0.00000  Uiso   1.00
O144   O     0.57505   0.25000   0.30011   0.00000  Uiso   1.00
O145   O     0.44125   0.02440   0.31226   0.00000  Uiso   1.00
C146   C     0.38812   0.02760   0.29478   0.00000  Uiso   1.00
H147   H     0.37976   0.01618   0.25647   0.00000  Uiso   1.00
H148   H     0.37480   0.06226   0.29718   0.00000  Uiso   1.00
C149   C     0.35744   0.49834   0.32557   0.00000  Uiso   1.00
H150   H     0.36414   0.00933   0.36396   0.00000  Uiso   1.00
H151   H     0.64890   0.00053   0.31204   0.00000  Uiso   1.00
H152   H     0.36951   0.46337   0.32355   0.00000  Uiso   1.00
O153   O     0.46342   0.47488   0.16283   0.00000  Uiso   1.00
C154   C     0.40975   0.46780   0.15031   0.00000  Uiso   1.00
H155   H     0.38838   0.47354   0.18177   0.00000  Uiso   1.00
H156   H     0.40159   0.43354   0.13665   0.00000  Uiso   1.00
C157   C     0.38959   0.00005   0.11022   0.00000  Uiso   1.00
H158   H     0.40938   0.49481   0.07784   0.00000  Uiso   1.00
H159   H     0.34741   0.49473   0.09992   0.00000  Uiso   1.00
H160   H     0.39673   0.03462   0.12301   0.00000  Uiso   1.00
O161   O     0.57345   0.29704   0.14074   0.00000  Uiso   1.00
C162   C     0.61863   0.31160   0.12213   0.00000  Uiso   1.00
H163   H     0.63325   0.28745   0.09742   0.00000  Uiso   1.00
H164   H     0.64988   0.31455   0.15322   0.00000  Uiso   1.00
C165   C     0.61146   0.35782   0.09986   0.00000  Uiso   1.00
H166   H     0.60364   0.38170   0.12809   0.00000  Uiso   1.00
H167   H     0.64720   0.36846   0.08525   0.00000  Uiso   1.00
H168   H     0.57871   0.35842   0.07011   0.00000  Uiso   1.00
O169   O     0.46336   0.17708   0.37006   0.00000  Uiso   1.00
C170   C     0.40861   0.17672   0.36495   0.00000  Uiso   1.00
H171   H     0.39382   0.17318   0.32580   0.00000  Uiso   1.00
H172   H     0.39115   0.20746   0.37745   0.00000  Uiso   1.00
C173   C     0.38932   0.13705   0.39182   0.00000  Uiso   1.00
H174   H     0.40080   0.14064   0.43148   0.00000  Uiso   1.00
H175   H     0.34654   0.13486   0.38441   0.00000  Uiso   1.00
H176   H     0.40565   0.10600   0.37960   0.00000  Uiso   1.00
C177   C     0.40500   0.21725   0.02104   0.00000  Uiso   1.00
H178   H     0.39888   0.23081   0.48361   0.00000  Uiso   1.00
H179   H     0.40460   0.18053   0.01983   0.00000  Uiso   1.00
H180   H     0.37179   0.22820   0.03886   0.00000  Uiso   1.00
C181   C     0.51794   0.33693   0.46840   0.00000  Uiso   1.00
H182   H     0.50075   0.33948   0.00258   0.00000  Uiso   1.00
H183   H     0.55986   0.34496   0.47527   0.00000  Uiso   1.00
H184   H     0.49869   0.36220   0.44325   0.00000  Uiso   1.00
C185   C     0.83331   0.16500   0.25008   0.00000  Uiso   1.00
C186   C     0.83327   0.33507   0.24984   0.00000  Uiso   1.00
C187   C     0.87062   0.27170   0.05783   0.00000  Uiso   1.00
C188   C     0.81769   0.21483   0.44584   0.00000  Uiso   1.00
C189   C     0.87150   0.27217   0.10924   0.00000  Uiso   1.00
C190   C     0.81600   0.21429   0.39499   0.00000  Uiso   1.00
C191   C     0.79291   0.23072   0.10053   0.00000  Uiso   1.00
C192   C     0.84739   0.28789   0.39594   0.00000  Uiso   1.00
C193   C     0.78820   0.23352   0.04942   0.00000  Uiso   1.00
C194   C     0.84326   0.29166   0.44602   0.00000  Uiso   1.00
C195   C     0.82876   0.25326   0.02705   0.00000  Uiso   1.00
C196   C     0.82949   0.25381   0.47242   0.00000  Uiso   1.00
C197   C     0.73462   0.24934   0.23764   0.00000  Uiso   1.00
C198   C     0.93206   0.24992   0.26240   0.00000  Uiso   1.00
C199   C     0.67937   0.24770   0.23093   0.00000  Uiso   1.00
C200   C     0.98733   0.25030   0.26927   0.00000  Uiso   1.00
C201   C     0.80247   0.04728   0.28099   0.00000  Uiso   1.00
C202   C     0.81330   0.45233   0.20545   0.00000  Uiso   1.00
C203   C     0.80549   0.09345   0.28237   0.00000  Uiso   1.00
C204   C     0.81612   0.40613   0.20591   0.00000  Uiso   1.00
C205   C     0.83250   0.11678   0.24996   0.00000  Uiso   1.00
C206   C     0.83226   0.38340   0.24930   0.00000  Uiso   1.00
C207   C     0.85772   0.09385   0.21663   0.00000  Uiso   1.00
C208   C     0.84696   0.40709   0.29218   0.00000  Uiso   1.00
C209   C     0.85685   0.04785   0.21647   0.00000  Uiso   1.00
C210   C     0.84621   0.45303   0.29159   0.00000  Uiso   1.00
C211   C     0.82951   0.02435   0.24865   0.00000  Uiso   1.00
C212   C     0.82963   0.47585   0.24841   0.00000  Uiso   1.00
Cu213  Cu    0.83333   0.24999   0.29821   0.00000  Uiso   1.00
Cu214  Cu    0.83333   0.25000   0.20178   0.00000  Uiso   1.00
H215   H     0.99282   0.24413   0.19425   0.00000  Uiso   1.00
H216   H     0.67388   0.25328   0.30605   0.00000  Uiso   1.00
H217   H     0.78553   0.11096   0.30780   0.00000  Uiso   1.00
H218   H     0.80497   0.38811   0.17251   0.00000  Uiso   1.00
H219   H     0.87890   0.11152   0.19142   0.00000  Uiso   1.00
H220   H     0.85988   0.39015   0.32599   0.00000  Uiso   1.00
H221   H     0.87783   0.03052   0.19147   0.00000  Uiso   1.00
H222   H     0.85893   0.47089   0.32480   0.00000  Uiso   1.00
H223   H     0.90138   0.28655   0.04080   0.00000  Uiso   1.00
H224   H     0.80801   0.18482   0.46425   0.00000  Uiso   1.00
H225   H     0.76259   0.21462   0.11739   0.00000  Uiso   1.00
H226   H     0.86010   0.31646   0.37700   0.00000  Uiso   1.00
N227   N     0.83333   0.25001   0.12934   0.00000  Uiso   1.00
N228   N     0.83333   0.24999   0.37065   0.00000  Uiso   1.00
O229   O     0.83334   0.18572   0.29071   0.00000  Uiso   1.00
O230   O     0.83333   0.31427   0.20928   0.00000  Uiso   1.00
O231   O     0.83334   0.18573   0.20928   0.00000  Uiso   1.00
O232   O     0.83333   0.31427   0.29072   0.00000  Uiso   1.00
O233   O     0.75828   0.24999   0.28132   0.00000  Uiso   1.00
O234   O     0.90839   0.25000   0.21868   0.00000  Uiso   1.00
O235   O     0.75828   0.25000   0.19988   0.00000  Uiso   1.00
O236   O     0.90839   0.25000   0.30011   0.00000  Uiso   1.00
O237   O     0.77458   0.02440   0.31226   0.00000  Uiso   1.00
C238   C     0.72146   0.02760   0.29478   0.00000  Uiso   1.00
H239   H     0.71309   0.01618   0.25647   0.00000  Uiso   1.00
H240   H     0.70813   0.06226   0.29718   0.00000  Uiso   1.00
C241   C     0.69077   0.49834   0.32557   0.00000  Uiso   1.00
H242   H     0.69747   0.00933   0.36396   0.00000  Uiso   1.00
H243   H     0.98224   0.00053   0.31204   0.00000  Uiso   1.00
H244   H     0.70284   0.46337   0.32355   0.00000  Uiso   1.00
O245   O     0.79675   0.47488   0.16283   0.00000  Uiso   1.00
C246   C     0.74308   0.46780   0.15031   0.00000  Uiso   1.00
H247   H     0.72171   0.47354   0.18177   0.00000  Uiso   1.00
H248   H     0.73492   0.43354   0.13665   0.00000  Uiso   1.00
C249   C     0.72292   0.00005   0.11022   0.00000  Uiso   1.00
H250   H     0.74272   0.49481   0.07784   0.00000  Uiso   1.00
H251   H     0.68075   0.49473   0.09992   0.00000  Uiso   1.00
H252   H     0.73006   0.03462   0.12301   0.00000  Uiso   1.00
O253   O     0.90679   0.29704   0.14074   0.00000  Uiso   1.00
C254   C     0.95197   0.31160   0.12213   0.00000  Uiso   1.00
H255   H     0.96658   0.28745   0.09742   0.00000  Uiso   1.00
H256   H     0.98321   0.31455   0.15322   0.00000  Uiso   1.00
C257   C     0.94480   0.35782   0.09986   0.00000  Uiso   1.00
H258   H     0.93698   0.38170   0.12809   0.00000  Uiso   1.00
H259   H     0.98054   0.36846   0.08525   0.00000  Uiso   1.00
H260   H     0.91204   0.35842   0.07011   0.00000  Uiso   1.00
O261   O     0.79669   0.17708   0.37006   0.00000  Uiso   1.00
C262   C     0.74195   0.17672   0.36495   0.00000  Uiso   1.00
H263   H     0.72716   0.17318   0.32580   0.00000  Uiso   1.00
H264   H     0.72448   0.20746   0.37745   0.00000  Uiso   1.00
C265   C     0.72266   0.13705   0.39182   0.00000  Uiso   1.00
H266   H     0.73414   0.14064   0.43148   0.00000  Uiso   1.00
H267   H     0.67988   0.13486   0.38441   0.00000  Uiso   1.00
H268   H     0.73899   0.10600   0.37960   0.00000  Uiso   1.00
C269   C     0.73833   0.21725   0.02104   0.00000  Uiso   1.00
H270   H     0.73221   0.23081   0.48361   0.00000  Uiso   1.00
H271   H     0.73793   0.18053   0.01983   0.00000  Uiso   1.00
H272   H     0.70512   0.22820   0.03886   0.00000  Uiso   1.00
C273   C     0.85127   0.33693   0.46840   0.00000  Uiso   1.00
H274   H     0.83408   0.33948   0.00258   0.00000  Uiso   1.00
H275   H     0.89319   0.34496   0.47527   0.00000  Uiso   1.00
H276   H     0.83202   0.36220   0.44325   0.00000  Uiso   1.00
C277   C     0.16665   0.66500   0.25008   0.00000  Uiso   1.00
C278   C     0.16660   0.83507   0.24984   0.00000  Uiso   1.00
C279   C     0.20396   0.77170   0.05783   0.00000  Uiso   1.00
C280   C     0.15103   0.71483   0.44584   0.00000  Uiso   1.00
C281   C     0.20483   0.77217   0.10924   0.00000  Uiso   1.00
C282   C     0.14934   0.71429   0.39499   0.00000  Uiso   1.00
C283   C     0.12624   0.73072   0.10053   0.00000  Uiso   1.00
C284   C     0.18073   0.78789   0.39594   0.00000  Uiso   1.00
C285   C     0.12153   0.73352   0.04942   0.00000  Uiso   1.00
C286   C     0.17659   0.79166   0.44602   0.00000  Uiso   1.00
C287   C     0.16209   0.75326   0.02705   0.00000  Uiso   1.00
C288   C     0.16282   0.75381   0.47242   0.00000  Uiso   1.00
C289   C     0.06795   0.74934   0.23764   0.00000  Uiso   1.00
C290   C     0.26539   0.74992   0.26240   0.00000  Uiso   1.00
C291   C     0.01270   0.74770   0.23093   0.00000  Uiso   1.00
C292   C     0.32066   0.75030   0.26927   0.00000  Uiso   1.00
C293   C     0.13580   0.54728   0.28099   0.00000  Uiso   1.00
C294   C     0.14664   0.95233   0.20545   0.00000  Uiso   1.00
C295   C     0.13882   0.59345   0.28237   0.00000  Uiso   1.00
C296   C     0.14945   0.90613   0.20591   0.00000  Uiso   1.00
C297   C     0.16583   0.61678   0.24996   0.00000  Uiso   1.00
C298   C     0.16560   0.88340   0.24930   0.00000  Uiso   1.00
C299   C     0.19105   0.59385   0.21663   0.00000  Uiso   1.00
C300   C     0.18030   0.90709   0.29218   0.00000  Uiso   1.00
C301   C     0.19018   0.54785   0.21647   0.00000  Uiso   1.00
C302   C     0.17954   0.95303   0.29159   0.00000  Uiso   1.00
C303   C     0.16284   0.52435   0.24865   0.00000  Uiso   1.00
C304   C     0.16296   0.97585   0.24841   0.00000  Uiso   1.00
Cu305  Cu    0.16667   0.74999   0.29821   0.00000  Uiso   1.00
Cu306  Cu    0.16667   0.75000   0.20178   0.00000  Uiso   1.00
H307   H     0.32615   0.74413   0.19425   0.00000  Uiso   1.00
H308   H     0.00721   0.75328   0.30605   0.00000  Uiso   1.00
H309   H     0.11887   0.61096   0.30780   0.00000  Uiso   1.00
H310   H     0.13830   0.88811   0.17251   0.00000  Uiso   1.00
H311   H     0.21223   0.61152   0.19142   0.00000  Uiso   1.00
H312   H     0.19321   0.89015   0.32599   0.00000  Uiso   1.00
H313   H     0.21116   0.53052   0.19147   0.00000  Uiso   1.00
H314   H     0.19227   0.97089   0.32480   0.00000  Uiso   1.00
H315   H     0.23472   0.78655   0.04080   0.00000  Uiso   1.00
H316   H     0.14134   0.68482   0.46425   0.00000  Uiso   1.00
H317   H     0.09592   0.71462   0.11739   0.00000  Uiso   1.00
H318   H     0.19343   0.81646   0.37700   0.00000  Uiso   1.00
N319   N     0.16667   0.75001   0.12934   0.00000  Uiso   1.00
N320   N     0.16667   0.74999   0.37065   0.00000  Uiso   1.00
O321   O     0.16667   0.68572   0.29071   0.00000  Uiso   1.00
O322   O     0.16666   0.81427   0.20928   0.00000  Uiso   1.00
O323   O     0.16667   0.68573   0.20928   0.00000  Uiso   1.00
O324   O     0.16666   0.81427   0.29072   0.00000  Uiso   1.00
O325   O     0.09161   0.74999   0.28132   0.00000  Uiso   1.00
O326   O     0.24172   0.75000   0.21868   0.00000  Uiso   1.00
O327   O     0.09161   0.75000   0.19988   0.00000  Uiso   1.00
O328   O     0.24172   0.75000   0.30011   0.00000  Uiso   1.00
O329   O     0.10791   0.52440   0.31226   0.00000  Uiso   1.00
C330   C     0.05479   0.52760   0.29478   0.00000  Uiso   1.00
H331   H     0.04643   0.51618   0.25647   0.00000  Uiso   1.00
H332   H     0.04147   0.56226   0.29718   0.00000  Uiso   1.00
C333   C     0.02410   0.99834   0.32557   0.00000  Uiso   1.00
H334   H     0.03081   0.50933   0.36396   0.00000  Uiso   1.00
H335   H     0.31557   0.50053   0.31204   0.00000  Uiso   1.00
H336   H     0.03617   0.96337   0.32355   0.00000  Uiso   1.00
O337   O     0.13008   0.97488   0.16283   0.00000  Uiso   1.00
C338   C     0.07641   0.96780   0.15031   0.00000  Uiso   1.00
H339   H     0.05505   0.97354   0.18177   0.00000  Uiso   1.00
H340   H     0.06826   0.93354   0.13665   0.00000  Uiso   1.00
C341   C     0.05626   0.50005   0.11022   0.00000  Uiso   1.00
H342   H     0.07605   0.99481   0.07784   0.00000  Uiso   1.00
H343   H     0.01408   0.99473   0.09992   0.00000  Uiso   1.00
H344   H     0.06340   0.53462   0.12301   0.00000  Uiso   1.00
O345   O     0.24012   0.79704   0.14074   0.00000  Uiso   1.00
C346   C     0.28530   0.81160   0.12213   0.00000  Uiso   1.00
H347   H     0.29991   0.78745   0.09742   0.00000  Uiso   1.00
H348   H     0.31655   0.81455   0.15322   0.00000  Uiso   1.00
C349   C     0.27813   0.85782   0.09986   0.00000  Uiso   1.00
H350   H     0.27031   0.88170   0.12809   0.00000  Uiso   1.00
H351   H     0.31387   0.86846   0.08525   0.00000  Uiso   1.00
H352   H     0.24538   0.85842   0.07011   0.00000  Uiso   1.00
O353   O     0.13003   0.67708   0.37006   0.00000  Uiso   1.00
C354   C     0.07528   0.67672   0.36495   0.00000  Uiso   1.00
H355   H     0.06049   0.67318   0.32580   0.00000  Uiso   1.00
H356   H     0.05781   0.70746   0.37745   0.00000  Uiso   1.00
C357   C     0.05599   0.63705   0.39182   0.00000  Uiso   1.00
H358   H     0.06747   0.64064   0.43148   0.00000  Uiso   1.00
H359   H     0.01321   0.63486   0.38441   0.00000  Uiso   1.00
H360   H     0.07232   0.60600   0.37960   0.00000  Uiso   1.00
C361   C     0.07167   0.71725   0.02104   0.00000  Uiso   1.00
H362   H     0.06555   0.73081   0.48361   0.00000  Uiso   1.00
H363   H     0.07127   0.68053   0.01983   0.00000  Uiso   1.00
H364   H     0.03845   0.72820   0.03886   0.00000  Uiso   1.00
C365   C     0.18461   0.83693   0.46840   0.00000  Uiso   1.00
H366   H     0.16742   0.83948   0.00258   0.00000  Uiso   1.00
H367   H     0.22652   0.84496   0.47527   0.00000  Uiso   1.00
H368   H     0.16535   0.86220   0.44325   0.00000  Uiso   1.00
C369   C     0.49998   0.66500   0.25008   0.00000  Uiso   1.00
C370   C     0.49993   0.83507   0.24984   0.00000  Uiso   1.00
C371   C     0.53729   0.77170   0.05783   0.00000  Uiso   1.00
C372   C     0.48436   0.71483   0.44584   0.00000  Uiso   1.00
C373   C     0.53816   0.77217   0.10924   0.00000  Uiso   1.00
C374   C     0.48267   0.71429   0.39499   0.00000  Uiso   1.00
C375   C     0.45958   0.73072   0.10053   0.00000  Uiso   1.00
C376   C     0.51406   0.78789   0.39594   0.00000  Uiso   1.00
C377   C     0.45486   0.73352   0.04942   0.00000  Uiso   1.00
C378   C     0.50993   0.79166   0.44602   0.00000  Uiso   1.00
C379   C     0.49542   0.75326   0.02705   0.00000  Uiso   1.00
C380   C     0.49616   0.75381   0.47242   0.00000  Uiso   1.00
C381   C     0.40128   0.74934   0.23764   0.00000  Uiso   1.00
C382   C     0.59872   0.74992   0.26240   0.00000  Uiso   1.00
C383   C     0.34604   0.74770   0.23093   0.00000  Uiso   1.00
C384   C     0.65400   0.75030   0.26927   0.00000  Uiso   1.00
C385   C     0.46914   0.54728   0.28099   0.00000  Uiso   1.00
C386   C     0.47997   0.95233   0.20545   0.00000  Uiso   1.00
C387   C     0.47215   0.59345   0.28237   0.00000  Uiso   1.00
C388   C     0.48278   0.90613   0.20591   0.00000  Uiso   1.00
C389   C     0.49917   0.61678   0.24996   0.00000  Uiso   1.00
C390   C     0.49893   0.88340   0.24930   0.00000  Uiso   1.00
C391   C     0.52438   0.59385   0.21663   0.00000  Uiso   1.00
C392   C     0.51363   0.90709   0.29218   0.00000  Uiso   1.00
C393   C     0.52352   0.54785   0.21647   0.00000  Uiso   1.00
C394   C     0.51287   0.95303   0.29159   0.00000  Uiso   1.00
C395   C     0.49617   0.52435   0.24865   0.00000  Uiso   1.00
C396   C     0.49630   0.97585   0.24841   0.00000  Uiso   1.00
Cu397  Cu    0.50000   0.74999   0.29821   0.00000  Uiso   1.00
Cu398  Cu    0.50000   0.75000   0.20178   0.00000  Uiso   1.00
H399   H     0.65948   0.74413   0.19425   0.00000  Uiso   1.00
H400   H     0.34054   0.75328   0.30605   0.00000  Uiso   1.00
H401   H     0.45220   0.61096   0.30780   0.00000  Uiso   1.00
H402   H     0.47164   0.88811   0.17251   0.00000  Uiso   1.00
H403   H     0.54557   0.61152   0.19142   0.00000  Uiso   1.00
H404   H     0.52654   0.89015   0.32599   0.00000  Uiso   1.00
H405   H     0.54449   0.53052   0.19147   0.00000  Uiso   1.00
H406   H     0.52560   0.97089   0.32480   0.00000  Uiso   1.00
H407   H     0.56805   0.78655   0.04080   0.00000  Uiso   1.00
H408   H     0.47468   0.68482   0.46425   0.00000  Uiso   1.00
H409   H     0.42925   0.71462   0.11739   0.00000  Uiso   1.00
H410   H     0.52676   0.81646   0.37700   0.00000  Uiso   1.00
N411   N     0.50000   0.75001   0.12934   0.00000  Uiso   1.00
N412   N     0.50000   0.74999   0.37065   0.00000  Uiso   1.00
O413   O     0.50000   0.68572   0.29071   0.00000  Uiso   1.00
O414   O     0.50000   0.81427   0.20928   0.00000  Uiso   1.00
O415   O     0.50000   0.68573   0.20928   0.00000  Uiso   1.00
O416   O     0.50000   0.81427   0.29072   0.00000  Uiso   1.00
O417   O     0.42495   0.74999   0.28132   0.00000  Uiso   1.00
O418   O     0.57505   0.75000   0.21868   0.00000  Uiso   1.00
O419   O     0.42495   0.75000   0.19988   0.00000  Uiso   1.00
O420   O     0.57505   0.75000   0.30011   0.00000  Uiso   1.00
O421   O     0.44125   0.52440   0.31226   0.00000  Uiso   1.00
C422   C     0.38812   0.52760   0.29478   0.00000  Uiso   1.00
H423   H     0.37976   0.51618   0.25647   0.00000  Uiso   1.00
H424   H     0.37480   0.56226   0.29718   0.00000  Uiso   1.00
C425   C     0.35744   0.99834   0.32557   0.00000  Uiso   1.00
H426   H     0.36414   0.50933   0.36396   0.00000  Uiso   1.00
H427   H     0.64890   0.50053   0.31204   0.00000  Uiso   1.00
H428   H     0.36951   0.96337   0.32355   0.00000  Uiso   1.00
O429   O     0.46342   0.97488   0.16283   0.00000  Uiso   1.00
C430   C     0.40975   0.96780   0.15031   0.00000  Uiso   1.00
H431   H     0.38838   0.97354   0.18177   0.00000  Uiso   1.00
H432   H     0.40159   0.93354   0.13665   0.00000  Uiso   1.00
C433   C     0.38959   0.50005   0.11022   0.00000  Uiso   1.00
H434   H     0.40938   0.99481   0.07784   0.00000  Uiso   1.00
H435   H     0.34741   0.99473   0.09992   0.00000  Uiso   1.00
H436   H     0.39673   0.53462   0.12301   0.00000  Uiso   1.00
O437   O     0.57345   0.79704   0.14074   0.00000  Uiso   1.00
C438   C     0.61863   0.81160   0.12213   0.00000  Uiso   1.00
H439   H     0.63325   0.78745   0.09742   0.00000  Uiso   1.00
H440   H     0.64988   0.81455   0.15322   0.00000  Uiso   1.00
C441   C     0.61146   0.85782   0.09986   0.00000  Uiso   1.00
H442   H     0.60364   0.88170   0.12809   0.00000  Uiso   1.00
H443   H     0.64720   0.86846   0.08525   0.00000  Uiso   1.00
H444   H     0.57871   0.85842   0.07011   0.00000  Uiso   1.00
O445   O     0.46336   0.67708   0.37006   0.00000  Uiso   1.00
C446   C     0.40861   0.67672   0.36495   0.00000  Uiso   1.00
H447   H     0.39382   0.67318   0.32580   0.00000  Uiso   1.00
H448   H     0.39115   0.70746   0.37745   0.00000  Uiso   1.00
C449   C     0.38932   0.63705   0.39182   0.00000  Uiso   1.00
H450   H     0.40080   0.64064   0.43148   0.00000  Uiso   1.00
H451   H     0.34654   0.63486   0.38441   0.00000  Uiso   1.00
H452   H     0.40565   0.60600   0.37960   0.00000  Uiso   1.00
C453   C     0.40500   0.71725   0.02104   0.00000  Uiso   1.00
H454   H     0.39888   0.73081   0.48361   0.00000  Uiso   1.00
H455   H     0.40460   0.68053   0.01983   0.00000  Uiso   1.00
H456   H     0.37179   0.72820   0.03886   0.00000  Uiso   1.00
C457   C     0.51794   0.83693   0.46840   0.00000  Uiso   1.00
H458   H     0.50075   0.83948   0.00258   0.00000  Uiso   1.00
H459   H     0.55986   0.84496   0.47527   0.00000  Uiso   1.00
H460   H     0.49869   0.86220   0.44325   0.00000  Uiso   1.00
C461   C     0.83331   0.66500   0.25008   0.00000  Uiso   1.00
C462   C     0.83327   0.83507   0.24984   0.00000  Uiso   1.00
C463   C     0.87062   0.77170   0.05783   0.00000  Uiso   1.00
C464   C     0.81769   0.71483   0.44584   0.00000  Uiso   1.00
C465   C     0.87150   0.77217   0.10924   0.00000  Uiso   1.00
C466   C     0.81600   0.71429   0.39499   0.00000  Uiso   1.00
C467   C     0.79291   0.73072   0.10053   0.00000  Uiso   1.00
C468   C     0.84739   0.78789   0.39594   0.00000  Uiso   1.00
C469   C     0.78820   0.73352   0.04942   0.00000  Uiso   1.00
C470   C     0.84326   0.79166   0.44602   0.00000  Uiso   1.00
C471   C     0.82876   0.75326   0.02705   0.00000  Uiso   1.00
C472   C     0.82949   0.75381   0.47242   0.00000  Uiso   1.00
C473   C     0.73462   0.74934   0.23764   0.00000  Uiso   1.00
C474   C     0.93206   0.74992   0.26240   0.00000  Uiso   1.00
C475   C     0.67937   0.74770   0.23093   0.00000  Uiso   1.00
C476   C     0.98733   0.75030   0.26927   0.00000  Uiso   1.00
C477   C     0.80247   0.54728   0.28099   0.00000  Uiso   1.00
C478   C     0.81330   0.95233   0.20545   0.00000  Uiso   1.00
C479   C     0.80549   0.59345   0.28237   0.00000  Uiso   1.00
C480   C     0.81612   0.90613   0.20591   0.00000  Uiso   1.00
C481   C     0.83250   0.61678   0.24996   0.00000  Uiso   1.00
C482   C     0.83226   0.88340   0.24930   0.00000  Uiso   1.00
C483   C     0.85772   0.59385   0.21663   0.00000  Uiso   1.00
C484   C     0.84696   0.90709   0.29218   0.00000  Uiso   1.00
C485   C     0.85685   0.54785   0.21647   0.00000  Uiso   1.00
C486   C     0.84621   0.95303   0.29159   0.00000  Uiso   1.00
C487   C     0.82951   0.52435   0.24865   0.00000  Uiso   1.00
C488   C     0.82963   0.97585   0.24841   0.00000  Uiso   1.00
Cu489  Cu    0.83333   0.74999   0.29821   0.00000  Uiso   1.00
Cu490  Cu    0.83333   0.75000   0.20178   0.00000  Uiso   1.00
H491   H     0.99282   0.74413   0.19425   0.00000  Uiso   1.00
H492   H     0.67388   0.75328   0.30605   0.00000  Uiso   1.00
H493   H     0.78553   0.61096   0.30780   0.00000  Uiso   1.00
H494   H     0.80497   0.88811   0.17251   0.00000  Uiso   1.00
H495   H     0.87890   0.61152   0.19142   0.00000  Uiso   1.00
H496   H     0.85988   0.89015   0.32599   0.00000  Uiso   1.00
H497   H     0.87783   0.53052   0.19147   0.00000  Uiso   1.00
H498   H     0.85893   0.97089   0.32480   0.00000  Uiso   1.00
H499   H     0.90138   0.78655   0.04080   0.00000  Uiso   1.00
H500   H     0.80801   0.68482   0.46425   0.00000  Uiso   1.00
H501   H     0.76259   0.71462   0.11739   0.00000  Uiso   1.00
H502   H     0.86010   0.81646   0.37700   0.00000  Uiso   1.00
N503   N     0.83333   0.75001   0.12934   0.00000  Uiso   1.00
N504   N     0.83333   0.74999   0.37065   0.00000  Uiso   1.00
O505   O     0.83334   0.68572   0.29071   0.00000  Uiso   1.00
O506   O     0.83333   0.81427   0.20928   0.00000  Uiso   1.00
O507   O     0.83334   0.68573   0.20928   0.00000  Uiso   1.00
O508   O     0.83333   0.81427   0.29072   0.00000  Uiso   1.00
O509   O     0.75828   0.74999   0.28132   0.00000  Uiso   1.00
O510   O     0.90839   0.75000   0.21868   0.00000  Uiso   1.00
O511   O     0.75828   0.75000   0.19988   0.00000  Uiso   1.00
O512   O     0.90839   0.75000   0.30011   0.00000  Uiso   1.00
O513   O     0.77458   0.52440   0.31226   0.00000  Uiso   1.00
C514   C     0.72146   0.52760   0.29478   0.00000  Uiso   1.00
H515   H     0.71309   0.51618   0.25647   0.00000  Uiso   1.00
H516   H     0.70813   0.56226   0.29718   0.00000  Uiso   1.00
C517   C     0.69077   0.99834   0.32557   0.00000  Uiso   1.00
H518   H     0.69747   0.50933   0.36396   0.00000  Uiso   1.00
H519   H     0.98224   0.50053   0.31204   0.00000  Uiso   1.00
H520   H     0.70284   0.96337   0.32355   0.00000  Uiso   1.00
O521   O     0.79675   0.97488   0.16283   0.00000  Uiso   1.00
C522   C     0.74308   0.96780   0.15031   0.00000  Uiso   1.00
H523   H     0.72171   0.97354   0.18177   0.00000  Uiso   1.00
H524   H     0.73492   0.93354   0.13665   0.00000  Uiso   1.00
C525   C     0.72292   0.50005   0.11022   0.00000  Uiso   1.00
H526   H     0.74272   0.99481   0.07784   0.00000  Uiso   1.00
H527   H     0.68075   0.99473   0.09992   0.00000  Uiso   1.00
H528   H     0.73006   0.53462   0.12301   0.00000  Uiso   1.00
O529   O     0.90679   0.79704   0.14074   0.00000  Uiso   1.00
C530   C     0.95197   0.81160   0.12213   0.00000  Uiso   1.00
H531   H     0.96658   0.78745   0.09742   0.00000  Uiso   1.00
H532   H     0.98321   0.81455   0.15322   0.00000  Uiso   1.00
C533   C     0.94480   0.85782   0.09986   0.00000  Uiso   1.00
H534   H     0.93698   0.88170   0.12809   0.00000  Uiso   1.00
H535   H     0.98054   0.86846   0.08525   0.00000  Uiso   1.00
H536   H     0.91204   0.85842   0.07011   0.00000  Uiso   1.00
O537   O     0.79669   0.67708   0.37006   0.00000  Uiso   1.00
C538   C     0.74195   0.67672   0.36495   0.00000  Uiso   1.00
H539   H     0.72716   0.67318   0.32580   0.00000  Uiso   1.00
H540   H     0.72448   0.70746   0.37745   0.00000  Uiso   1.00
C541   C     0.72266   0.63705   0.39182   0.00000  Uiso   1.00
H542   H     0.73414   0.64064   0.43148   0.00000  Uiso   1.00
H543   H     0.67988   0.63486   0.38441   0.00000  Uiso   1.00
H544   H     0.73899   0.60600   0.37960   0.00000  Uiso   1.00
C545   C     0.73833   0.71725   0.02104   0.00000  Uiso   1.00
H546   H     0.73221   0.73081   0.48361   0.00000  Uiso   1.00
H547   H     0.73793   0.68053   0.01983   0.00000  Uiso   1.00
H548   H     0.70512   0.72820   0.03886   0.00000  Uiso   1.00
C549   C     0.85127   0.83693   0.46840   0.00000  Uiso   1.00
H550   H     0.83408   0.83948   0.00258   0.00000  Uiso   1.00
H551   H     0.89319   0.84496   0.47527   0.00000  Uiso   1.00
H552   H     0.83202   0.86220   0.44325   0.00000  Uiso   1.00
C553   C     0.16665   0.16500   0.75008   0.00000  Uiso   1.00
C554   C     0.16660   0.33507   0.74984   0.00000  Uiso   1.00
C555   C     0.20396   0.27170   0.55783   0.00000  Uiso   1.00
C556   C     0.15103   0.21483   0.94584   0.00000  Uiso   1.00
C557   C     0.20483   0.27217   0.60924   0.00000  Uiso   1.00
C558   C     0.14934   0.21429   0.89499   0.00000  Uiso   1.00
C559   C     0.12624   0.23072   0.60053   0.00000  Uiso   1.00
C560   C     0.18073   0.28789   0.89594   0.00000  Uiso   1.00
C561   C     0.12153   0.23352   0.54942   0.00000  Uiso   1.00
C562   C     0.17659   0.29166   0.94602   0.00000  Uiso   1.00
C563   C     0.16209   0.25326   0.52705   0.00000  Uiso   1.00
C564   C     0.16282   0.25381   0.97242   0.00000  Uiso   1.00
C565   C     0.06795   0.24934   0.73764   0.00000  Uiso   1.00
C566   C     0.26539   0.24992   0.76240   0.00000  Uiso   1.00
C567   C     0.01270   0.24770   0.73093   0.00000  Uiso   1.00
C568   C     0.32066   0.25030   0.76927   0.00000  Uiso   1.00
C569   C     0.13580   0.04728   0.78099   0.00000  Uiso   1.00
C570   C     0.14664   0.45233   0.70545   0.00000  Uiso   1.00
C571   C     0.13882   0.09345   0.78237   0.00000  Uiso   1.00
C572   C     0.14945   0.40613   0.70591   0.00000  Uiso   1.00
C573   C     0.16583   0.11678   0.74996   0.00000  Uiso   1.00
C574   C     0.16560   0.38340   0.74930   0.00000  Uiso   1.00
C575   C     0.19105   0.09385   0.71663   0.00000  Uiso   1.00
C576   C     0.18030   0.40709   0.79218   0.00000  Uiso   1.00
C577   C     0.19018   0.04785   0.71647   0.00000  Uiso   1.00
C578   C     0.17954   0.45303   0.79159   0.00000  Uiso   1.00
C579   C     0.16284   0.02435   0.74865   0.00000  Uiso   1.00
C580   C     0.16296   0.47585   0.74841   0.00000  Uiso   1.00
Cu581  Cu    0.16667   0.24999   0.79821   0.00000  Uiso   1.00
Cu582  Cu    0.16667   0.25000   0.70178   0.00000  Uiso   1.00
H583   H     0.32615   0.24413   0.69425   0.00000  Uiso   1.00
H584   H     0.00721   0.25328   0.80605   0.00000  Uiso   1.00
H585   H     0.11887   0.11096   0.80780   0.00000  Uiso   1.00
H586   H     0.13830   0.38811   0.67251   0.00000  Uiso   1.00
H587   H     0.21223   0.11152   0.69142   0.00000  Uiso   1.00
H588   H     0.19321   0.39015   0.82599   0.00000  Uiso   1.00
H589   H     0.21116   0.03052   0.69147   0.00000  Uiso   1.00
H590   H     0.19227   0.47089   0.82480   0.00000  Uiso   1.00
H591   H     0.23472   0.28655   0.54080   0.00000  Uiso   1.00
H592   H     0.14134   0.18482   0.96425   0.00000  Uiso   1.00
H593   H     0.09592   0.21462   0.61739   0.00000  Uiso   1.00
H594   H     0.19343   0.31646   0.87700   0.00000  Uiso   1.00
N595   N     0.16667   0.25001   0.62934   0.00000  Uiso   1.00
N596   N     0.16667   0.24999   0.87065   0.00000  Uiso   1.00
O597   O     0.16667   0.18572   0.79071   0.00000  Uiso   1.00
O598   O     0.16666   0.31427   0.70928   0.00000  Uiso   1.00
O599   O     0.16667   0.18573   0.70928   0.00000  Uiso   1.00
O600   O     0.16666   0.31427   0.79072   0.00000  Uiso   1.00
O601   O     0.09161   0.24999   0.78132   0.00000  Uiso   1.00
O602   O     0.24172   0.25000   0.71868   0.00000  Uiso   1.00
O603   O     0.09161   0.25000   0.69988   0.00000  Uiso   1.00
O604   O     0.24172   0.25000   0.80011   0.00000  Uiso   1.00
O605   O     0.10791   0.02440   0.81226   0.00000  Uiso   1.00
C606   C     0.05479   0.02760   0.79478   0.00000  Uiso   1.00
H607   H     0.04643   0.01618   0.75647   0.00000  Uiso   1.00
H608   H     0.04147   0.06226   0.79718   0.00000  Uiso   1.00
C609   C     0.02410   0.49834   0.82557   0.00000  Uiso   1.00
H610   H     0.03081   0.00933   0.86396   0.00000  Uiso   1.00
H611   H     0.31557   0.00053   0.81204   0.00000  Uiso   1.00
H612   H     0.03617   0.46337   0.82355   0.00000  Uiso   1.00
O613   O     0.13008   0.47488   0.66283   0.00000  Uiso   1.00
C614   C     0.07641   0.46780   0.65031   0.00000  Uiso   1.00
H615   H     0.05505   0.47354   0.68177   0.00000  Uiso   1.00
H616   H     0.06826   0.43354   0.63665   0.00000  Uiso   1.00
C617   C     0.05626   0.00005   0.61022   0.00000  Uiso   1.00
H618   H     0.07605   0.49481   0.57784   0.00000  Uiso   1.00
H619   H     0.01408   0.49473   0.59992   0.00000  Uiso   1.00
H620   H     0.06340   0.03462   0.62301   0.00000  Uiso   1.00
O621   O     0.24012   0.29704   0.64074   0.00000  Uiso   1.00
C622   C     0.28530   0.31160   0.62213   0.00000  Uiso   1.00
H623   H     0.29991   0.28745   0.59742   0.00000  Uiso   1.00
H624   H     0.31655   0.31455   0.65322   0.00000  Uiso   1.00
C625   C     0.27813   0.35782   0.59986   0.00000  Uiso   1.00
H626   H     0.27031   0.38170   0.62809   0.00000  Uiso   1.00
H627   H     0.31387   0.36846   0.58525   0.00000  Uiso   1.00
H628   H     0.24538   0.35842   0.57011   0.00000  Uiso   1.00
O629   O     0.13003   0.17708   0.87006   0.00000  Uiso   1.00
C630   C     0.07528   0.17672   0.86495   0.00000  Uiso   1.00
H631   H     0.06049   0.17318   0.82580   0.00000  Uiso   1.00
H632   H     0.05781   0.20746   0.87745   0.00000  Uiso   1.00
C633   C     0.05599   0.13705   0.89182   0.00000  Uiso   1.00
H634   H     0.06747   0.14064   0.93148   0.00000  Uiso   1.00
H635   H     0.01321   0.13486   0.88441   0.00000  Uiso   1.00
H636   H     0.07232   0.10600   0.87960   0.00000  Uiso   1.00
C637   C     0.07167   0.21725   0.52104   0.00000  Uiso   1.00
H638   H     0.06555   0.23081   0.98361   0.00000  Uiso   1.00
H639   H     0.07127   0.18053   0.51983   0.00000  Uiso   1.00
H640   H     0.03845   0.22820   0.53886   0.00000  Uiso   1.00
C641   C     0.18461   0.33693   0.96840   0.00000  Uiso   1.00
H642   H     0.16742   0.33948   0.50258   0.00000  Uiso   1.00
H643   H     0.22652   0.34496   0.97527   0.00000  Uiso   1.00
H644   H     0.16535   0.36220   0.94325   0.00000  Uiso   1.00
C645   C     0.49998   0.16500   0.75008   0.00000  Uiso   1.00
C646   C     0.49993   0.33507   0.74984   0.00000  Uiso   1.00
C647   C     0.53729   0.27170   0.55783   0.00000  Uiso   1.00
C648   C     0.48436   0.21483   0.94584   0.00000  Uiso   1.00
C649   C     0.53816   0.27217   0.60924   0.00000  Uiso   1.00
C650   C     0.48267   0.21429   0.89499   0.00000  Uiso   1.00
C651   C     0.45958   0.23072   0.60053   0.00000  Uiso   1.00
C652   C     0.51406   0.28789   0.89594   0.00000  Uiso   1.00
C653   C     0.45486   0.23352   0.54942   0.00000  Uiso   1.00
C654   C     0.50993   0.29166   0.94602   0.00000  Uiso   1.00
C655   C     0.49542   0.25326   0.52705   0.00000  Uiso   1.00
C656   C     0.49616   0.25381   0.97242   0.00000  Uiso   1.00
C657   C     0.40128   0.24934   0.73764   0.00000  Uiso   1.00
C658   C     0.59872   0.24992   0.76240   0.00000  Uiso   1.00
C659   C     0.34604   0.24770   0.73093   0.00000  Uiso   1.00
C660   C     0.65400   0.25030   0.76927   0.00000  Uiso   1.00
C661   C     0.46914   0.04728   0.78099   0.00000  Uiso   1.00
C662   C     0.47997   0.45233   0.70545   0.00000  Uiso   1.00
C663   C     0.47215   0.09345   0.78237   0.00000  Uiso   1.00
C664   C     0.48278   0.40613   0.70591   0.00000  Uiso   1.00
C665   C     0.49917   0.11678   0.74996   0.00000  Uiso   1.00
C666   C     0.49893   0.38340   0.74930   0.00000  Uiso   1.00
C667   C     0.52438   0.09385   0.71663   0.00000  Uiso   1.00
C668   C     0.51363   0.40709   0.79218   0.00000  Uiso   1.00
C669   C     0.52352   0.04785   0.71647   0.00000  Uiso   1.00
C670   C     0.51287   0.45303   0.79159   0.00000  Uiso   1.00
C671   C     0.49617   0.02435   0.74865   0.00000  Uiso   1.00
C672   C     0.49630   0.47585   0.74841   0.00000  Uiso   1.00
Cu673  Cu    0.50000   0.24999   0.79821   0.00000  Uiso   1.00
Cu674  Cu    0.50000   0.25000   0.70178   0.00000  Uiso   1.00
H675   H     0.65948   0.24413   0.69425   0.00000  Uiso   1.00
H676   H     0.34054   0.25328   0.80605   0.00000  Uiso   1.00
H677   H     0.45220   0.11096   0.80780   0.00000  Uiso   1.00
H678   H     0.47164   0.38811   0.67251   0.00000  Uiso   1.00
H679   H     0.54557   0.11152   0.69142   0.00000  Uiso   1.00
H680   H     0.52654   0.39015   0.82599   0.00000  Uiso   1.00
H681   H     0.54449   0.03052   0.69147   0.00000  Uiso   1.00
H682   H     0.52560   0.47089   0.82480   0.00000  Uiso   1.00
H683   H     0.56805   0.28655   0.54080   0.00000  Uiso   1.00
H684   H     0.47468   0.18482   0.96425   0.00000  Uiso   1.00
H685   H     0.42925   0.21462   0.61739   0.00000  Uiso   1.00
H686   H     0.52676   0.31646   0.87700   0.00000  Uiso   1.00
N687   N     0.50000   0.25001   0.62934   0.00000  Uiso   1.00
N688   N     0.50000   0.24999   0.87065   0.00000  Uiso   1.00
O689   O     0.50000   0.18572   0.79071   0.00000  Uiso   1.00
O690   O     0.50000   0.31427   0.70928   0.00000  Uiso   1.00
O691   O     0.50000   0.18573   0.70928   0.00000  Uiso   1.00
O692   O     0.50000   0.31427   0.79072   0.00000  Uiso   1.00
O693   O     0.42495   0.24999   0.78132   0.00000  Uiso   1.00
O694   O     0.57505   0.25000   0.71868   0.00000  Uiso   1.00
O695   O     0.42495   0.25000   0.69988   0.00000  Uiso   1.00
O696   O     0.57505   0.25000   0.80011   0.00000  Uiso   1.00
O697   O     0.44125   0.02440   0.81226   0.00000  Uiso   1.00
C698   C     0.38812   0.02760   0.79478   0.00000  Uiso   1.00
H699   H     0.37976   0.01618   0.75647   0.00000  Uiso   1.00
H700   H     0.37480   0.06226   0.79718   0.00000  Uiso   1.00
C701   C     0.35744   0.49834   0.82557   0.00000  Uiso   1.00
H702   H     0.36414   0.00933   0.86396   0.00000  Uiso   1.00
H703   H     0.64890   0.00053   0.81204   0.00000  Uiso   1.00
H704   H     0.36951   0.46337   0.82355   0.00000  Uiso   1.00
O705   O     0.46342   0.47488   0.66283   0.00000  Uiso   1.00
C706   C     0.40975   0.46780   0.65031   0.00000  Uiso   1.00
H707   H     0.38838   0.47354   0.68177   0.00000  Uiso   1.00
H708   H     0.40159   0.43354   0.63665   0.00000  Uiso   1.00
C709   C     0.38959   0.00005   0.61022   0.00000  Uiso   1.00
H710   H     0.40938   0.49481   0.57784   0.00000  Uiso   1.00
H711   H     0.34741   0.49473   0.59992   0.00000  Uiso   1.00
H712   H     0.39673   0.03462   0.62301   0.00000  Uiso   1.00
O713   O     0.57345   0.29704   0.64074   0.00000  Uiso   1.00
C714   C     0.61863   0.31160   0.62213   0.00000  Uiso   1.00
H715   H     0.63325   0.28745   0.59742   0.00000  Uiso   1.00
H716   H     0.64988   0.31455   0.65322   0.00000  Uiso   1.00
C717   C     0.61146   0.35782   0.59986   0.00000  Uiso   1.00
H718   H     0.60364   0.38170   0.62809   0.00000  Uiso   1.00
H719   H     0.64720   0.36846   0.58525   0.00000  Uiso   1.00
H720   H     0.57871   0.35842   0.57011   0.00000  Uiso   1.00
O721   O     0.46336   0.17708   0.87006   0.00000  Uiso   1.00
C722   C     0.40861   0.17672   0.86495   0.00000  Uiso   1.00
H723   H     0.39382   0.17318   0.82580   0.00000  Uiso   1.00
H724   H     0.39115   0.20746   0.87745   0.00000  Uiso   1.00
C725   C     0.38932   0.13705   0.89182   0.00000  Uiso   1.00
H726   H     0.40080   0.14064   0.93148   0.00000  Uiso   1.00
H727   H     0.34654   0.13486   0.88441   0.00000  Uiso   1.00
H728   H     0.40565   0.10600   0.87960   0.00000  Uiso   1.00
C729   C     0.40500   0.21725   0.52104   0.00000  Uiso   1.00
H730   H     0.39888   0.23081   0.98361   0.00000  Uiso   1.00
H731   H     0.40460   0.18053   0.51983   0.00000  Uiso   1.00
H732   H     0.37179   0.22820   0.53886   0.00000  Uiso   1.00
C733   C     0.51794   0.33693   0.96840   0.00000  Uiso   1.00
H734   H     0.50075   0.33948   0.50258   0.00000  Uiso   1.00
H735   H     0.55986   0.34496   0.97527   0.00000  Uiso   1.00
H736   H     0.49869   0.36220   0.94325   0.00000  Uiso   1.00
C737   C     0.83331   0.16500   0.75008   0.00000  Uiso   1.00
C738   C     0.83327   0.33507   0.74984   0.00000  Uiso   1.00
C739   C     0.87062   0.27170   0.55783   0.00000  Uiso   1.00
C740   C     0.81769   0.21483   0.94584   0.00000  Uiso   1.00
C741   C     0.87150   0.27217   0.60924   0.00000  Uiso   1.00
C742   C     0.81600   0.21429   0.89499   0.00000  Uiso   1.00
C743   C     0.79291   0.23072   0.60053   0.00000  Uiso   1.00
C744   C     0.84739   0.28789   0.89594   0.00000  Uiso   1.00
C745   C     0.78820   0.23352   0.54942   0.00000  Uiso   1.00
C746   C     0.84326   0.29166   0.94602   0.00000  Uiso   1.00
C747   C     0.82876   0.25326   0.52705   0.00000  Uiso   1.00
C748   C     0.82949   0.25381   0.97242   0.00000  Uiso   1.00
C749   C     0.73462   0.24934   0.73764   0.00000  Uiso   1.00
C750   C     0.93206   0.24992   0.76240   0.00000  Uiso   1.00
C751   C     0.67937   0.24770   0.73093   0.00000  Uiso   1.00
C752   C     0.98733   0.25030   0.76927   0.00000  Uiso   1.00
C753   C     0.80247   0.04728   0.78099   0.00000  Uiso   1.00
C754   C     0.81330   0.45233   0.70545   0.00000  Uiso   1.00
C755   C     0.80549   0.09345   0.78237   0.00000  Uiso   1.00
C756   C     0.81612   0.40613   0.70591   0.00000  Uiso   1.00
C757   C     0.83250   0.11678   0.74996   0.00000  Uiso   1.00
C758   C     0.83226   0.38340   0.74930   0.00000  Uiso   1.00
C759   C     0.85772   0.09385   0.71663   0.00000  Uiso   1.00
C760   C     0.84696   0.40709   0.79218   0.00000  Uiso   1.00
C761   C     0.85685   0.04785   0.71647   0.00000  Uiso   1.00
C762   C     0.84621   0.45303   0.79159   0.00000  Uiso   1.00
C763   C     0.82951   0.02435   0.74865   0.00000  Uiso   1.00
C764   C     0.82963   0.47585   0.74841   0.00000  Uiso   1.00
Cu765  Cu    0.83333   0.24999   0.79821   0.00000  Uiso   1.00
Cu766  Cu    0.83333   0.25000   0.70178   0.00000  Uiso   1.00
H767   H     0.99282   0.24413   0.69425   0.00000  Uiso   1.00
H768   H     0.67388   0.25328   0.80605   0.00000  Uiso   1.00
H769   H     0.78553   0.11096   0.80780   0.00000  Uiso   1.00
H770   H     0.80497   0.38811   0.67251   0.00000  Uiso   1.00
H771   H     0.87890   0.11152   0.69142   0.00000  Uiso   1.00
H772   H     0.85988   0.39015   0.82599   0.00000  Uiso   1.00
H773   H     0.87783   0.03052   0.69147   0.00000  Uiso   1.00
H774   H     0.85893   0.47089   0.82480   0.00000  Uiso   1.00
H775   H     0.90138   0.28655   0.54080   0.00000  Uiso   1.00
H776   H     0.80801   0.18482   0.96425   0.00000  Uiso   1.00
H777   H     0.76259   0.21462   0.61739   0.00000  Uiso   1.00
H778   H     0.86010   0.31646   0.87700   0.00000  Uiso   1.00
N779   N     0.83333   0.25001   0.62934   0.00000  Uiso   1.00
N780   N     0.83333   0.24999   0.87065   0.00000  Uiso   1.00
O781   O     0.83334   0.18572   0.79071   0.00000  Uiso   1.00
O782   O     0.83333   0.31427   0.70928   0.00000  Uiso   1.00
O783   O     0.83334   0.18573   0.70928   0.00000  Uiso   1.00
O784   O     0.83333   0.31427   0.79072   0.00000  Uiso   1.00
O785   O     0.75828   0.24999   0.78132   0.00000  Uiso   1.00
O786   O     0.90839   0.25000   0.71868   0.00000  Uiso   1.00
O787   O     0.75828   0.25000   0.69988   0.00000  Uiso   1.00
O788   O     0.90839   0.25000   0.80011   0.00000  Uiso   1.00
O789   O     0.77458   0.02440   0.81226   0.00000  Uiso   1.00
C790   C     0.72146   0.02760   0.79478   0.00000  Uiso   1.00
H791   H     0.71309   0.01618   0.75647   0.00000  Uiso   1.00
H792   H     0.70813   0.06226   0.79718   0.00000  Uiso   1.00
C793   C     0.69077   0.49834   0.82557   0.00000  Uiso   1.00
H794   H     0.69747   0.00933   0.86396   0.00000  Uiso   1.00
H795   H     0.98224   0.00053   0.81204   0.00000  Uiso   1.00
H796   H     0.70284   0.46337   0.82355   0.00000  Uiso   1.00
O797   O     0.79675   0.47488   0.66283   0.00000  Uiso   1.00
C798   C     0.74308   0.46780   0.65031   0.00000  Uiso   1.00
H799   H     0.72171   0.47354   0.68177   0.00000  Uiso   1.00
H800   H     0.73492   0.43354   0.63665   0.00000  Uiso   1.00
C801   C     0.72292   0.00005   0.61022   0.00000  Uiso   1.00
H802   H     0.74272   0.49481   0.57784   0.00000  Uiso   1.00
H803   H     0.68075   0.49473   0.59992   0.00000  Uiso   1.00
H804   H     0.73006   0.03462   0.62301   0.00000  Uiso   1.00
O805   O     0.90679   0.29704   0.64074   0.00000  Uiso   1.00
C806   C     0.95197   0.31160   0.62213   0.00000  Uiso   1.00
H807   H     0.96658   0.28745   0.59742   0.00000  Uiso   1.00
H808   H     0.98321   0.31455   0.65322   0.00000  Uiso   1.00
C809   C     0.94480   0.35782   0.59986   0.00000  Uiso   1.00
H810   H     0.93698   0.38170   0.62809   0.00000  Uiso   1.00
H811   H     0.98054   0.36846   0.58525   0.00000  Uiso   1.00
H812   H     0.91204   0.35842   0.57011   0.00000  Uiso   1.00
O813   O     0.79669   0.17708   0.87006   0.00000  Uiso   1.00
C814   C     0.74195   0.17672   0.86495   0.00000  Uiso   1.00
H815   H     0.72716   0.17318   0.82580   0.00000  Uiso   1.00
H816   H     0.72448   0.20746   0.87745   0.00000  Uiso   1.00
C817   C     0.72266   0.13705   0.89182   0.00000  Uiso   1.00
H818   H     0.73414   0.14064   0.93148   0.00000  Uiso   1.00
H819   H     0.67988   0.13486   0.88441   0.00000  Uiso   1.00
H820   H     0.73899   0.10600   0.87960   0.00000  Uiso   1.00
C821   C     0.73833   0.21725   0.52104   0.00000  Uiso   1.00
H822   H     0.73221   0.23081   0.98361   0.00000  Uiso   1.00
H823   H     0.73793   0.18053   0.51983   0.00000  Uiso   1.00
H824   H     0.70512   0.22820   0.53886   0.00000  Uiso   1.00
C825   C     0.85127   0.33693   0.96840   0.00000  Uiso   1.00
H826   H     0.83408   0.33948   0.50258   0.00000  Uiso   1.00
H827   H     0.89319   0.34496   0.97527   0.00000  Uiso   1.00
H828   H     0.83202   0.36220   0.94325   0.00000  Uiso   1.00
C829   C     0.16665   0.66500   0.75008   0.00000  Uiso   1.00
C830   C     0.16660   0.83507   0.74984   0.00000  Uiso   1.00
C831   C     0.20396   0.77170   0.55783   0.00000  Uiso   1.00
C832   C     0.15103   0.71483   0.94584   0.00000  Uiso   1.00
C833   C     0.20483   0.77217   0.60924   0.00000  Uiso   1.00
C834   C     0.14934   0.71429   0.89499   0.00000  Uiso   1.00
C835   C     0.12624   0.73072   0.60053   0.00000  Uiso   1.00
C836   C     0.18073   0.78789   0.89594   0.00000  Uiso   1.00
C837   C     0.12153   0.73352   0.54942   0.00000  Uiso   1.00
C838   C     0.17659   0.79166   0.94602   0.00000  Uiso   1.00
C839   C     0.16209   0.75326   0.52705   0.00000  Uiso   1.00
C840   C     0.16282   0.75381   0.97242   0.00000  Uiso   1.00
C841   C     0.06795   0.74934   0.73764   0.00000  Uiso   1.00
C842   C     0.26539   0.74992   0.76240   0.00000  Uiso   1.00
C843   C     0.01270   0.74770   0.73093   0.00000  Uiso   1.00
C844   C     0.32066   0.75030   0.76927   0.00000  Uiso   1.00
C845   C     0.13580   0.54728   0.78099   0.00000  Uiso   1.00
C846   C     0.14664   0.95233   0.70545   0.00000  Uiso   1.00
C847   C     0.13882   0.59345   0.78237   0.00000  Uiso   1.00
C848   C     0.14945   0.90613   0.70591   0.00000  Uiso   1.00
C849   C     0.16583   0.61678   0.74996   0.00000  Uiso   1.00
C850   C     0.16560   0.88340   0.74930   0.00000  Uiso   1.00
C851   C     0.19105   0.59385   0.71663   0.00000  Uiso   1.00
C852   C     0.18030   0.90709   0.79218   0.00000  Uiso   1.00
C853   C     0.19018   0.54785   0.71647   0.00000  Uiso   1.00
C854   C     0.17954   0.95303   0.79159   0.00000  Uiso   1.00
C855   C     0.16284   0.52435   0.74865   0.00000  Uiso   1.00
C856   C     0.16296   0.97585   0.74841   0.00000  Uiso   1.00
Cu857  Cu    0.16667   0.74999   0.79821   0.00000  Uiso   1.00
Cu858  Cu    0.16667   0.75000   0.70178   0.00000  Uiso   1.00
H859   H     0.32615   0.74413   0.69425   0.00000  Uiso   1.00
H860   H     0.00721   0.75328   0.80605   0.00000  Uiso   1.00
H861   H     0.11887   0.61096   0.80780   0.00000  Uiso   1.00
H862   H     0.13830   0.88811   0.67251   0.00000  Uiso   1.00
H863   H     0.21223   0.61152   0.69142   0.00000  Uiso   1.00
H864   H     0.19321   0.89015   0.82599   0.00000  Uiso   1.00
H865   H     0.21116   0.53052   0.69147   0.00000  Uiso   1.00
H866   H     0.19227   0.97089   0.82480   0.00000  Uiso   1.00
H867   H     0.23472   0.78655   0.54080   0.00000  Uiso   1.00
H868   H     0.14134   0.68482   0.96425   0.00000  Uiso   1.00
H869   H     0.09592   0.71462   0.61739   0.00000  Uiso   1.00
H870   H     0.19343   0.81646   0.87700   0.00000  Uiso   1.00
N871   N     0.16667   0.75001   0.62934   0.00000  Uiso   1.00
N872   N     0.16667   0.74999   0.87065   0.00000  Uiso   1.00
O873   O     0.16667   0.68572   0.79071   0.00000  Uiso   1.00
O874   O     0.16666   0.81427   0.70928   0.00000  Uiso   1.00
O875   O     0.16667   0.68573   0.70928   0.00000  Uiso   1.00
O876   O     0.16666   0.81427   0.79072   0.00000  Uiso   1.00
O877   O     0.09161   0.74999   0.78132   0.00000  Uiso   1.00
O878   O     0.24172   0.75000   0.71868   0.00000  Uiso   1.00
O879   O     0.09161   0.75000   0.69988   0.00000  Uiso   1.00
O880   O     0.24172   0.75000   0.80011   0.00000  Uiso   1.00
O881   O     0.10791   0.52440   0.81226   0.00000  Uiso   1.00
C882   C     0.05479   0.52760   0.79478   0.00000  Uiso   1.00
H883   H     0.04643   0.51618   0.75647   0.00000  Uiso   1.00
H884   H     0.04147   0.56226   0.79718   0.00000  Uiso   1.00
C885   C     0.02410   0.99834   0.82557   0.00000  Uiso   1.00
H886   H     0.03081   0.50933   0.86396   0.00000  Uiso   1.00
H887   H     0.31557   0.50053   0.81204   0.00000  Uiso   1.00
H888   H     0.03617   0.96337   0.82355   0.00000  Uiso   1.00
O889   O     0.13008   0.97488   0.66283   0.00000  Uiso   1.00
C890   C     0.07641   0.96780   0.65031   0.00000  Uiso   1.00
H891   H     0.05505   0.97354   0.68177   0.00000  Uiso   1.00
H892   H     0.06826   0.93354   0.63665   0.00000  Uiso   1.00
C893   C     0.05626   0.50005   0.61022   0.00000  Uiso   1.00
H894   H     0.07605   0.99481   0.57784   0.00000  Uiso   1.00
H895   H     0.01408   0.99473   0.59992   0.00000  Uiso   1.00
H896   H     0.06340   0.53462   0.62301   0.00000  Uiso   1.00
O897   O     0.24012   0.79704   0.64074   0.00000  Uiso   1.00
C898   C     0.28530   0.81160   0.62213   0.00000  Uiso   1.00
H899   H     0.29991   0.78745   0.59742   0.00000  Uiso   1.00
H900   H     0.31655   0.81455   0.65322   0.00000  Uiso   1.00
C901   C     0.27813   0.85782   0.59986   0.00000  Uiso   1.00
H902   H     0.27031   0.88170   0.62809   0.00000  Uiso   1.00
H903   H     0.31387   0.86846   0.58525   0.00000  Uiso   1.00
H904   H     0.24538   0.85842   0.57011   0.00000  Uiso   1.00
O905   O     0.13003   0.67708   0.87006   0.00000  Uiso   1.00
C906   C     0.07528   0.67672   0.86495   0.00000  Uiso   1.00
H907   H     0.06049   0.67318   0.82580   0.00000  Uiso   1.00
H908   H     0.05781   0.70746   0.87745   0.00000  Uiso   1.00
C909   C     0.05599   0.63705   0.89182   0.00000  Uiso   1.00
H910   H     0.06747   0.64064   0.93148   0.00000  Uiso   1.00
H911   H     0.01321   0.63486   0.88441   0.00000  Uiso   1.00
H912   H     0.07232   0.60600   0.87960   0.00000  Uiso   1.00
C913   C     0.07167   0.71725   0.52104   0.00000  Uiso   1.00
H914   H     0.06555   0.73081   0.98361   0.00000  Uiso   1.00
H915   H     0.07127   0.68053   0.51983   0.00000  Uiso   1.00
H916   H     0.03845   0.72820   0.53886   0.00000  Uiso   1.00
C917   C     0.18461   0.83693   0.96840   0.00000  Uiso   1.00
H918   H     0.16742   0.83948   0.50258   0.00000  Uiso   1.00
H919   H     0.22652   0.84496   0.97527   0.00000  Uiso   1.00
H920   H     0.16535   0.86220   0.94325   0.00000  Uiso   1.00
C921   C     0.49998   0.66500   0.75008   0.00000  Uiso   1.00
C922   C     0.49993   0.83507   0.74984   0.00000  Uiso   1.00
C923   C     0.53729   0.77170   0.55783   0.00000  Uiso   1.00
C924   C     0.48436   0.71483   0.94584   0.00000  Uiso   1.00
C925   C     0.53816   0.77217   0.60924   0.00000  Uiso   1.00
C926   C     0.48267   0.71429   0.89499   0.00000  Uiso   1.00
C927   C     0.45958   0.73072   0.60053   0.00000  Uiso   1.00
C928   C     0.51406   0.78789   0.89594   0.00000  Uiso   1.00
C929   C     0.45486   0.73352   0.54942   0.00000  Uiso   1.00
C930   C     0.50993   0.79166   0.94602   0.00000  Uiso   1.00
C931   C     0.49542   0.75326   0.52705   0.00000  Uiso   1.00
C932   C     0.49616   0.75381   0.97242   0.00000  Uiso   1.00
C933   C     0.40128   0.74934   0.73764   0.00000  Uiso   1.00
C934   C     0.59872   0.74992   0.76240   0.00000  Uiso   1.00
C935   C     0.34604   0.74770   0.73093   0.00000  Uiso   1.00
C936   C     0.65400   0.75030   0.76927   0.00000  Uiso   1.00
C937   C     0.46914   0.54728   0.78099   0.00000  Uiso   1.00
C938   C     0.47997   0.95233   0.70545   0.00000  Uiso   1.00
C939   C     0.47215   0.59345   0.78237   0.00000  Uiso   1.00
C940   C     0.48278   0.90613   0.70591   0.00000  Uiso   1.00
C941   C     0.49917   0.61678   0.74996   0.00000  Uiso   1.00
C942   C     0.49893   0.88340   0.74930   0.00000  Uiso   1.00
C943   C     0.52438   0.59385   0.71663   0.00000  Uiso   1.00
C944   C     0.51363   0.90709   0.79218   0.00000  Uiso   1.00
C945   C     0.52352   0.54785   0.71647   0.00000  Uiso   1.00
C946   C     0.51287   0.95303   0.79159   0.00000  Uiso   1.00
C947   C     0.49617   0.52435   0.74865   0.00000  Uiso   1.00
C948   C     0.49630   0.97585   0.74841   0.00000  Uiso   1.00
Cu949  Cu    0.50000   0.74999   0.79821   0.00000  Uiso   1.00
Cu950  Cu    0.50000   0.75000   0.70178   0.00000  Uiso   1.00
H951   H     0.65948   0.74413   0.69425   0.00000  Uiso   1.00
H952   H     0.34054   0.75328   0.80605   0.00000  Uiso   1.00
H953   H     0.45220   0.61096   0.80780   0.00000  Uiso   1.00
H954   H     0.47164   0.88811   0.67251   0.00000  Uiso   1.00
H955   H     0.54557   0.61152   0.69142   0.00000  Uiso   1.00
H956   H     0.52654   0.89015   0.82599   0.00000  Uiso   1.00
H957   H     0.54449   0.53052   0.69147   0.00000  Uiso   1.00
H958   H     0.52560   0.97089   0.82480   0.00000  Uiso   1.00
H959   H     0.56805   0.78655   0.54080   0.00000  Uiso   1.00
H960   H     0.47468   0.68482   0.96425   0.00000  Uiso   1.00
H961   H     0.42925   0.71462   0.61739   0.00000  Uiso   1.00
H962   H     0.52676   0.81646   0.87700   0.00000  Uiso   1.00
N963   N     0.50000   0.75001   0.62934   0.00000  Uiso   1.00
N964   N     0.50000   0.74999   0.87065   0.00000  Uiso   1.00
O965   O     0.50000   0.68572   0.79071   0.00000  Uiso   1.00
O966   O     0.50000   0.81427   0.70928   0.00000  Uiso   1.00
O967   O     0.50000   0.68573   0.70928   0.00000  Uiso   1.00
O968   O     0.50000   0.81427   0.79072   0.00000  Uiso   1.00
O969   O     0.42495   0.74999   0.78132   0.00000  Uiso   1.00
O970   O     0.57505   0.75000   0.71868   0.00000  Uiso   1.00
O971   O     0.42495   0.75000   0.69988   0.00000  Uiso   1.00
O972   O     0.57505   0.75000   0.80011   0.00000  Uiso   1.00
O973   O     0.44125   0.52440   0.81226   0.00000  Uiso   1.00
C974   C     0.38812   0.52760   0.79478   0.00000  Uiso   1.00
H975   H     0.37976   0.51618   0.75647   0.00000  Uiso   1.00
H976   H     0.37480   0.56226   0.79718   0.00000  Uiso   1.00
C977   C     0.35744   0.99834   0.82557   0.00000  Uiso   1.00
H978   H     0.36414   0.50933   0.86396   0.00000  Uiso   1.00
H979   H     0.64890   0.50053   0.81204   0.00000  Uiso   1.00
H980   H     0.36951   0.96337   0.82355   0.00000  Uiso   1.00
O981   O     0.46342   0.97488   0.66283   0.00000  Uiso   1.00
C982   C     0.40975   0.96780   0.65031   0.00000  Uiso   1.00
H983   H     0.38838   0.97354   0.68177   0.00000  Uiso   1.00
H984   H     0.40159   0.93354   0.63665   0.00000  Uiso   1.00
C985   C     0.38959   0.50005   0.61022   0.00000  Uiso   1.00
H986   H     0.40938   0.99481   0.57784   0.00000  Uiso   1.00
H987   H     0.34741   0.99473   0.59992   0.00000  Uiso   1.00
H988   H     0.39673   0.53462   0.62301   0.00000  Uiso   1.00
O989   O     0.57345   0.79704   0.64074   0.00000  Uiso   1.00
C990   C     0.61863   0.81160   0.62213   0.00000  Uiso   1.00
H991   H     0.63325   0.78745   0.59742   0.00000  Uiso   1.00
H992   H     0.64988   0.81455   0.65322   0.00000  Uiso   1.00
C993   C     0.61146   0.85782   0.59986   0.00000  Uiso   1.00
H994   H     0.60364   0.88170   0.62809   0.00000  Uiso   1.00
H995   H     0.64720   0.86846   0.58525   0.00000  Uiso   1.00
H996   H     0.57871   0.85842   0.57011   0.00000  Uiso   1.00
O997   O     0.46336   0.67708   0.87006   0.00000  Uiso   1.00
C998   C     0.40861   0.67672   0.86495   0.00000  Uiso   1.00
H999   H     0.39382   0.67318   0.82580   0.00000  Uiso   1.00
H1000  H     0.39115   0.70746   0.87745   0.00000  Uiso   1.00
C1001  C     0.38932   0.63705   0.89182   0.00000  Uiso   1.00
H1002  H     0.40080   0.64064   0.93148   0.00000  Uiso   1.00
H1003  H     0.34654   0.63486   0.88441   0.00000  Uiso   1.00
H1004  H     0.40565   0.60600   0.87960   0.00000  Uiso   1.00
C1005  C     0.40500   0.71725   0.52104   0.00000  Uiso   1.00
H1006  H     0.39888   0.73081   0.98361   0.00000  Uiso   1.00
H1007  H     0.40460   0.68053   0.51983   0.00000  Uiso   1.00
H1008  H     0.37179   0.72820   0.53886   0.00000  Uiso   1.00
C1009  C     0.51794   0.83693   0.96840   0.00000  Uiso   1.00
H1010  H     0.50075   0.83948   0.50258   0.00000  Uiso   1.00
H1011  H     0.55986   0.84496   0.97527   0.00000  Uiso   1.00
H1012  H     0.49869   0.86220   0.94325   0.00000  Uiso   1.00
C1013  C     0.83331   0.66500   0.75008   0.00000  Uiso   1.00
C1014  C     0.83327   0.83507   0.74984   0.00000  Uiso   1.00
C1015  C     0.87062   0.77170   0.55783   0.00000  Uiso   1.00
C1016  C     0.81769   0.71483   0.94584   0.00000  Uiso   1.00
C1017  C     0.87150   0.77217   0.60924   0.00000  Uiso   1.00
C1018  C     0.81600   0.71429   0.89499   0.00000  Uiso   1.00
C1019  C     0.79291   0.73072   0.60053   0.00000  Uiso   1.00
C1020  C     0.84739   0.78789   0.89594   0.00000  Uiso   1.00
C1021  C     0.78820   0.73352   0.54942   0.00000  Uiso   1.00
C1022  C     0.84326   0.79166   0.94602   0.00000  Uiso   1.00
C1023  C     0.82876   0.75326   0.52705   0.00000  Uiso   1.00
C1024  C     0.82949   0.75381   0.97242   0.00000  Uiso   1.00
C1025  C     0.73462   0.74934   0.73764   0.00000  Uiso   1.00
C1026  C     0.93206   0.74992   0.76240   0.00000  Uiso   1.00
C1027  C     0.67937   0.74770   0.73093   0.00000  Uiso   1.00
C1028  C     0.98733   0.75030   0.76927   0.00000  Uiso   1.00
C1029  C     0.80247   0.54728   0.78099   0.00000  Uiso   1.00
C1030  C     0.81330   0.95233   0.70545   0.00000  Uiso   1.00
C1031  C     0.80549   0.59345   0.78237   0.00000  Uiso   1.00
C1032  C     0.81612   0.90613   0.70591   0.00000  Uiso   1.00
C1033  C     0.83250   0.61678   0.74996   0.00000  Uiso   1.00
C1034  C     0.83226   0.88340   0.74930   0.00000  Uiso   1.00
C1035  C     0.85772   0.59385   0.71663   0.00000  Uiso   1.00
C1036  C     0.84696   0.90709   0.79218   0.00000  Uiso   1.00
C1037  C     0.85685   0.54785   0.71647   0.00000  Uiso   1.00
C1038  C     0.84621   0.95303   0.79159   0.00000  Uiso   1.00
C1039  C     0.82951   0.52435   0.74865   0.00000  Uiso   1.00
C1040  C     0.82963   0.97585   0.74841   0.00000  Uiso   1.00
Cu1041 Cu    0.83333   0.74999   0.79821   0.00000  Uiso   1.00
Cu1042 Cu    0.83333   0.75000   0.70178   0.00000  Uiso   1.00
H1043  H     0.99282   0.74413   0.69425   0.00000  Uiso   1.00
H1044  H     0.67388   0.75328   0.80605   0.00000  Uiso   1.00
H1045  H     0.78553   0.61096   0.80780   0.00000  Uiso   1.00
H1046  H     0.80497   0.88811   0.67251   0.00000  Uiso   1.00
H1047  H     0.87890   0.61152   0.69142   0.00000  Uiso   1.00
H1048  H     0.85988   0.89015   0.82599   0.00000  Uiso   1.00
H1049  H     0.87783   0.53052   0.69147   0.00000  Uiso   1.00
H1050  H     0.85893   0.97089   0.82480   0.00000  Uiso   1.00
H1051  H     0.90138   0.78655   0.54080   0.00000  Uiso   1.00
H1052  H     0.80801   0.68482   0.96425   0.00000  Uiso   1.00
H1053  H     0.76259   0.71462   0.61739   0.00000  Uiso   1.00
H1054  H     0.86010   0.81646   0.87700   0.00000  Uiso   1.00
N1055  N     0.83333   0.75001   0.62934   0.00000  Uiso   1.00
N1056  N     0.83333   0.74999   0.87065   0.00000  Uiso   1.00
O1057  O     0.83334   0.68572   0.79071   0.00000  Uiso   1.00
O1058  O     0.83333   0.81427   0.70928   0.00000  Uiso   1.00
O1059  O     0.83334   0.68573   0.70928   0.00000  Uiso   1.00
O1060  O     0.83333   0.81427   0.79072   0.00000  Uiso   1.00
O1061  O     0.75828   0.74999   0.78132   0.00000  Uiso   1.00
O1062  O     0.90839   0.75000   0.71868   0.00000  Uiso   1.00
O1063  O     0.75828   0.75000   0.69988   0.00000  Uiso   1.00
O1064  O     0.90839   0.75000   0.80011   0.00000  Uiso   1.00
O1065  O     0.77458   0.52440   0.81226   0.00000  Uiso   1.00
C1066  C     0.72146   0.52760   0.79478   0.00000  Uiso   1.00
H1067  H     0.71309   0.51618   0.75647   0.00000  Uiso   1.00
H1068  H     0.70813   0.56226   0.79718   0.00000  Uiso   1.00
C1069  C     0.69077   0.99834   0.82557   0.00000  Uiso   1.00
H1070  H     0.69747   0.50933   0.86396   0.00000  Uiso   1.00
H1071  H     0.98224   0.50053   0.81204   0.00000  Uiso   1.00
H1072  H     0.70284   0.96337   0.82355   0.00000  Uiso   1.00
O1073  O     0.79675   0.97488   0.66283   0.00000  Uiso   1.00
C1074  C     0.74308   0.96780   0.65031   0.00000  Uiso   1.00
H1075  H     0.72171   0.97354   0.68177   0.00000  Uiso   1.00
H1076  H     0.73492   0.93354   0.63665   0.00000  Uiso   1.00
C1077  C     0.72292   0.50005   0.61022   0.00000  Uiso   1.00
H1078  H     0.74272   0.99481   0.57784   0.00000  Uiso   1.00
H1079  H     0.68075   0.99473   0.59992   0.00000  Uiso   1.00
H1080  H     0.73006   0.53462   0.62301   0.00000  Uiso   1.00
O1081  O     0.90679   0.79704   0.64074   0.00000  Uiso   1.00
C1082  C     0.95197   0.81160   0.62213   0.00000  Uiso   1.00
H1083  H     0.96658   0.78745   0.59742   0.00000  Uiso   1.00
H1084  H     0.98321   0.81455   0.65322   0.00000  Uiso   1.00
C1085  C     0.94480   0.85782   0.59986   0.00000  Uiso   1.00
H1086  H     0.93698   0.88170   0.62809   0.00000  Uiso   1.00
H1087  H     0.98054   0.86846   0.58525   0.00000  Uiso   1.00
H1088  H     0.91204   0.85842   0.57011   0.00000  Uiso   1.00
O1089  O     0.79669   0.67708   0.87006   0.00000  Uiso   1.00
C1090  C     0.74195   0.67672   0.86495   0.00000  Uiso   1.00
H1091  H     0.72716   0.67318   0.82580   0.00000  Uiso   1.00
H1092  H     0.72448   0.70746   0.87745   0.00000  Uiso   1.00
C1093  C     0.72266   0.63705   0.89182   0.00000  Uiso   1.00
H1094  H     0.73414   0.64064   0.93148   0.00000  Uiso   1.00
H1095  H     0.67988   0.63486   0.88441   0.00000  Uiso   1.00
H1096  H     0.73899   0.60600   0.87960   0.00000  Uiso   1.00
C1097  C     0.73833   0.71725   0.52104   0.00000  Uiso   1.00
H1098  H     0.73221   0.73081   0.98361   0.00000  Uiso   1.00
H1099  H     0.73793   0.68053   0.51983   0.00000  Uiso   1.00
H1100  H     0.70512   0.72820   0.53886   0.00000  Uiso   1.00
C1101  C     0.85127   0.83693   0.96840   0.00000  Uiso   1.00
H1102  H     0.83408   0.83948   0.50258   0.00000  Uiso   1.00
H1103  H     0.89319   0.84496   0.97527   0.00000  Uiso   1.00
H1104  H     0.83202   0.86220   0.94325   0.00000  Uiso   1.00
loop_
_geom_bond_atom_site_label_1
_geom_bond_atom_site_label_2
_geom_bond_distance
_geom_bond_site_symmetry_2
_ccdc_geom_bond_type
C1     C21     1.457   .     S
C1     O47     1.293   .     A
C1     O45     1.296   .     A
C2     O46     1.295   .     A
C2     C22     1.461   .     S
C2     O48     1.295   .     A
C3     H39     1.078   .     S
C3     C5      1.427   .     A
C3     C11     1.406   .     A
C4     H40     1.082   .     S
C4     C6      1.409   .     A
C4     C12     1.403   .     A
C5     O69     1.398   .     S
C5     N43     1.372   .     A
C6     O77     1.378   .     S
C6     N44     1.373   .     A
C7     N43     1.363   .     A
C7     C9      1.412   .     A
C7     H41     1.082   .     S
C8     H42     1.080   .     S
C8     N44     1.367   .     A
C8     C10     1.417   .     A
C9     C85     1.508   .     S
C9     C11     1.421   .     A
C10    C89     1.507   .     S
C10    C12     1.423   .     A
C11    C564    1.522   1_554 S
C12    C563    1.522   .     S
C13    O51     1.288   .     A
C13    O49     1.287   .     A
C13    C15     1.431   .     S
C14    O52     1.288   .     A
C14    C16     1.431   .     S
C14    O50     1.288   .     A
C15    C200    1.333   1_455 S
C15    H215    1.086   1_455 S
C16    C107    1.333   .     S
C16    H124    1.087   .     S
C17    C27     1.408   .     A
C17    O53     1.383   .     S
C17    C19     1.397   .     A
C18    C28     1.407   .     A
C18    O61     1.384   .     S
C18    C20     1.399   .     A
C19    C21     1.399   .     A
C19    H33     1.079   .     S
C20    H34     1.083   .     S
C20    C22     1.402   .     A
C21    C23     1.400   .     A
C22    C24     1.401   .     A
C23    C25     1.390   .     A
C23    H35     1.083   .     S
C24    H36     1.083   .     S
C24    C26     1.388   .     A
C25    H37     1.083   .     S
C25    C27     1.402   .     A
C26    H38     1.083   .     S
C26    C28     1.401   .     A
C27    C304    1.465   1_545 S
C28    C303    1.465   .     S
Cu29   O49     1.955   .     S
Cu29   O48     1.952   .     S
Cu29   O45     1.954   .     S
Cu29   Cu30    2.682   .     S
Cu29   N44     2.015   .     S
Cu29   O52     1.955   .     S
Cu30   O51     1.955   .     S
Cu30   O50     1.955   .     S
Cu30   O47     1.952   .     S
Cu30   N43     2.015   .     S
Cu30   O46     1.954   .     S
H31    C107    1.086   .     S
H32    C200    1.087   1_455 S
O53    C54     1.412   .     S
C54    H56     1.114   .     S
C54    H55     1.115   .     S
C54    C333    1.521   1_545 S
C57    H60     1.111   .     S
C57    C330    1.521   .     S
C57    H334    1.111   .     S
C57    H519    1.111   1_455 S
H58    C333    1.111   1_545 S
H59    C425    1.111   1_545 S
O61    C62     1.413   .     S
C62    H63     1.115   .     S
C62    H64     1.113   .     S
C62    C341    1.520   .     S
C65    H68     1.111   .     S
C65    C338    1.520   1_545 S
C65    H342    1.111   1_545 S
C65    H343    1.111   1_545 S
H66    C341    1.111   .     S
H67    C341    1.111   .     S
O69    C70     1.415   .     S
C70    H71     1.112   .     S
C70    C73     1.527   .     S
C70    H72     1.110   .     S
C73    H74     1.111   .     S
C73    H75     1.110   .     S
C73    H76     1.108   .     S
O77    C78     1.419   .     S
C78    H80     1.118   .     S
C78    H79     1.111   .     S
C78    C81     1.524   .     S
C81    H82     1.109   .     S
C81    H83     1.110   .     S
C81    H84     1.110   .     S
C85    H87     1.110   .     S
C85    H88     1.111   .     S
C85    H638    1.108   1_554 S
H86    C637    1.108   .     S
C89    H91     1.110   .     S
C89    H92     1.111   .     S
C89    H642    1.108   .     S
H90    C641    1.108   1_554 S
C93    C113    1.457   .     S
C93    O139    1.293   .     A
C93    O137    1.296   .     A
C94    O138    1.295   .     A
C94    C114    1.461   .     S
C94    O140    1.295   .     A
C95    H131    1.078   .     S
C95    C97     1.427   .     A
C95    C103    1.406   .     A
C96    H132    1.082   .     S
C96    C98     1.409   .     A
C96    C104    1.403   .     A
C97    O161    1.398   .     S
C97    N135    1.372   .     A
C98    O169    1.378   .     S
C98    N136    1.373   .     A
C99    N135    1.363   .     A
C99    C101    1.412   .     A
C99    H133    1.082   .     S
C100   H134    1.080   .     S
C100   N136    1.367   .     A
C100   C102    1.417   .     A
C101   C177    1.508   .     S
C101   C103    1.421   .     A
C102   C181    1.507   .     S
C102   C104    1.423   .     A
C103   C656    1.522   1_554 S
C104   C655    1.522   .     S
C105   O143    1.288   .     A
C105   O141    1.287   .     A
C105   C107    1.431   .     S
C106   O144    1.288   .     A
C106   C108    1.431   .     S
C106   O142    1.288   .     A
C108   C199    1.333   .     S
C108   H216    1.087   .     S
C109   C119    1.408   .     A
C109   O145    1.383   .     S
C109   C111    1.397   .     A
C110   C120    1.407   .     A
C110   O153    1.384   .     S
C110   C112    1.399   .     A
C111   C113    1.399   .     A
C111   H125    1.079   .     S
C112   H126    1.083   .     S
C112   C114    1.402   .     A
C113   C115    1.400   .     A
C114   C116    1.401   .     A
C115   C117    1.390   .     A
C115   H127    1.083   .     S
C116   H128    1.083   .     S
C116   C118    1.388   .     A
C117   H129    1.083   .     S
C117   C119    1.402   .     A
C118   H130    1.083   .     S
C118   C120    1.401   .     A
C119   C396    1.465   1_545 S
C120   C395    1.465   .     S
Cu121  O141    1.955   .     S
Cu121  O140    1.952   .     S
Cu121  O137    1.954   .     S
Cu121  Cu122   2.682   .     S
Cu121  N136    2.015   .     S
Cu121  O144    1.955   .     S
Cu122  O143    1.955   .     S
Cu122  O142    1.955   .     S
Cu122  O139    1.952   .     S
Cu122  N135    2.015   .     S
Cu122  O138    1.954   .     S
H123   C199    1.086   .     S
O145   C146    1.412   .     S
C146   H148    1.114   .     S
C146   H147    1.115   .     S
C146   C425    1.521   1_545 S
C149   H152    1.111   .     S
C149   C422    1.521   .     S
C149   H426    1.111   .     S
C149   H335    1.111   .     S
H150   C425    1.111   1_545 S
H151   C517    1.111   1_545 S
O153   C154    1.413   .     S
C154   H155    1.115   .     S
C154   H156    1.113   .     S
C154   C433    1.520   .     S
C157   H160    1.111   .     S
C157   C430    1.520   1_545 S
C157   H434    1.111   1_545 S
C157   H435    1.111   1_545 S
H158   C433    1.111   .     S
H159   C433    1.111   .     S
O161   C162    1.415   .     S
C162   H163    1.112   .     S
C162   C165    1.527   .     S
C162   H164    1.110   .     S
C165   H166    1.111   .     S
C165   H167    1.110   .     S
C165   H168    1.108   .     S
O169   C170    1.419   .     S
C170   H172    1.118   .     S
C170   H171    1.111   .     S
C170   C173    1.524   .     S
C173   H174    1.109   .     S
C173   H175    1.110   .     S
C173   H176    1.110   .     S
C177   H179    1.110   .     S
C177   H180    1.111   .     S
C177   H730    1.108   1_554 S
H178   C729    1.108   .     S
C181   H183    1.110   .     S
C181   H184    1.111   .     S
C181   H734    1.108   .     S
H182   C733    1.108   1_554 S
C185   C205    1.457   .     S
C185   O231    1.293   .     A
C185   O229    1.296   .     A
C186   O230    1.295   .     A
C186   C206    1.461   .     S
C186   O232    1.295   .     A
C187   H223    1.078   .     S
C187   C189    1.427   .     A
C187   C195    1.406   .     A
C188   H224    1.082   .     S
C188   C190    1.409   .     A
C188   C196    1.403   .     A
C189   O253    1.398   .     S
C189   N227    1.372   .     A
C190   O261    1.378   .     S
C190   N228    1.373   .     A
C191   N227    1.363   .     A
C191   C193    1.412   .     A
C191   H225    1.082   .     S
C192   H226    1.080   .     S
C192   N228    1.367   .     A
C192   C194    1.417   .     A
C193   C269    1.508   .     S
C193   C195    1.421   .     A
C194   C273    1.507   .     S
C194   C196    1.423   .     A
C195   C748    1.522   1_554 S
C196   C747    1.522   .     S
C197   O235    1.288   .     A
C197   O233    1.287   .     A
C197   C199    1.431   .     S
C198   O236    1.288   .     A
C198   C200    1.431   .     S
C198   O234    1.288   .     A
C200   C15     1.333   1_655 S
C200   H32     1.087   1_655 S
C201   C211    1.408   .     A
C201   O237    1.383   .     S
C201   C203    1.397   .     A
C202   C212    1.407   .     A
C202   O245    1.384   .     S
C202   C204    1.399   .     A
C203   C205    1.399   .     A
C203   H217    1.079   .     S
C204   H218    1.083   .     S
C204   C206    1.402   .     A
C205   C207    1.400   .     A
C206   C208    1.401   .     A
C207   C209    1.390   .     A
C207   H219    1.083   .     S
C208   H220    1.083   .     S
C208   C210    1.388   .     A
C209   H221    1.083   .     S
C209   C211    1.402   .     A
C210   H222    1.083   .     S
C210   C212    1.401   .     A
C211   C488    1.465   1_545 S
C212   C487    1.465   .     S
Cu213  O233    1.955   .     S
Cu213  O232    1.952   .     S
Cu213  O229    1.954   .     S
Cu213  Cu214   2.682   .     S
Cu213  N228    2.015   .     S
Cu213  O236    1.955   .     S
Cu214  O235    1.955   .     S
Cu214  O234    1.955   .     S
Cu214  O231    1.952   .     S
Cu214  N227    2.015   .     S
Cu214  O230    1.954   .     S
H215   C15     1.086   1_655 S
O237   C238    1.412   .     S
C238   H240    1.114   .     S
C238   H239    1.115   .     S
C238   C517    1.521   1_545 S
C241   H244    1.111   .     S
C241   C514    1.521   .     S
C241   H518    1.111   .     S
C241   H427    1.111   .     S
H242   C517    1.111   1_545 S
H243   C333    1.111   1_645 S
O245   C246    1.413   .     S
C246   H247    1.115   .     S
C246   H248    1.113   .     S
C246   C525    1.520   .     S
C249   H252    1.111   .     S
C249   C522    1.520   1_545 S
C249   H526    1.111   1_545 S
C249   H527    1.111   1_545 S
H250   C525    1.111   .     S
H251   C525    1.111   .     S
O253   C254    1.415   .     S
C254   H255    1.112   .     S
C254   C257    1.527   .     S
C254   H256    1.110   .     S
C257   H258    1.111   .     S
C257   H259    1.110   .     S
C257   H260    1.108   .     S
O261   C262    1.419   .     S
C262   H264    1.118   .     S
C262   H263    1.111   .     S
C262   C265    1.524   .     S
C265   H266    1.109   .     S
C265   H267    1.110   .     S
C265   H268    1.110   .     S
C269   H271    1.110   .     S
C269   H272    1.111   .     S
C269   H822    1.108   1_554 S
H270   C821    1.108   .     S
C273   H275    1.110   .     S
C273   H276    1.111   .     S
C273   H826    1.108   .     S
H274   C825    1.108   1_554 S
C277   C297    1.457   .     S
C277   O323    1.293   .     A
C277   O321    1.296   .     A
C278   O322    1.295   .     A
C278   C298    1.461   .     S
C278   O324    1.295   .     A
C279   H315    1.078   .     S
C279   C281    1.427   .     A
C279   C287    1.406   .     A
C280   H316    1.082   .     S
C280   C282    1.409   .     A
C280   C288    1.403   .     A
C281   O345    1.398   .     S
C281   N319    1.372   .     A
C282   O353    1.378   .     S
C282   N320    1.373   .     A
C283   N319    1.363   .     A
C283   C285    1.412   .     A
C283   H317    1.082   .     S
C284   H318    1.080   .     S
C284   N320    1.367   .     A
C284   C286    1.417   .     A
C285   C361    1.508   .     S
C285   C287    1.421   .     A
C286   C365    1.507   .     S
C286   C288    1.423   .     A
C287   C840    1.522   1_554 S
C288   C839    1.522   .     S
C289   O327    1.288   .     A
C289   O325    1.287   .     A
C289   C291    1.431   .     S
C290   O328    1.288   .     A
C290   C292    1.431   .     S
C290   O326    1.288   .     A
C291   C476    1.333   1_455 S
C291   H491    1.086   1_455 S
C292   C383    1.333   .     S
C292   H400    1.087   .     S
C293   C303    1.408   .     A
C293   O329    1.383   .     S
C293   C295    1.397   .     A
C294   C304    1.407   .     A
C294   O337    1.384   .     S
C294   C296    1.399   .     A
C295   C297    1.399   .     A
C295   H309    1.079   .     S
C296   H310    1.083   .     S
C296   C298    1.402   .     A
C297   C299    1.400   .     A
C298   C300    1.401   .     A
C299   C301    1.390   .     A
C299   H311    1.083   .     S
C300   H312    1.083   .     S
C300   C302    1.388   .     A
C301   H313    1.083   .     S
C301   C303    1.402   .     A
C302   H314    1.083   .     S
C302   C304    1.401   .     A
C304   C27     1.465   1_565 S
Cu305  O325    1.955   .     S
Cu305  O324    1.952   .     S
Cu305  O321    1.954   .     S
Cu305  Cu306   2.682   .     S
Cu305  N320    2.015   .     S
Cu305  O328    1.955   .     S
Cu306  O327    1.955   .     S
Cu306  O326    1.955   .     S
Cu306  O323    1.952   .     S
Cu306  N319    2.015   .     S
Cu306  O322    1.954   .     S
H307   C383    1.086   .     S
H308   C476    1.087   1_455 S
O329   C330    1.412   .     S
C330   H332    1.114   .     S
C330   H331    1.115   .     S
C333   H336    1.111   .     S
C333   C54     1.521   1_565 S
C333   H58     1.111   1_565 S
C333   H243    1.111   1_465 S
O337   C338    1.413   .     S
C338   H339    1.115   .     S
C338   H340    1.113   .     S
C338   C65     1.520   1_565 S
C341   H344    1.111   .     S
H342   C65     1.111   1_565 S
H343   C65     1.111   1_565 S
O345   C346    1.415   .     S
C346   H347    1.112   .     S
C346   C349    1.527   .     S
C346   H348    1.110   .     S
C349   H350    1.111   .     S
C349   H351    1.110   .     S
C349   H352    1.108   .     S
O353   C354    1.419   .     S
C354   H356    1.118   .     S
C354   H355    1.111   .     S
C354   C357    1.524   .     S
C357   H358    1.109   .     S
C357   H359    1.110   .     S
C357   H360    1.110   .     S
C361   H363    1.110   .     S
C361   H364    1.111   .     S
C361   H914    1.108   1_554 S
H362   C913    1.108   .     S
C365   H367    1.110   .     S
C365   H368    1.111   .     S
C365   H918    1.108   .     S
H366   C917    1.108   1_554 S
C369   C389    1.457   .     S
C369   O415    1.293   .     A
C369   O413    1.296   .     A
C370   O414    1.295   .     A
C370   C390    1.461   .     S
C370   O416    1.295   .     A
C371   H407    1.078   .     S
C371   C373    1.427   .     A
C371   C379    1.406   .     A
C372   H408    1.082   .     S
C372   C374    1.409   .     A
C372   C380    1.403   .     A
C373   O437    1.398   .     S
C373   N411    1.372   .     A
C374   O445    1.378   .     S
C374   N412    1.373   .     A
C375   N411    1.363   .     A
C375   C377    1.412   .     A
C375   H409    1.082   .     S
C376   H410    1.080   .     S
C376   N412    1.367   .     A
C376   C378    1.417   .     A
C377   C453    1.508   .     S
C377   C379    1.421   .     A
C378   C457    1.507   .     S
C378   C380    1.423   .     A
C379   C932    1.522   1_554 S
C380   C931    1.522   .     S
C381   O419    1.288   .     A
C381   O417    1.287   .     A
C381   C383    1.431   .     S
C382   O420    1.288   .     A
C382   C384    1.431   .     S
C382   O418    1.288   .     A
C384   C475    1.333   .     S
C384   H492    1.087   .     S
C385   C395    1.408   .     A
C385   O421    1.383   .     S
C385   C387    1.397   .     A
C386   C396    1.407   .     A
C386   O429    1.384   .     S
C386   C388    1.399   .     A
C387   C389    1.399   .     A
C387   H401    1.079   .     S
C388   H402    1.083   .     S
C388   C390    1.402   .     A
C389   C391    1.400   .     A
C390   C392    1.401   .     A
C391   C393    1.390   .     A
C391   H403    1.083   .     S
C392   H404    1.083   .     S
C392   C394    1.388   .     A
C393   H405    1.083   .     S
C393   C395    1.402   .     A
C394   H406    1.083   .     S
C394   C396    1.401   .     A
C396   C119    1.465   1_565 S
Cu397  O417    1.955   .     S
Cu397  O416    1.952   .     S
Cu397  O413    1.954   .     S
Cu397  Cu398   2.682   .     S
Cu397  N412    2.015   .     S
Cu397  O420    1.955   .     S
Cu398  O419    1.955   .     S
Cu398  O418    1.955   .     S
Cu398  O415    1.952   .     S
Cu398  N411    2.015   .     S
Cu398  O414    1.954   .     S
H399   C475    1.086   .     S
O421   C422    1.412   .     S
C422   H424    1.114   .     S
C422   H423    1.115   .     S
C425   H428    1.111   .     S
C425   C146    1.521   1_565 S
C425   H150    1.111   1_565 S
C425   H59     1.111   1_565 S
O429   C430    1.413   .     S
C430   H431    1.115   .     S
C430   H432    1.113   .     S
C430   C157    1.520   1_565 S
C433   H436    1.111   .     S
H434   C157    1.111   1_565 S
H435   C157    1.111   1_565 S
O437   C438    1.415   .     S
C438   H439    1.112   .     S
C438   C441    1.527   .     S
C438   H440    1.110   .     S
C441   H442    1.111   .     S
C441   H443    1.110   .     S
C441   H444    1.108   .     S
O445   C446    1.419   .     S
C446   H448    1.118   .     S
C446   H447    1.111   .     S
C446   C449    1.524   .     S
C449   H450    1.109   .     S
C449   H451    1.110   .     S
C449   H452    1.110   .     S
C453   H455    1.110   .     S
C453   H456    1.111   .     S
C453   H1006   1.108   1_554 S
H454   C1005   1.108   .     S
C457   H459    1.110   .     S
C457   H460    1.111   .     S
C457   H1010   1.108   .     S
H458   C1009   1.108   1_554 S
C461   C481    1.457   .     S
C461   O507    1.293   .     A
C461   O505    1.296   .     A
C462   O506    1.295   .     A
C462   C482    1.461   .     S
C462   O508    1.295   .     A
C463   H499    1.078   .     S
C463   C465    1.427   .     A
C463   C471    1.406   .     A
C464   H500    1.082   .     S
C464   C466    1.409   .     A
C464   C472    1.403   .     A
C465   O529    1.398   .     S
C465   N503    1.372   .     A
C466   O537    1.378   .     S
C466   N504    1.373   .     A
C467   N503    1.363   .     A
C467   C469    1.412   .     A
C467   H501    1.082   .     S
C468   H502    1.080   .     S
C468   N504    1.367   .     A
C468   C470    1.417   .     A
C469   C545    1.508   .     S
C469   C471    1.421   .     A
C470   C549    1.507   .     S
C470   C472    1.423   .     A
C471   C1024   1.522   1_554 S
C472   C1023   1.522   .     S
C473   O511    1.288   .     A
C473   O509    1.287   .     A
C473   C475    1.431   .     S
C474   O512    1.288   .     A
C474   C476    1.431   .     S
C474   O510    1.288   .     A
C476   C291    1.333   1_655 S
C476   H308    1.087   1_655 S
C477   C487    1.408   .     A
C477   O513    1.383   .     S
C477   C479    1.397   .     A
C478   C488    1.407   .     A
C478   O521    1.384   .     S
C478   C480    1.399   .     A
C479   C481    1.399   .     A
C479   H493    1.079   .     S
C480   H494    1.083   .     S
C480   C482    1.402   .     A
C481   C483    1.400   .     A
C482   C484    1.401   .     A
C483   C485    1.390   .     A
C483   H495    1.083   .     S
C484   H496    1.083   .     S
C484   C486    1.388   .     A
C485   H497    1.083   .     S
C485   C487    1.402   .     A
C486   H498    1.083   .     S
C486   C488    1.401   .     A
C488   C211    1.465   1_565 S
Cu489  O509    1.955   .     S
Cu489  O508    1.952   .     S
Cu489  O505    1.954   .     S
Cu489  Cu490   2.682   .     S
Cu489  N504    2.015   .     S
Cu489  O512    1.955   .     S
Cu490  O511    1.955   .     S
Cu490  O510    1.955   .     S
Cu490  O507    1.952   .     S
Cu490  N503    2.015   .     S
Cu490  O506    1.954   .     S
H491   C291    1.086   1_655 S
O513   C514    1.412   .     S
C514   H516    1.114   .     S
C514   H515    1.115   .     S
C517   H520    1.111   .     S
C517   C238    1.521   1_565 S
C517   H242    1.111   1_565 S
C517   H151    1.111   1_565 S
H519   C57     1.111   1_655 S
O521   C522    1.413   .     S
C522   H523    1.115   .     S
C522   H524    1.113   .     S
C522   C249    1.520   1_565 S
C525   H528    1.111   .     S
H526   C249    1.111   1_565 S
H527   C249    1.111   1_565 S
O529   C530    1.415   .     S
C530   H531    1.112   .     S
C530   C533    1.527   .     S
C530   H532    1.110   .     S
C533   H534    1.111   .     S
C533   H535    1.110   .     S
C533   H536    1.108   .     S
O537   C538    1.419   .     S
C538   H540    1.118   .     S
C538   H539    1.111   .     S
C538   C541    1.524   .     S
C541   H542    1.109   .     S
C541   H543    1.110   .     S
C541   H544    1.110   .     S
C545   H547    1.110   .     S
C545   H548    1.111   .     S
C545   H1098   1.108   1_554 S
H546   C1097   1.108   .     S
C549   H551    1.110   .     S
C549   H552    1.111   .     S
C549   H1102   1.108   .     S
H550   C1101   1.108   1_554 S
C553   C573    1.457   .     S
C553   O599    1.293   .     A
C553   O597    1.296   .     A
C554   O598    1.295   .     A
C554   C574    1.461   .     S
C554   O600    1.295   .     A
C555   H591    1.078   .     S
C555   C557    1.427   .     A
C555   C563    1.406   .     A
C556   H592    1.082   .     S
C556   C558    1.409   .     A
C556   C564    1.403   .     A
C557   O621    1.398   .     S
C557   N595    1.372   .     A
C558   O629    1.378   .     S
C558   N596    1.373   .     A
C559   N595    1.363   .     A
C559   C561    1.412   .     A
C559   H593    1.082   .     S
C560   H594    1.080   .     S
C560   N596    1.367   .     A
C560   C562    1.417   .     A
C561   C637    1.508   .     S
C561   C563    1.421   .     A
C562   C641    1.507   .     S
C562   C564    1.423   .     A
C564   C11     1.522   1_556 S
C565   O603    1.288   .     A
C565   O601    1.287   .     A
C565   C567    1.431   .     S
C566   O604    1.288   .     A
C566   C568    1.431   .     S
C566   O602    1.288   .     A
C567   C752    1.333   1_455 S
C567   H767    1.086   1_455 S
C568   C659    1.333   .     S
C568   H676    1.087   .     S
C569   C579    1.408   .     A
C569   O605    1.383   .     S
C569   C571    1.397   .     A
C570   C580    1.407   .     A
C570   O613    1.384   .     S
C570   C572    1.399   .     A
C571   C573    1.399   .     A
C571   H585    1.079   .     S
C572   H586    1.083   .     S
C572   C574    1.402   .     A
C573   C575    1.400   .     A
C574   C576    1.401   .     A
C575   C577    1.390   .     A
C575   H587    1.083   .     S
C576   H588    1.083   .     S
C576   C578    1.388   .     A
C577   H589    1.083   .     S
C577   C579    1.402   .     A
C578   H590    1.083   .     S
C578   C580    1.401   .     A
C579   C856    1.465   1_545 S
C580   C855    1.465   .     S
Cu581  O601    1.955   .     S
Cu581  O600    1.952   .     S
Cu581  O597    1.954   .     S
Cu581  Cu582   2.682   .     S
Cu581  N596    2.015   .     S
Cu581  O604    1.955   .     S
Cu582  O603    1.955   .     S
Cu582  O602    1.955   .     S
Cu582  O599    1.952   .     S
Cu582  N595    2.015   .     S
Cu582  O598    1.954   .     S
H583   C659    1.086   .     S
H584   C752    1.087   1_455 S
O605   C606    1.412   .     S
C606   H608    1.114   .     S
C606   H607    1.115   .     S
C606   C885    1.521   1_545 S
C609   H612    1.111   .     S
C609   C882    1.521   .     S
C609   H886    1.111   .     S
C609   H1071   1.111   1_455 S
H610   C885    1.111   1_545 S
H611   C977    1.111   1_545 S
O613   C614    1.413   .     S
C614   H615    1.115   .     S
C614   H616    1.113   .     S
C614   C893    1.520   .     S
C617   H620    1.111   .     S
C617   C890    1.520   1_545 S
C617   H894    1.111   1_545 S
C617   H895    1.111   1_545 S
H618   C893    1.111   .     S
H619   C893    1.111   .     S
O621   C622    1.415   .     S
C622   H623    1.112   .     S
C622   C625    1.527   .     S
C622   H624    1.110   .     S
C625   H626    1.111   .     S
C625   H627    1.110   .     S
C625   H628    1.108   .     S
O629   C630    1.419   .     S
C630   H632    1.118   .     S
C630   H631    1.111   .     S
C630   C633    1.524   .     S
C633   H634    1.109   .     S
C633   H635    1.110   .     S
C633   H636    1.110   .     S
C637   H639    1.110   .     S
C637   H640    1.111   .     S
H638   C85     1.108   1_556 S
C641   H643    1.110   .     S
C641   H644    1.111   .     S
C641   H90     1.108   1_556 S
C645   C665    1.457   .     S
C645   O691    1.293   .     A
C645   O689    1.296   .     A
C646   O690    1.295   .     A
C646   C666    1.461   .     S
C646   O692    1.295   .     A
C647   H683    1.078   .     S
C647   C649    1.427   .     A
C647   C655    1.406   .     A
C648   H684    1.082   .     S
C648   C650    1.409   .     A
C648   C656    1.403   .     A
C649   O713    1.398   .     S
C649   N687    1.372   .     A
C650   O721    1.378   .     S
C650   N688    1.373   .     A
C651   N687    1.363   .     A
C651   C653    1.412   .     A
C651   H685    1.082   .     S
C652   H686    1.080   .     S
C652   N688    1.367   .     A
C652   C654    1.417   .     A
C653   C729    1.508   .     S
C653   C655    1.421   .     A
C654   C733    1.507   .     S
C654   C656    1.423   .     A
C656   C103    1.522   1_556 S
C657   O695    1.288   .     A
C657   O693    1.287   .     A
C657   C659    1.431   .     S
C658   O696    1.288   .     A
C658   C660    1.431   .     S
C658   O694    1.288   .     A
C660   C751    1.333   .     S
C660   H768    1.087   .     S
C661   C671    1.408   .     A
C661   O697    1.383   .     S
C661   C663    1.397   .     A
C662   C672    1.407   .     A
C662   O705    1.384   .     S
C662   C664    1.399   .     A
C663   C665    1.399   .     A
C663   H677    1.079   .     S
C664   H678    1.083   .     S
C664   C666    1.402   .     A
C665   C667    1.400   .     A
C666   C668    1.401   .     A
C667   C669    1.390   .     A
C667   H679    1.083   .     S
C668   H680    1.083   .     S
C668   C670    1.388   .     A
C669   H681    1.083   .     S
C669   C671    1.402   .     A
C670   H682    1.083   .     S
C670   C672    1.401   .     A
C671   C948    1.465   1_545 S
C672   C947    1.465   .     S
Cu673  O693    1.955   .     S
Cu673  O692    1.952   .     S
Cu673  O689    1.954   .     S
Cu673  Cu674   2.682   .     S
Cu673  N688    2.015   .     S
Cu673  O696    1.955   .     S
Cu674  O695    1.955   .     S
Cu674  O694    1.955   .     S
Cu674  O691    1.952   .     S
Cu674  N687    2.015   .     S
Cu674  O690    1.954   .     S
H675   C751    1.086   .     S
O697   C698    1.412   .     S
C698   H700    1.114   .     S
C698   H699    1.115   .     S
C698   C977    1.521   1_545 S
C701   H704    1.111   .     S
C701   C974    1.521   .     S
C701   H978    1.111   .     S
C701   H887    1.111   .     S
H702   C977    1.111   1_545 S
H703   C1069   1.111   1_545 S
O705   C706    1.413   .     S
C706   H707    1.115   .     S
C706   H708    1.113   .     S
C706   C985    1.520   .     S
C709   H712    1.111   .     S
C709   C982    1.520   1_545 S
C709   H986    1.111   1_545 S
C709   H987    1.111   1_545 S
H710   C985    1.111   .     S
H711   C985    1.111   .     S
O713   C714    1.415   .     S
C714   H715    1.112   .     S
C714   C717    1.527   .     S
C714   H716    1.110   .     S
C717   H718    1.111   .     S
C717   H719    1.110   .     S
C717   H720    1.108   .     S
O721   C722    1.419   .     S
C722   H724    1.118   .     S
C722   H723    1.111   .     S
C722   C725    1.524   .     S
C725   H726    1.109   .     S
C725   H727    1.110   .     S
C725   H728    1.110   .     S
C729   H731    1.110   .     S
C729   H732    1.111   .     S
H730   C177    1.108   1_556 S
C733   H735    1.110   .     S
C733   H736    1.111   .     S
C733   H182    1.108   1_556 S
C737   C757    1.457   .     S
C737   O783    1.293   .     A
C737   O781    1.296   .     A
C738   O782    1.295   .     A
C738   C758    1.461   .     S
C738   O784    1.295   .     A
C739   H775    1.078   .     S
C739   C741    1.427   .     A
C739   C747    1.406   .     A
C740   H776    1.082   .     S
C740   C742    1.409   .     A
C740   C748    1.403   .     A
C741   O805    1.398   .     S
C741   N779    1.372   .     A
C742   O813    1.378   .     S
C742   N780    1.373   .     A
C743   N779    1.363   .     A
C743   C745    1.412   .     A
C743   H777    1.082   .     S
C744   H778    1.080   .     S
C744   N780    1.367   .     A
C744   C746    1.417   .     A
C745   C821    1.508   .     S
C745   C747    1.421   .     A
C746   C825    1.507   .     S
C746   C748    1.423   .     A
C748   C195    1.522   1_556 S
C749   O787    1.288   .     A
C749   O785    1.287   .     A
C749   C751    1.431   .     S
C750   O788    1.288   .     A
C750   C752    1.431   .     S
C750   O786    1.288   .     A
C752   C567    1.333   1_655 S
C752   H584    1.087   1_655 S
C753   C763    1.408   .     A
C753   O789    1.383   .     S
C753   C755    1.397   .     A
C754   C764    1.407   .     A
C754   O797    1.384   .     S
C754   C756    1.399   .     A
C755   C757    1.399   .     A
C755   H769    1.079   .     S
C756   H770    1.083   .     S
C756   C758    1.402   .     A
C757   C759    1.400   .     A
C758   C760    1.401   .     A
C759   C761    1.390   .     A
C759   H771    1.083   .     S
C760   H772    1.083   .     S
C760   C762    1.388   .     A
C761   H773    1.083   .     S
C761   C763    1.402   .     A
C762   H774    1.083   .     S
C762   C764    1.401   .     A
C763   C1040   1.465   1_545 S
C764   C1039   1.465   .     S
Cu765  O785    1.955   .     S
Cu765  O784    1.952   .     S
Cu765  O781    1.954   .     S
Cu765  Cu766   2.682   .     S
Cu765  N780    2.015   .     S
Cu765  O788    1.955   .     S
Cu766  O787    1.955   .     S
Cu766  O786    1.955   .     S
Cu766  O783    1.952   .     S
Cu766  N779    2.015   .     S
Cu766  O782    1.954   .     S
H767   C567    1.086   1_655 S
O789   C790    1.412   .     S
C790   H792    1.114   .     S
C790   H791    1.115   .     S
C790   C1069   1.521   1_545 S
C793   H796    1.111   .     S
C793   C1066   1.521   .     S
C793   H1070   1.111   .     S
C793   H979    1.111   .     S
H794   C1069   1.111   1_545 S
H795   C885    1.111   1_645 S
O797   C798    1.413   .     S
C798   H799    1.115   .     S
C798   H800    1.113   .     S
C798   C1077   1.520   .     S
C801   H804    1.111   .     S
C801   C1074   1.520   1_545 S
C801   H1078   1.111   1_545 S
C801   H1079   1.111   1_545 S
H802   C1077   1.111   .     S
H803   C1077   1.111   .     S
O805   C806    1.415   .     S
C806   H807    1.112   .     S
C806   C809    1.527   .     S
C806   H808    1.110   .     S
C809   H810    1.111   .     S
C809   H811    1.110   .     S
C809   H812    1.108   .     S
O813   C814    1.419   .     S
C814   H816    1.118   .     S
C814   H815    1.111   .     S
C814   C817    1.524   .     S
C817   H818    1.109   .     S
C817   H819    1.110   .     S
C817   H820    1.110   .     S
C821   H823    1.110   .     S
C821   H824    1.111   .     S
H822   C269    1.108   1_556 S
C825   H827    1.110   .     S
C825   H828    1.111   .     S
C825   H274    1.108   1_556 S
C829   C849    1.457   .     S
C829   O875    1.293   .     A
C829   O873    1.296   .     A
C830   O874    1.295   .     A
C830   C850    1.461   .     S
C830   O876    1.295   .     A
C831   H867    1.078   .     S
C831   C833    1.427   .     A
C831   C839    1.406   .     A
C832   H868    1.082   .     S
C832   C834    1.409   .     A
C832   C840    1.403   .     A
C833   O897    1.398   .     S
C833   N871    1.372   .     A
C834   O905    1.378   .     S
C834   N872    1.373   .     A
C835   N871    1.363   .     A
C835   C837    1.412   .     A
C835   H869    1.082   .     S
C836   H870    1.080   .     S
C836   N872    1.367   .     A
C836   C838    1.417   .     A
C837   C913    1.508   .     S
C837   C839    1.421   .     A
C838   C917    1.507   .     S
C838   C840    1.423   .     A
C840   C287    1.522   1_556 S
C841   O879    1.288   .     A
C841   O877    1.287   .     A
C841   C843    1.431   .     S
C842   O880    1.288   .     A
C842   C844    1.431   .     S
C842   O878    1.288   .     A
C843   C1028   1.333   1_455 S
C843   H1043   1.086   1_455 S
C844   C935    1.333   .     S
C844   H952    1.087   .     S
C845   C855    1.408   .     A
C845   O881    1.383   .     S
C845   C847    1.397   .     A
C846   C856    1.407   .     A
C846   O889    1.384   .     S
C846   C848    1.399   .     A
C847   C849    1.399   .     A
C847   H861    1.079   .     S
C848   H862    1.083   .     S
C848   C850    1.402   .     A
C849   C851    1.400   .     A
C850   C852    1.401   .     A
C851   C853    1.390   .     A
C851   H863    1.083   .     S
C852   H864    1.083   .     S
C852   C854    1.388   .     A
C853   H865    1.083   .     S
C853   C855    1.402   .     A
C854   H866    1.083   .     S
C854   C856    1.401   .     A
C856   C579    1.465   1_565 S
Cu857  O877    1.955   .     S
Cu857  O876    1.952   .     S
Cu857  O873    1.954   .     S
Cu857  Cu858   2.682   .     S
Cu857  N872    2.015   .     S
Cu857  O880    1.955   .     S
Cu858  O879    1.955   .     S
Cu858  O878    1.955   .     S
Cu858  O875    1.952   .     S
Cu858  N871    2.015   .     S
Cu858  O874    1.954   .     S
H859   C935    1.086   .     S
H860   C1028   1.087   1_455 S
O881   C882    1.412   .     S
C882   H884    1.114   .     S
C882   H883    1.115   .     S
C885   H888    1.111   .     S
C885   C606    1.521   1_565 S
C885   H610    1.111   1_565 S
C885   H795    1.111   1_465 S
O889   C890    1.413   .     S
C890   H891    1.115   .     S
C890   H892    1.113   .     S
C890   C617    1.520   1_565 S
C893   H896    1.111   .     S
H894   C617    1.111   1_565 S
H895   C617    1.111   1_565 S
O897   C898    1.415   .     S
C898   H899    1.112   .     S
C898   C901    1.527   .     S
C898   H900    1.110   .     S
C901   H902    1.111   .     S
C901   H903    1.110   .     S
C901   H904    1.108   .     S
O905   C906    1.419   .     S
C906   H908    1.118   .     S
C906   H907    1.111   .     S
C906   C909    1.524   .     S
C909   H910    1.109   .     S
C909   H911    1.110   .     S
C909   H912    1.110   .     S
C913   H915    1.110   .     S
C913   H916    1.111   .     S
H914   C361    1.108   1_556 S
C917   H919    1.110   .     S
C917   H920    1.111   .     S
C917   H366    1.108   1_556 S
C921   C941    1.457   .     S
C921   O967    1.293   .     A
C921   O965    1.296   .     A
C922   O966    1.295   .     A
C922   C942    1.461   .     S
C922   O968    1.295   .     A
C923   H959    1.078   .     S
C923   C925    1.427   .     A
C923   C931    1.406   .     A
C924   H960    1.082   .     S
C924   C926    1.409   .     A
C924   C932    1.403   .     A
C925   O989    1.398   .     S
C925   N963    1.372   .     A
C926   O997    1.378   .     S
C926   N964    1.373   .     A
C927   N963    1.363   .     A
C927   C929    1.412   .     A
C927   H961    1.082   .     S
C928   H962    1.080   .     S
C928   N964    1.367   .     A
C928   C930    1.417   .     A
C929   C1005   1.508   .     S
C929   C931    1.421   .     A
C930   C1009   1.507   .     S
C930   C932    1.423   .     A
C932   C379    1.522   1_556 S
C933   O971    1.288   .     A
C933   O969    1.287   .     A
C933   C935    1.431   .     S
C934   O972    1.288   .     A
C934   C936    1.431   .     S
C934   O970    1.288   .     A
C936   C1027   1.333   .     S
C936   H1044   1.087   .     S
C937   C947    1.408   .     A
C937   O973    1.383   .     S
C937   C939    1.397   .     A
C938   C948    1.407   .     A
C938   O981    1.384   .     S
C938   C940    1.399   .     A
C939   C941    1.399   .     A
C939   H953    1.079   .     S
C940   H954    1.083   .     S
C940   C942    1.402   .     A
C941   C943    1.400   .     A
C942   C944    1.401   .     A
C943   C945    1.390   .     A
C943   H955    1.083   .     S
C944   H956    1.083   .     S
C944   C946    1.388   .     A
C945   H957    1.083   .     S
C945   C947    1.402   .     A
C946   H958    1.083   .     S
C946   C948    1.401   .     A
C948   C671    1.465   1_565 S
Cu949  O969    1.955   .     S
Cu949  O968    1.952   .     S
Cu949  O965    1.954   .     S
Cu949  Cu950   2.682   .     S
Cu949  N964    2.015   .     S
Cu949  O972    1.955   .     S
Cu950  O971    1.955   .     S
Cu950  O970    1.955   .     S
Cu950  O967    1.952   .     S
Cu950  N963    2.015   .     S
Cu950  O966    1.954   .     S
H951   C1027   1.086   .     S
O973   C974    1.412   .     S
C974   H976    1.114   .     S
C974   H975    1.115   .     S
C977   H980    1.111   .     S
C977   C698    1.521   1_565 S
C977   H702    1.111   1_565 S
C977   H611    1.111   1_565 S
O981   C982    1.413   .     S
C982   H983    1.115   .     S
C982   H984    1.113   .     S
C982   C709    1.520   1_565 S
C985   H988    1.111   .     S
H986   C709    1.111   1_565 S
H987   C709    1.111   1_565 S
O989   C990    1.415   .     S
C990   H991    1.112   .     S
C990   C993    1.527   .     S
C990   H992    1.110   .     S
C993   H994    1.111   .     S
C993   H995    1.110   .     S
C993   H996    1.108   .     S
O997   C998    1.419   .     S
C998   H1000   1.118   .     S
C998   H999    1.111   .     S
C998   C1001   1.524   .     S
C1001  H1002   1.109   .     S
C1001  H1003   1.110   .     S
C1001  H1004   1.110   .     S
C1005  H1007   1.110   .     S
C1005  H1008   1.111   .     S
H1006  C453    1.108   1_556 S
C1009  H1011   1.110   .     S
C1009  H1012   1.111   .     S
C1009  H458    1.108   1_556 S
C1013  C1033   1.457   .     S
C1013  O1059   1.293   .     A
C1013  O1057   1.296   .     A
C1014  O1058   1.295   .     A
C1014  C1034   1.461   .     S
C1014  O1060   1.295   .     A
C1015  H1051   1.078   .     S
C1015  C1017   1.427   .     A
C1015  C1023   1.406   .     A
C1016  H1052   1.082   .     S
C1016  C1018   1.409   .     A
C1016  C1024   1.403   .     A
C1017  O1081   1.398   .     S
C1017  N1055   1.372   .     A
C1018  O1089   1.378   .     S
C1018  N1056   1.373   .     A
C1019  N1055   1.363   .     A
C1019  C1021   1.412   .     A
C1019  H1053   1.082   .     S
C1020  H1054   1.080   .     S
C1020  N1056   1.367   .     A
C1020  C1022   1.417   .     A
C1021  C1097   1.508   .     S
C1021  C1023   1.421   .     A
C1022  C1101   1.507   .     S
C1022  C1024   1.423   .     A
C1024  C471    1.522   1_556 S
C1025  O1063   1.288   .     A
C1025  O1061   1.287   .     A
C1025  C1027   1.431   .     S
C1026  O1064   1.288   .     A
C1026  C1028   1.431   .     S
C1026  O1062   1.288   .     A
C1028  C843    1.333   1_655 S
C1028  H860    1.087   1_655 S
C1029  C1039   1.408   .     A
C1029  O1065   1.383   .     S
C1029  C1031   1.397   .     A
C1030  C1040   1.407   .     A
C1030  O1073   1.384   .     S
C1030  C1032   1.399   .     A
C1031  C1033   1.399   .     A
C1031  H1045   1.079   .     S
C1032  H1046   1.083   .     S
C1032  C1034   1.402   .     A
C1033  C1035   1.400   .     A
C1034  C1036   1.401   .     A
C1035  C1037   1.390   .     A
C1035  H1047   1.083   .     S
C1036  H1048   1.083   .     S
C1036  C1038   1.388   .     A
C1037  H1049   1.083   .     S
C1037  C1039   1.402   .     A
C1038  H1050   1.083   .     S
C1038  C1040   1.401   .     A
C1040  C763    1.465   1_565 S
Cu1041 O1061   1.955   .     S
Cu1041 O1060   1.952   .     S
Cu1041 O1057   1.954   .     S
Cu1041 Cu1042  2.682   .     S
Cu1041 N1056   2.015   .     S
Cu1041 O1064   1.955   .     S
Cu1042 O1063   1.955   .     S
Cu1042 O1062   1.955   .     S
Cu1042 O1059   1.952   .     S
Cu1042 N1055   2.015   .     S
Cu1042 O1058   1.954   .     S
H1043  C843    1.086   1_655 S
O1065  C1066   1.412   .     S
C1066  H1068   1.114   .     S
C1066  H1067   1.115   .     S
C1069  H1072   1.111   .     S
C1069  C790    1.521   1_565 S
C1069  H794    1.111   1_565 S
C1069  H703    1.111   1_565 S
H1071  C609    1.111   1_655 S
O1073  C1074   1.413   .     S
C1074  H1075   1.115   .     S
C1074  H1076   1.113   .     S
C1074  C801    1.520   1_565 S
C1077  H1080   1.111   .     S
H1078  C801    1.111   1_565 S
H1079  C801    1.111   1_565 S
O1081  C1082   1.415   .     S
C1082  H1083   1.112   .     S
C1082  C1085   1.527   .     S
C1082  H1084   1.110   .     S
C1085  H1086   1.111   .     S
C1085  H1087   1.110   .     S
C1085  H1088   1.108   .     S
O1089  C1090   1.419   .     S
C1090  H1092   1.118   .     S
C1090  H1091   1.111   .     S
C1090  C1093   1.524   .     S
C1093  H1094   1.109   .     S
C1093  H1095   1.110   .     S
C1093  H1096   1.110   .     S
C1097  H1099   1.110   .     S
C1097  H1100   1.111   .     S
H1098  C545    1.108   1_556 S
C1101  H1103   1.110   .     S
C1101  H1104   1.111   .     S
C1101  H550    1.108   1_556 S
