data_str_m2_o1_o10_pcu_sym.165
_audit_creation_date              2020-01-03
_audit_creation_method            'Materials Studio'
_symmetry_space_group_name_H-M    'P1'
_symmetry_Int_Tables_number       1
_symmetry_cell_setting            triclinic
loop_
_symmetry_equiv_pos_as_xyz
  x,y,z
_cell_length_a                    26.1732
_cell_length_b                    32.4624
_cell_length_c                    28.8552
_cell_angle_alpha                 90.6233
_cell_angle_beta                  98.9686
_cell_angle_gamma                 92.1497
loop_
_atom_site_label
_atom_site_type_symbol
_atom_site_fract_x
_atom_site_fract_y
_atom_site_fract_z
_atom_site_U_iso_or_equiv
_atom_site_adp_type
_atom_site_occupancy
C1     C     0.16669   0.08746   0.16652   0.00000  Uiso   1.00
C2     C     0.16667   0.24587   0.16681   0.00000  Uiso   1.00
C3     C     0.06791   0.16671   0.15443   0.00000  Uiso   1.00
C4     C     0.26542   0.16662   0.17891   0.00000  Uiso   1.00
C5     C     0.01233   0.16705   0.14795   0.00000  Uiso   1.00
C6     C     0.32100   0.16628   0.18539   0.00000  Uiso   1.00
C7     C     0.16914   0.02094   0.12487   0.00000  Uiso   1.00
C8     C     0.16432   0.31240   0.20848   0.00000  Uiso   1.00
C9     C     0.16916   0.31166   0.12504   0.00000  Uiso   1.00
C10    C     0.16430   0.02167   0.20831   0.00000  Uiso   1.00
C11    C     0.16674   0.29055   0.16685   0.00000  Uiso   1.00
C12    C     0.16669   0.04279   0.16649   0.00000  Uiso   1.00
C13    C     0.12840   0.14510   0.01758   0.00000  Uiso   1.00
C14    C     0.20490   0.18828   0.31573   0.00000  Uiso   1.00
C15    C     0.12925   0.14566   0.30199   0.00000  Uiso   1.00
C16    C     0.20414   0.18762   0.03134   0.00000  Uiso   1.00
Cu17   Cu    0.16667   0.16667   0.21355   0.00000  Uiso   1.00
Cu18   Cu    0.16667   0.16666   0.11978   0.00000  Uiso   1.00
H19    H     0.32492   0.16812   0.11236   0.00000  Uiso   1.00
H20    H     0.00840   0.16521   0.22099   0.00000  Uiso   1.00
H21    H     0.17112   0.03665   0.09224   0.00000  Uiso   1.00
H22    H     0.16234   0.29669   0.24112   0.00000  Uiso   1.00
H23    H     0.17117   0.29538   0.09245   0.00000  Uiso   1.00
H24    H     0.16231   0.03796   0.24090   0.00000  Uiso   1.00
H25    H     0.09941   0.12955   0.27767   0.00000  Uiso   1.00
H26    H     0.23404   0.20367   0.05565   0.00000  Uiso   1.00
N27    N     0.16668   0.16668   0.28403   0.00000  Uiso   1.00
N28    N     0.16665   0.16666   0.04931   0.00000  Uiso   1.00
O29    O     0.16666   0.10655   0.20625   0.00000  Uiso   1.00
O30    O     0.16667   0.22678   0.12709   0.00000  Uiso   1.00
O31    O     0.16666   0.10654   0.12706   0.00000  Uiso   1.00
O32    O     0.16667   0.22679   0.20628   0.00000  Uiso   1.00
O33    O     0.09161   0.16667   0.19712   0.00000  Uiso   1.00
O34    O     0.24172   0.16666   0.13621   0.00000  Uiso   1.00
O35    O     0.09161   0.16666   0.11793   0.00000  Uiso   1.00
O36    O     0.24172   0.16667   0.21540   0.00000  Uiso   1.00
S37    S     0.07232   0.11811   0.03183   0.00000  Uiso   1.00
O38    O     0.08236   0.09281   0.07512   0.00000  Uiso   1.00
O39    O     0.03228   0.14896   0.03741   0.00000  Uiso   1.00
O40    O     0.04740   0.08573   0.32069   0.00000  Uiso   1.00
H41    H     0.01258   0.07711   0.32732   0.00000  Uiso   1.00
S42    S     0.26078   0.21554   0.30142   0.00000  Uiso   1.00
O43    O     0.30123   0.18499   0.29620   0.00000  Uiso   1.00
O44    O     0.25106   0.24053   0.25785   0.00000  Uiso   1.00
O45    O     0.28569   0.24818   0.01230   0.00000  Uiso   1.00
H46    H     0.25994   0.26981   0.01212   0.00000  Uiso   1.00
C47    C     0.50003   0.08746   0.16652   0.00000  Uiso   1.00
C48    C     0.50000   0.24587   0.16681   0.00000  Uiso   1.00
C49    C     0.40125   0.16671   0.15443   0.00000  Uiso   1.00
C50    C     0.59875   0.16662   0.17891   0.00000  Uiso   1.00
C51    C     0.34566   0.16705   0.14795   0.00000  Uiso   1.00
C52    C     0.65434   0.16628   0.18539   0.00000  Uiso   1.00
C53    C     0.50247   0.02094   0.12487   0.00000  Uiso   1.00
C54    C     0.49765   0.31240   0.20848   0.00000  Uiso   1.00
C55    C     0.50250   0.31166   0.12504   0.00000  Uiso   1.00
C56    C     0.49763   0.02167   0.20831   0.00000  Uiso   1.00
C57    C     0.50007   0.29055   0.16685   0.00000  Uiso   1.00
C58    C     0.50002   0.04279   0.16649   0.00000  Uiso   1.00
C59    C     0.46173   0.14510   0.01758   0.00000  Uiso   1.00
C60    C     0.53823   0.18828   0.31573   0.00000  Uiso   1.00
C61    C     0.46258   0.14566   0.30199   0.00000  Uiso   1.00
C62    C     0.53747   0.18762   0.03134   0.00000  Uiso   1.00
Cu63   Cu    0.50000   0.16667   0.21355   0.00000  Uiso   1.00
Cu64   Cu    0.50000   0.16666   0.11978   0.00000  Uiso   1.00
H65    H     0.65826   0.16812   0.11236   0.00000  Uiso   1.00
H66    H     0.34173   0.16521   0.22099   0.00000  Uiso   1.00
H67    H     0.50446   0.03665   0.09224   0.00000  Uiso   1.00
H68    H     0.49568   0.29669   0.24112   0.00000  Uiso   1.00
H69    H     0.50450   0.29538   0.09245   0.00000  Uiso   1.00
H70    H     0.49564   0.03796   0.24090   0.00000  Uiso   1.00
H71    H     0.43275   0.12955   0.27767   0.00000  Uiso   1.00
H72    H     0.56737   0.20367   0.05565   0.00000  Uiso   1.00
N73    N     0.50001   0.16668   0.28403   0.00000  Uiso   1.00
N74    N     0.49999   0.16666   0.04931   0.00000  Uiso   1.00
O75    O     0.50000   0.10655   0.20625   0.00000  Uiso   1.00
O76    O     0.50000   0.22678   0.12709   0.00000  Uiso   1.00
O77    O     0.50000   0.10654   0.12706   0.00000  Uiso   1.00
O78    O     0.50000   0.22679   0.20628   0.00000  Uiso   1.00
O79    O     0.42495   0.16667   0.19712   0.00000  Uiso   1.00
O80    O     0.57505   0.16666   0.13621   0.00000  Uiso   1.00
O81    O     0.42494   0.16666   0.11793   0.00000  Uiso   1.00
O82    O     0.57506   0.16667   0.21540   0.00000  Uiso   1.00
S83    S     0.40565   0.11811   0.03183   0.00000  Uiso   1.00
O84    O     0.41569   0.09281   0.07512   0.00000  Uiso   1.00
O85    O     0.36561   0.14896   0.03741   0.00000  Uiso   1.00
O86    O     0.38073   0.08573   0.32069   0.00000  Uiso   1.00
H87    H     0.34592   0.07711   0.32732   0.00000  Uiso   1.00
S88    S     0.59412   0.21554   0.30142   0.00000  Uiso   1.00
O89    O     0.63457   0.18499   0.29620   0.00000  Uiso   1.00
O90    O     0.58439   0.24053   0.25785   0.00000  Uiso   1.00
O91    O     0.61902   0.24818   0.01230   0.00000  Uiso   1.00
H92    H     0.59327   0.26981   0.01212   0.00000  Uiso   1.00
C93    C     0.83336   0.08746   0.16652   0.00000  Uiso   1.00
C94    C     0.83333   0.24587   0.16681   0.00000  Uiso   1.00
C95    C     0.73458   0.16671   0.15443   0.00000  Uiso   1.00
C96    C     0.93209   0.16662   0.17891   0.00000  Uiso   1.00
C97    C     0.67899   0.16705   0.14795   0.00000  Uiso   1.00
C98    C     0.98767   0.16628   0.18539   0.00000  Uiso   1.00
C99    C     0.83580   0.02094   0.12487   0.00000  Uiso   1.00
C100   C     0.83099   0.31240   0.20848   0.00000  Uiso   1.00
C101   C     0.83583   0.31166   0.12504   0.00000  Uiso   1.00
C102   C     0.83096   0.02167   0.20831   0.00000  Uiso   1.00
C103   C     0.83340   0.29055   0.16685   0.00000  Uiso   1.00
C104   C     0.83336   0.04279   0.16649   0.00000  Uiso   1.00
C105   C     0.79507   0.14510   0.01758   0.00000  Uiso   1.00
C106   C     0.87156   0.18828   0.31573   0.00000  Uiso   1.00
C107   C     0.79592   0.14566   0.30199   0.00000  Uiso   1.00
C108   C     0.87080   0.18762   0.03134   0.00000  Uiso   1.00
Cu109  Cu    0.83333   0.16667   0.21355   0.00000  Uiso   1.00
Cu110  Cu    0.83333   0.16666   0.11978   0.00000  Uiso   1.00
H111   H     0.99159   0.16812   0.11236   0.00000  Uiso   1.00
H112   H     0.67507   0.16521   0.22099   0.00000  Uiso   1.00
H113   H     0.83779   0.03665   0.09224   0.00000  Uiso   1.00
H114   H     0.82901   0.29669   0.24112   0.00000  Uiso   1.00
H115   H     0.83784   0.29538   0.09245   0.00000  Uiso   1.00
H116   H     0.82897   0.03796   0.24090   0.00000  Uiso   1.00
H117   H     0.76608   0.12955   0.27767   0.00000  Uiso   1.00
H118   H     0.90070   0.20367   0.05565   0.00000  Uiso   1.00
N119   N     0.83335   0.16668   0.28403   0.00000  Uiso   1.00
N120   N     0.83332   0.16666   0.04931   0.00000  Uiso   1.00
O121   O     0.83333   0.10655   0.20625   0.00000  Uiso   1.00
O122   O     0.83334   0.22678   0.12709   0.00000  Uiso   1.00
O123   O     0.83333   0.10654   0.12706   0.00000  Uiso   1.00
O124   O     0.83334   0.22679   0.20628   0.00000  Uiso   1.00
O125   O     0.75828   0.16667   0.19712   0.00000  Uiso   1.00
O126   O     0.90839   0.16666   0.13621   0.00000  Uiso   1.00
O127   O     0.75828   0.16666   0.11793   0.00000  Uiso   1.00
O128   O     0.90839   0.16667   0.21540   0.00000  Uiso   1.00
S129   S     0.73899   0.11811   0.03183   0.00000  Uiso   1.00
O130   O     0.74902   0.09281   0.07512   0.00000  Uiso   1.00
O131   O     0.69895   0.14896   0.03741   0.00000  Uiso   1.00
O132   O     0.71406   0.08573   0.32069   0.00000  Uiso   1.00
H133   H     0.67925   0.07711   0.32732   0.00000  Uiso   1.00
S134   S     0.92745   0.21554   0.30142   0.00000  Uiso   1.00
O135   O     0.96790   0.18499   0.29620   0.00000  Uiso   1.00
O136   O     0.91772   0.24053   0.25785   0.00000  Uiso   1.00
O137   O     0.95236   0.24818   0.01230   0.00000  Uiso   1.00
H138   H     0.92660   0.26981   0.01212   0.00000  Uiso   1.00
C139   C     0.16669   0.42079   0.16652   0.00000  Uiso   1.00
C140   C     0.16667   0.57921   0.16681   0.00000  Uiso   1.00
C141   C     0.06791   0.50004   0.15443   0.00000  Uiso   1.00
C142   C     0.26542   0.49996   0.17891   0.00000  Uiso   1.00
C143   C     0.01233   0.50038   0.14795   0.00000  Uiso   1.00
C144   C     0.32100   0.49961   0.18539   0.00000  Uiso   1.00
C145   C     0.16914   0.35427   0.12487   0.00000  Uiso   1.00
C146   C     0.16432   0.64573   0.20848   0.00000  Uiso   1.00
C147   C     0.16916   0.64500   0.12504   0.00000  Uiso   1.00
C148   C     0.16430   0.35500   0.20831   0.00000  Uiso   1.00
C149   C     0.16674   0.62388   0.16685   0.00000  Uiso   1.00
C150   C     0.16669   0.37612   0.16649   0.00000  Uiso   1.00
C151   C     0.12840   0.47843   0.01758   0.00000  Uiso   1.00
C152   C     0.20490   0.52161   0.31573   0.00000  Uiso   1.00
C153   C     0.12925   0.47899   0.30199   0.00000  Uiso   1.00
C154   C     0.20414   0.52095   0.03134   0.00000  Uiso   1.00
Cu155  Cu    0.16667   0.50001   0.21355   0.00000  Uiso   1.00
Cu156  Cu    0.16667   0.49999   0.11978   0.00000  Uiso   1.00
H157   H     0.32492   0.50146   0.11236   0.00000  Uiso   1.00
H158   H     0.00840   0.49854   0.22099   0.00000  Uiso   1.00
H159   H     0.17112   0.36998   0.09224   0.00000  Uiso   1.00
H160   H     0.16234   0.63002   0.24112   0.00000  Uiso   1.00
H161   H     0.17117   0.62871   0.09245   0.00000  Uiso   1.00
H162   H     0.16231   0.37129   0.24090   0.00000  Uiso   1.00
H163   H     0.09941   0.46288   0.27767   0.00000  Uiso   1.00
H164   H     0.23404   0.53700   0.05565   0.00000  Uiso   1.00
N165   N     0.16668   0.50001   0.28403   0.00000  Uiso   1.00
N166   N     0.16665   0.49999   0.04931   0.00000  Uiso   1.00
O167   O     0.16666   0.43989   0.20625   0.00000  Uiso   1.00
O168   O     0.16667   0.56011   0.12709   0.00000  Uiso   1.00
O169   O     0.16666   0.43988   0.12706   0.00000  Uiso   1.00
O170   O     0.16667   0.56012   0.20628   0.00000  Uiso   1.00
O171   O     0.09161   0.50000   0.19712   0.00000  Uiso   1.00
O172   O     0.24172   0.50000   0.13621   0.00000  Uiso   1.00
O173   O     0.09161   0.49999   0.11793   0.00000  Uiso   1.00
O174   O     0.24172   0.50001   0.21540   0.00000  Uiso   1.00
S175   S     0.07232   0.45144   0.03183   0.00000  Uiso   1.00
O176   O     0.08236   0.42614   0.07512   0.00000  Uiso   1.00
O177   O     0.03228   0.48229   0.03741   0.00000  Uiso   1.00
O178   O     0.04740   0.41906   0.32069   0.00000  Uiso   1.00
H179   H     0.01258   0.41044   0.32732   0.00000  Uiso   1.00
S180   S     0.26078   0.54888   0.30142   0.00000  Uiso   1.00
O181   O     0.30123   0.51832   0.29620   0.00000  Uiso   1.00
O182   O     0.25106   0.57386   0.25785   0.00000  Uiso   1.00
O183   O     0.28569   0.58151   0.01230   0.00000  Uiso   1.00
H184   H     0.25994   0.60314   0.01212   0.00000  Uiso   1.00
C185   C     0.50003   0.42079   0.16652   0.00000  Uiso   1.00
C186   C     0.50000   0.57921   0.16681   0.00000  Uiso   1.00
C187   C     0.40125   0.50004   0.15443   0.00000  Uiso   1.00
C188   C     0.59875   0.49996   0.17891   0.00000  Uiso   1.00
C189   C     0.34566   0.50038   0.14795   0.00000  Uiso   1.00
C190   C     0.65434   0.49961   0.18539   0.00000  Uiso   1.00
C191   C     0.50247   0.35427   0.12487   0.00000  Uiso   1.00
C192   C     0.49765   0.64573   0.20848   0.00000  Uiso   1.00
C193   C     0.50250   0.64500   0.12504   0.00000  Uiso   1.00
C194   C     0.49763   0.35500   0.20831   0.00000  Uiso   1.00
C195   C     0.50007   0.62388   0.16685   0.00000  Uiso   1.00
C196   C     0.50002   0.37612   0.16649   0.00000  Uiso   1.00
C197   C     0.46173   0.47843   0.01758   0.00000  Uiso   1.00
C198   C     0.53823   0.52161   0.31573   0.00000  Uiso   1.00
C199   C     0.46258   0.47899   0.30199   0.00000  Uiso   1.00
C200   C     0.53747   0.52095   0.03134   0.00000  Uiso   1.00
Cu201  Cu    0.50000   0.50001   0.21355   0.00000  Uiso   1.00
Cu202  Cu    0.50000   0.49999   0.11978   0.00000  Uiso   1.00
H203   H     0.65826   0.50146   0.11236   0.00000  Uiso   1.00
H204   H     0.34173   0.49854   0.22099   0.00000  Uiso   1.00
H205   H     0.50446   0.36998   0.09224   0.00000  Uiso   1.00
H206   H     0.49568   0.63002   0.24112   0.00000  Uiso   1.00
H207   H     0.50450   0.62871   0.09245   0.00000  Uiso   1.00
H208   H     0.49564   0.37129   0.24090   0.00000  Uiso   1.00
H209   H     0.43275   0.46288   0.27767   0.00000  Uiso   1.00
H210   H     0.56737   0.53700   0.05565   0.00000  Uiso   1.00
N211   N     0.50001   0.50001   0.28403   0.00000  Uiso   1.00
N212   N     0.49999   0.49999   0.04931   0.00000  Uiso   1.00
O213   O     0.50000   0.43989   0.20625   0.00000  Uiso   1.00
O214   O     0.50000   0.56011   0.12709   0.00000  Uiso   1.00
O215   O     0.50000   0.43988   0.12706   0.00000  Uiso   1.00
O216   O     0.50000   0.56012   0.20628   0.00000  Uiso   1.00
O217   O     0.42495   0.50000   0.19712   0.00000  Uiso   1.00
O218   O     0.57505   0.50000   0.13621   0.00000  Uiso   1.00
O219   O     0.42494   0.49999   0.11793   0.00000  Uiso   1.00
O220   O     0.57506   0.50001   0.21540   0.00000  Uiso   1.00
S221   S     0.40565   0.45144   0.03183   0.00000  Uiso   1.00
O222   O     0.41569   0.42614   0.07512   0.00000  Uiso   1.00
O223   O     0.36561   0.48229   0.03741   0.00000  Uiso   1.00
O224   O     0.38073   0.41906   0.32069   0.00000  Uiso   1.00
H225   H     0.34592   0.41044   0.32732   0.00000  Uiso   1.00
S226   S     0.59412   0.54888   0.30142   0.00000  Uiso   1.00
O227   O     0.63457   0.51832   0.29620   0.00000  Uiso   1.00
O228   O     0.58439   0.57386   0.25785   0.00000  Uiso   1.00
O229   O     0.61902   0.58151   0.01230   0.00000  Uiso   1.00
H230   H     0.59327   0.60314   0.01212   0.00000  Uiso   1.00
C231   C     0.83336   0.42079   0.16652   0.00000  Uiso   1.00
C232   C     0.83333   0.57921   0.16681   0.00000  Uiso   1.00
C233   C     0.73458   0.50004   0.15443   0.00000  Uiso   1.00
C234   C     0.93209   0.49996   0.17891   0.00000  Uiso   1.00
C235   C     0.67899   0.50038   0.14795   0.00000  Uiso   1.00
C236   C     0.98767   0.49961   0.18539   0.00000  Uiso   1.00
C237   C     0.83580   0.35427   0.12487   0.00000  Uiso   1.00
C238   C     0.83099   0.64573   0.20848   0.00000  Uiso   1.00
C239   C     0.83583   0.64500   0.12504   0.00000  Uiso   1.00
C240   C     0.83096   0.35500   0.20831   0.00000  Uiso   1.00
C241   C     0.83340   0.62388   0.16685   0.00000  Uiso   1.00
C242   C     0.83336   0.37612   0.16649   0.00000  Uiso   1.00
C243   C     0.79507   0.47843   0.01758   0.00000  Uiso   1.00
C244   C     0.87156   0.52161   0.31573   0.00000  Uiso   1.00
C245   C     0.79592   0.47899   0.30199   0.00000  Uiso   1.00
C246   C     0.87080   0.52095   0.03134   0.00000  Uiso   1.00
Cu247  Cu    0.83333   0.50001   0.21355   0.00000  Uiso   1.00
Cu248  Cu    0.83333   0.49999   0.11978   0.00000  Uiso   1.00
H249   H     0.99159   0.50146   0.11236   0.00000  Uiso   1.00
H250   H     0.67507   0.49854   0.22099   0.00000  Uiso   1.00
H251   H     0.83779   0.36998   0.09224   0.00000  Uiso   1.00
H252   H     0.82901   0.63002   0.24112   0.00000  Uiso   1.00
H253   H     0.83784   0.62871   0.09245   0.00000  Uiso   1.00
H254   H     0.82897   0.37129   0.24090   0.00000  Uiso   1.00
H255   H     0.76608   0.46288   0.27767   0.00000  Uiso   1.00
H256   H     0.90070   0.53700   0.05565   0.00000  Uiso   1.00
N257   N     0.83335   0.50001   0.28403   0.00000  Uiso   1.00
N258   N     0.83332   0.49999   0.04931   0.00000  Uiso   1.00
O259   O     0.83333   0.43989   0.20625   0.00000  Uiso   1.00
O260   O     0.83334   0.56011   0.12709   0.00000  Uiso   1.00
O261   O     0.83333   0.43988   0.12706   0.00000  Uiso   1.00
O262   O     0.83334   0.56012   0.20628   0.00000  Uiso   1.00
O263   O     0.75828   0.50000   0.19712   0.00000  Uiso   1.00
O264   O     0.90839   0.50000   0.13621   0.00000  Uiso   1.00
O265   O     0.75828   0.49999   0.11793   0.00000  Uiso   1.00
O266   O     0.90839   0.50001   0.21540   0.00000  Uiso   1.00
S267   S     0.73899   0.45144   0.03183   0.00000  Uiso   1.00
O268   O     0.74902   0.42614   0.07512   0.00000  Uiso   1.00
O269   O     0.69895   0.48229   0.03741   0.00000  Uiso   1.00
O270   O     0.71406   0.41906   0.32069   0.00000  Uiso   1.00
H271   H     0.67925   0.41044   0.32732   0.00000  Uiso   1.00
S272   S     0.92745   0.54888   0.30142   0.00000  Uiso   1.00
O273   O     0.96790   0.51832   0.29620   0.00000  Uiso   1.00
O274   O     0.91772   0.57386   0.25785   0.00000  Uiso   1.00
O275   O     0.95236   0.58151   0.01230   0.00000  Uiso   1.00
H276   H     0.92660   0.60314   0.01212   0.00000  Uiso   1.00
C277   C     0.16669   0.75413   0.16652   0.00000  Uiso   1.00
C278   C     0.16667   0.91254   0.16681   0.00000  Uiso   1.00
C279   C     0.06791   0.83337   0.15443   0.00000  Uiso   1.00
C280   C     0.26542   0.83329   0.17891   0.00000  Uiso   1.00
C281   C     0.01233   0.83371   0.14795   0.00000  Uiso   1.00
C282   C     0.32100   0.83295   0.18539   0.00000  Uiso   1.00
C283   C     0.16914   0.68760   0.12487   0.00000  Uiso   1.00
C284   C     0.16432   0.97907   0.20848   0.00000  Uiso   1.00
C285   C     0.16916   0.97833   0.12504   0.00000  Uiso   1.00
C286   C     0.16430   0.68834   0.20831   0.00000  Uiso   1.00
C287   C     0.16674   0.95721   0.16685   0.00000  Uiso   1.00
C288   C     0.16669   0.70945   0.16649   0.00000  Uiso   1.00
C289   C     0.12840   0.81176   0.01758   0.00000  Uiso   1.00
C290   C     0.20490   0.85494   0.31573   0.00000  Uiso   1.00
C291   C     0.12925   0.81232   0.30199   0.00000  Uiso   1.00
C292   C     0.20414   0.85428   0.03134   0.00000  Uiso   1.00
Cu293  Cu    0.16667   0.83334   0.21355   0.00000  Uiso   1.00
Cu294  Cu    0.16667   0.83333   0.11978   0.00000  Uiso   1.00
H295   H     0.32492   0.83479   0.11236   0.00000  Uiso   1.00
H296   H     0.00840   0.83187   0.22099   0.00000  Uiso   1.00
H297   H     0.17112   0.70332   0.09224   0.00000  Uiso   1.00
H298   H     0.16234   0.96335   0.24112   0.00000  Uiso   1.00
H299   H     0.17117   0.96204   0.09245   0.00000  Uiso   1.00
H300   H     0.16231   0.70463   0.24090   0.00000  Uiso   1.00
H301   H     0.09941   0.79621   0.27767   0.00000  Uiso   1.00
H302   H     0.23404   0.87034   0.05565   0.00000  Uiso   1.00
N303   N     0.16668   0.83334   0.28403   0.00000  Uiso   1.00
N304   N     0.16665   0.83332   0.04931   0.00000  Uiso   1.00
O305   O     0.16666   0.77322   0.20625   0.00000  Uiso   1.00
O306   O     0.16667   0.89345   0.12709   0.00000  Uiso   1.00
O307   O     0.16666   0.77321   0.12706   0.00000  Uiso   1.00
O308   O     0.16667   0.89346   0.20628   0.00000  Uiso   1.00
O309   O     0.09161   0.83334   0.19712   0.00000  Uiso   1.00
O310   O     0.24172   0.83333   0.13621   0.00000  Uiso   1.00
O311   O     0.09161   0.83333   0.11793   0.00000  Uiso   1.00
O312   O     0.24172   0.83334   0.21540   0.00000  Uiso   1.00
S313   S     0.07232   0.78478   0.03183   0.00000  Uiso   1.00
O314   O     0.08236   0.75947   0.07512   0.00000  Uiso   1.00
O315   O     0.03228   0.81562   0.03741   0.00000  Uiso   1.00
O316   O     0.04740   0.75239   0.32069   0.00000  Uiso   1.00
H317   H     0.01258   0.74377   0.32732   0.00000  Uiso   1.00
S318   S     0.26078   0.88221   0.30142   0.00000  Uiso   1.00
O319   O     0.30123   0.85166   0.29620   0.00000  Uiso   1.00
O320   O     0.25106   0.90720   0.25785   0.00000  Uiso   1.00
O321   O     0.28569   0.91484   0.01230   0.00000  Uiso   1.00
H322   H     0.25994   0.93647   0.01212   0.00000  Uiso   1.00
C323   C     0.50003   0.75413   0.16652   0.00000  Uiso   1.00
C324   C     0.50000   0.91254   0.16681   0.00000  Uiso   1.00
C325   C     0.40125   0.83337   0.15443   0.00000  Uiso   1.00
C326   C     0.59875   0.83329   0.17891   0.00000  Uiso   1.00
C327   C     0.34566   0.83371   0.14795   0.00000  Uiso   1.00
C328   C     0.65434   0.83295   0.18539   0.00000  Uiso   1.00
C329   C     0.50247   0.68760   0.12487   0.00000  Uiso   1.00
C330   C     0.49765   0.97907   0.20848   0.00000  Uiso   1.00
C331   C     0.50250   0.97833   0.12504   0.00000  Uiso   1.00
C332   C     0.49763   0.68834   0.20831   0.00000  Uiso   1.00
C333   C     0.50007   0.95721   0.16685   0.00000  Uiso   1.00
C334   C     0.50002   0.70945   0.16649   0.00000  Uiso   1.00
C335   C     0.46173   0.81176   0.01758   0.00000  Uiso   1.00
C336   C     0.53823   0.85494   0.31573   0.00000  Uiso   1.00
C337   C     0.46258   0.81232   0.30199   0.00000  Uiso   1.00
C338   C     0.53747   0.85428   0.03134   0.00000  Uiso   1.00
Cu339  Cu    0.50000   0.83334   0.21355   0.00000  Uiso   1.00
Cu340  Cu    0.50000   0.83333   0.11978   0.00000  Uiso   1.00
H341   H     0.65826   0.83479   0.11236   0.00000  Uiso   1.00
H342   H     0.34173   0.83187   0.22099   0.00000  Uiso   1.00
H343   H     0.50446   0.70332   0.09224   0.00000  Uiso   1.00
H344   H     0.49568   0.96335   0.24112   0.00000  Uiso   1.00
H345   H     0.50450   0.96204   0.09245   0.00000  Uiso   1.00
H346   H     0.49564   0.70463   0.24090   0.00000  Uiso   1.00
H347   H     0.43275   0.79621   0.27767   0.00000  Uiso   1.00
H348   H     0.56737   0.87034   0.05565   0.00000  Uiso   1.00
N349   N     0.50001   0.83334   0.28403   0.00000  Uiso   1.00
N350   N     0.49999   0.83332   0.04931   0.00000  Uiso   1.00
O351   O     0.50000   0.77322   0.20625   0.00000  Uiso   1.00
O352   O     0.50000   0.89345   0.12709   0.00000  Uiso   1.00
O353   O     0.50000   0.77321   0.12706   0.00000  Uiso   1.00
O354   O     0.50000   0.89346   0.20628   0.00000  Uiso   1.00
O355   O     0.42495   0.83334   0.19712   0.00000  Uiso   1.00
O356   O     0.57505   0.83333   0.13621   0.00000  Uiso   1.00
O357   O     0.42494   0.83333   0.11793   0.00000  Uiso   1.00
O358   O     0.57506   0.83334   0.21540   0.00000  Uiso   1.00
S359   S     0.40565   0.78478   0.03183   0.00000  Uiso   1.00
O360   O     0.41569   0.75947   0.07512   0.00000  Uiso   1.00
O361   O     0.36561   0.81562   0.03741   0.00000  Uiso   1.00
O362   O     0.38073   0.75239   0.32069   0.00000  Uiso   1.00
H363   H     0.34592   0.74377   0.32732   0.00000  Uiso   1.00
S364   S     0.59412   0.88221   0.30142   0.00000  Uiso   1.00
O365   O     0.63457   0.85166   0.29620   0.00000  Uiso   1.00
O366   O     0.58439   0.90720   0.25785   0.00000  Uiso   1.00
O367   O     0.61902   0.91484   0.01230   0.00000  Uiso   1.00
H368   H     0.59327   0.93647   0.01212   0.00000  Uiso   1.00
C369   C     0.83336   0.75413   0.16652   0.00000  Uiso   1.00
C370   C     0.83333   0.91254   0.16681   0.00000  Uiso   1.00
C371   C     0.73458   0.83337   0.15443   0.00000  Uiso   1.00
C372   C     0.93209   0.83329   0.17891   0.00000  Uiso   1.00
C373   C     0.67899   0.83371   0.14795   0.00000  Uiso   1.00
C374   C     0.98767   0.83295   0.18539   0.00000  Uiso   1.00
C375   C     0.83580   0.68760   0.12487   0.00000  Uiso   1.00
C376   C     0.83099   0.97907   0.20848   0.00000  Uiso   1.00
C377   C     0.83583   0.97833   0.12504   0.00000  Uiso   1.00
C378   C     0.83096   0.68834   0.20831   0.00000  Uiso   1.00
C379   C     0.83340   0.95721   0.16685   0.00000  Uiso   1.00
C380   C     0.83336   0.70945   0.16649   0.00000  Uiso   1.00
C381   C     0.79507   0.81176   0.01758   0.00000  Uiso   1.00
C382   C     0.87156   0.85494   0.31573   0.00000  Uiso   1.00
C383   C     0.79592   0.81232   0.30199   0.00000  Uiso   1.00
C384   C     0.87080   0.85428   0.03134   0.00000  Uiso   1.00
Cu385  Cu    0.83333   0.83334   0.21355   0.00000  Uiso   1.00
Cu386  Cu    0.83333   0.83333   0.11978   0.00000  Uiso   1.00
H387   H     0.99159   0.83479   0.11236   0.00000  Uiso   1.00
H388   H     0.67507   0.83187   0.22099   0.00000  Uiso   1.00
H389   H     0.83779   0.70332   0.09224   0.00000  Uiso   1.00
H390   H     0.82901   0.96335   0.24112   0.00000  Uiso   1.00
H391   H     0.83784   0.96204   0.09245   0.00000  Uiso   1.00
H392   H     0.82897   0.70463   0.24090   0.00000  Uiso   1.00
H393   H     0.76608   0.79621   0.27767   0.00000  Uiso   1.00
H394   H     0.90070   0.87034   0.05565   0.00000  Uiso   1.00
N395   N     0.83335   0.83334   0.28403   0.00000  Uiso   1.00
N396   N     0.83332   0.83332   0.04931   0.00000  Uiso   1.00
O397   O     0.83333   0.77322   0.20625   0.00000  Uiso   1.00
O398   O     0.83334   0.89345   0.12709   0.00000  Uiso   1.00
O399   O     0.83333   0.77321   0.12706   0.00000  Uiso   1.00
O400   O     0.83334   0.89346   0.20628   0.00000  Uiso   1.00
O401   O     0.75828   0.83334   0.19712   0.00000  Uiso   1.00
O402   O     0.90839   0.83333   0.13621   0.00000  Uiso   1.00
O403   O     0.75828   0.83333   0.11793   0.00000  Uiso   1.00
O404   O     0.90839   0.83334   0.21540   0.00000  Uiso   1.00
S405   S     0.73899   0.78478   0.03183   0.00000  Uiso   1.00
O406   O     0.74902   0.75947   0.07512   0.00000  Uiso   1.00
O407   O     0.69895   0.81562   0.03741   0.00000  Uiso   1.00
O408   O     0.71406   0.75239   0.32069   0.00000  Uiso   1.00
H409   H     0.67925   0.74377   0.32732   0.00000  Uiso   1.00
S410   S     0.92745   0.88221   0.30142   0.00000  Uiso   1.00
O411   O     0.96790   0.85166   0.29620   0.00000  Uiso   1.00
O412   O     0.91772   0.90720   0.25785   0.00000  Uiso   1.00
O413   O     0.95236   0.91484   0.01230   0.00000  Uiso   1.00
H414   H     0.92660   0.93647   0.01212   0.00000  Uiso   1.00
C415   C     0.16669   0.08746   0.49986   0.00000  Uiso   1.00
C416   C     0.16667   0.24587   0.50015   0.00000  Uiso   1.00
C417   C     0.06791   0.16671   0.48776   0.00000  Uiso   1.00
C418   C     0.26542   0.16662   0.51224   0.00000  Uiso   1.00
C419   C     0.01233   0.16705   0.48129   0.00000  Uiso   1.00
C420   C     0.32100   0.16628   0.51872   0.00000  Uiso   1.00
C421   C     0.16914   0.02094   0.45821   0.00000  Uiso   1.00
C422   C     0.16432   0.31240   0.54181   0.00000  Uiso   1.00
C423   C     0.16916   0.31166   0.45838   0.00000  Uiso   1.00
C424   C     0.16430   0.02167   0.54164   0.00000  Uiso   1.00
C425   C     0.16674   0.29055   0.50018   0.00000  Uiso   1.00
C426   C     0.16669   0.04279   0.49983   0.00000  Uiso   1.00
C427   C     0.12840   0.14510   0.35092   0.00000  Uiso   1.00
C428   C     0.20490   0.18828   0.64906   0.00000  Uiso   1.00
C429   C     0.12925   0.14566   0.63532   0.00000  Uiso   1.00
C430   C     0.20414   0.18762   0.36468   0.00000  Uiso   1.00
Cu431  Cu    0.16667   0.16667   0.54689   0.00000  Uiso   1.00
Cu432  Cu    0.16667   0.16666   0.45311   0.00000  Uiso   1.00
H433   H     0.32492   0.16812   0.44569   0.00000  Uiso   1.00
H434   H     0.00840   0.16521   0.55433   0.00000  Uiso   1.00
H435   H     0.17112   0.03665   0.42557   0.00000  Uiso   1.00
H436   H     0.16234   0.29669   0.57445   0.00000  Uiso   1.00
H437   H     0.17117   0.29538   0.42579   0.00000  Uiso   1.00
H438   H     0.16231   0.03796   0.57423   0.00000  Uiso   1.00
H439   H     0.09941   0.12955   0.61101   0.00000  Uiso   1.00
H440   H     0.23404   0.20367   0.38898   0.00000  Uiso   1.00
N441   N     0.16668   0.16668   0.61736   0.00000  Uiso   1.00
N442   N     0.16665   0.16666   0.38264   0.00000  Uiso   1.00
O443   O     0.16666   0.10655   0.53958   0.00000  Uiso   1.00
O444   O     0.16667   0.22678   0.46042   0.00000  Uiso   1.00
O445   O     0.16666   0.10654   0.46039   0.00000  Uiso   1.00
O446   O     0.16667   0.22679   0.53961   0.00000  Uiso   1.00
O447   O     0.09161   0.16667   0.53046   0.00000  Uiso   1.00
O448   O     0.24172   0.16666   0.46954   0.00000  Uiso   1.00
O449   O     0.09161   0.16666   0.45127   0.00000  Uiso   1.00
O450   O     0.24172   0.16667   0.54873   0.00000  Uiso   1.00
S451   S     0.07232   0.11811   0.36516   0.00000  Uiso   1.00
O452   O     0.08236   0.09281   0.40845   0.00000  Uiso   1.00
O453   O     0.03228   0.14896   0.37074   0.00000  Uiso   1.00
O454   O     0.04740   0.08573   0.65402   0.00000  Uiso   1.00
H455   H     0.01258   0.07711   0.66065   0.00000  Uiso   1.00
S456   S     0.26078   0.21554   0.63476   0.00000  Uiso   1.00
O457   O     0.30123   0.18499   0.62953   0.00000  Uiso   1.00
O458   O     0.25106   0.24053   0.59119   0.00000  Uiso   1.00
O459   O     0.28569   0.24818   0.34564   0.00000  Uiso   1.00
H460   H     0.25994   0.26981   0.34546   0.00000  Uiso   1.00
C461   C     0.50003   0.08746   0.49986   0.00000  Uiso   1.00
C462   C     0.50000   0.24587   0.50015   0.00000  Uiso   1.00
C463   C     0.40125   0.16671   0.48776   0.00000  Uiso   1.00
C464   C     0.59875   0.16662   0.51224   0.00000  Uiso   1.00
C465   C     0.34566   0.16705   0.48129   0.00000  Uiso   1.00
C466   C     0.65434   0.16628   0.51872   0.00000  Uiso   1.00
C467   C     0.50247   0.02094   0.45821   0.00000  Uiso   1.00
C468   C     0.49765   0.31240   0.54181   0.00000  Uiso   1.00
C469   C     0.50250   0.31166   0.45838   0.00000  Uiso   1.00
C470   C     0.49763   0.02167   0.54164   0.00000  Uiso   1.00
C471   C     0.50007   0.29055   0.50018   0.00000  Uiso   1.00
C472   C     0.50002   0.04279   0.49983   0.00000  Uiso   1.00
C473   C     0.46173   0.14510   0.35092   0.00000  Uiso   1.00
C474   C     0.53823   0.18828   0.64906   0.00000  Uiso   1.00
C475   C     0.46258   0.14566   0.63532   0.00000  Uiso   1.00
C476   C     0.53747   0.18762   0.36468   0.00000  Uiso   1.00
Cu477  Cu    0.50000   0.16667   0.54689   0.00000  Uiso   1.00
Cu478  Cu    0.50000   0.16666   0.45311   0.00000  Uiso   1.00
H479   H     0.65826   0.16812   0.44569   0.00000  Uiso   1.00
H480   H     0.34173   0.16521   0.55433   0.00000  Uiso   1.00
H481   H     0.50446   0.03665   0.42557   0.00000  Uiso   1.00
H482   H     0.49568   0.29669   0.57445   0.00000  Uiso   1.00
H483   H     0.50450   0.29538   0.42579   0.00000  Uiso   1.00
H484   H     0.49564   0.03796   0.57423   0.00000  Uiso   1.00
H485   H     0.43275   0.12955   0.61101   0.00000  Uiso   1.00
H486   H     0.56737   0.20367   0.38898   0.00000  Uiso   1.00
N487   N     0.50001   0.16668   0.61736   0.00000  Uiso   1.00
N488   N     0.49999   0.16666   0.38264   0.00000  Uiso   1.00
O489   O     0.50000   0.10655   0.53958   0.00000  Uiso   1.00
O490   O     0.50000   0.22678   0.46042   0.00000  Uiso   1.00
O491   O     0.50000   0.10654   0.46039   0.00000  Uiso   1.00
O492   O     0.50000   0.22679   0.53961   0.00000  Uiso   1.00
O493   O     0.42495   0.16667   0.53046   0.00000  Uiso   1.00
O494   O     0.57505   0.16666   0.46954   0.00000  Uiso   1.00
O495   O     0.42494   0.16666   0.45127   0.00000  Uiso   1.00
O496   O     0.57506   0.16667   0.54873   0.00000  Uiso   1.00
S497   S     0.40565   0.11811   0.36516   0.00000  Uiso   1.00
O498   O     0.41569   0.09281   0.40845   0.00000  Uiso   1.00
O499   O     0.36561   0.14896   0.37074   0.00000  Uiso   1.00
O500   O     0.38073   0.08573   0.65402   0.00000  Uiso   1.00
H501   H     0.34592   0.07711   0.66065   0.00000  Uiso   1.00
S502   S     0.59412   0.21554   0.63476   0.00000  Uiso   1.00
O503   O     0.63457   0.18499   0.62953   0.00000  Uiso   1.00
O504   O     0.58439   0.24053   0.59119   0.00000  Uiso   1.00
O505   O     0.61902   0.24818   0.34564   0.00000  Uiso   1.00
H506   H     0.59327   0.26981   0.34546   0.00000  Uiso   1.00
C507   C     0.83336   0.08746   0.49986   0.00000  Uiso   1.00
C508   C     0.83333   0.24587   0.50015   0.00000  Uiso   1.00
C509   C     0.73458   0.16671   0.48776   0.00000  Uiso   1.00
C510   C     0.93209   0.16662   0.51224   0.00000  Uiso   1.00
C511   C     0.67899   0.16705   0.48129   0.00000  Uiso   1.00
C512   C     0.98767   0.16628   0.51872   0.00000  Uiso   1.00
C513   C     0.83580   0.02094   0.45821   0.00000  Uiso   1.00
C514   C     0.83099   0.31240   0.54181   0.00000  Uiso   1.00
C515   C     0.83583   0.31166   0.45838   0.00000  Uiso   1.00
C516   C     0.83096   0.02167   0.54164   0.00000  Uiso   1.00
C517   C     0.83340   0.29055   0.50018   0.00000  Uiso   1.00
C518   C     0.83336   0.04279   0.49983   0.00000  Uiso   1.00
C519   C     0.79507   0.14510   0.35092   0.00000  Uiso   1.00
C520   C     0.87156   0.18828   0.64906   0.00000  Uiso   1.00
C521   C     0.79592   0.14566   0.63532   0.00000  Uiso   1.00
C522   C     0.87080   0.18762   0.36468   0.00000  Uiso   1.00
Cu523  Cu    0.83333   0.16667   0.54689   0.00000  Uiso   1.00
Cu524  Cu    0.83333   0.16666   0.45311   0.00000  Uiso   1.00
H525   H     0.99159   0.16812   0.44569   0.00000  Uiso   1.00
H526   H     0.67507   0.16521   0.55433   0.00000  Uiso   1.00
H527   H     0.83779   0.03665   0.42557   0.00000  Uiso   1.00
H528   H     0.82901   0.29669   0.57445   0.00000  Uiso   1.00
H529   H     0.83784   0.29538   0.42579   0.00000  Uiso   1.00
H530   H     0.82897   0.03796   0.57423   0.00000  Uiso   1.00
H531   H     0.76608   0.12955   0.61101   0.00000  Uiso   1.00
H532   H     0.90070   0.20367   0.38898   0.00000  Uiso   1.00
N533   N     0.83335   0.16668   0.61736   0.00000  Uiso   1.00
N534   N     0.83332   0.16666   0.38264   0.00000  Uiso   1.00
O535   O     0.83333   0.10655   0.53958   0.00000  Uiso   1.00
O536   O     0.83334   0.22678   0.46042   0.00000  Uiso   1.00
O537   O     0.83333   0.10654   0.46039   0.00000  Uiso   1.00
O538   O     0.83334   0.22679   0.53961   0.00000  Uiso   1.00
O539   O     0.75828   0.16667   0.53046   0.00000  Uiso   1.00
O540   O     0.90839   0.16666   0.46954   0.00000  Uiso   1.00
O541   O     0.75828   0.16666   0.45127   0.00000  Uiso   1.00
O542   O     0.90839   0.16667   0.54873   0.00000  Uiso   1.00
S543   S     0.73899   0.11811   0.36516   0.00000  Uiso   1.00
O544   O     0.74902   0.09281   0.40845   0.00000  Uiso   1.00
O545   O     0.69895   0.14896   0.37074   0.00000  Uiso   1.00
O546   O     0.71406   0.08573   0.65402   0.00000  Uiso   1.00
H547   H     0.67925   0.07711   0.66065   0.00000  Uiso   1.00
S548   S     0.92745   0.21554   0.63476   0.00000  Uiso   1.00
O549   O     0.96790   0.18499   0.62953   0.00000  Uiso   1.00
O550   O     0.91772   0.24053   0.59119   0.00000  Uiso   1.00
O551   O     0.95236   0.24818   0.34564   0.00000  Uiso   1.00
H552   H     0.92660   0.26981   0.34546   0.00000  Uiso   1.00
C553   C     0.16669   0.42079   0.49986   0.00000  Uiso   1.00
C554   C     0.16667   0.57921   0.50015   0.00000  Uiso   1.00
C555   C     0.06791   0.50004   0.48776   0.00000  Uiso   1.00
C556   C     0.26542   0.49996   0.51224   0.00000  Uiso   1.00
C557   C     0.01233   0.50038   0.48129   0.00000  Uiso   1.00
C558   C     0.32100   0.49961   0.51872   0.00000  Uiso   1.00
C559   C     0.16914   0.35427   0.45821   0.00000  Uiso   1.00
C560   C     0.16432   0.64573   0.54181   0.00000  Uiso   1.00
C561   C     0.16916   0.64500   0.45838   0.00000  Uiso   1.00
C562   C     0.16430   0.35500   0.54164   0.00000  Uiso   1.00
C563   C     0.16674   0.62388   0.50018   0.00000  Uiso   1.00
C564   C     0.16669   0.37612   0.49983   0.00000  Uiso   1.00
C565   C     0.12840   0.47843   0.35092   0.00000  Uiso   1.00
C566   C     0.20490   0.52161   0.64906   0.00000  Uiso   1.00
C567   C     0.12925   0.47899   0.63532   0.00000  Uiso   1.00
C568   C     0.20414   0.52095   0.36468   0.00000  Uiso   1.00
Cu569  Cu    0.16667   0.50001   0.54689   0.00000  Uiso   1.00
Cu570  Cu    0.16667   0.49999   0.45311   0.00000  Uiso   1.00
H571   H     0.32492   0.50146   0.44569   0.00000  Uiso   1.00
H572   H     0.00840   0.49854   0.55433   0.00000  Uiso   1.00
H573   H     0.17112   0.36998   0.42557   0.00000  Uiso   1.00
H574   H     0.16234   0.63002   0.57445   0.00000  Uiso   1.00
H575   H     0.17117   0.62871   0.42579   0.00000  Uiso   1.00
H576   H     0.16231   0.37129   0.57423   0.00000  Uiso   1.00
H577   H     0.09941   0.46288   0.61101   0.00000  Uiso   1.00
H578   H     0.23404   0.53700   0.38898   0.00000  Uiso   1.00
N579   N     0.16668   0.50001   0.61736   0.00000  Uiso   1.00
N580   N     0.16665   0.49999   0.38264   0.00000  Uiso   1.00
O581   O     0.16666   0.43989   0.53958   0.00000  Uiso   1.00
O582   O     0.16667   0.56011   0.46042   0.00000  Uiso   1.00
O583   O     0.16666   0.43988   0.46039   0.00000  Uiso   1.00
O584   O     0.16667   0.56012   0.53961   0.00000  Uiso   1.00
O585   O     0.09161   0.50000   0.53046   0.00000  Uiso   1.00
O586   O     0.24172   0.50000   0.46954   0.00000  Uiso   1.00
O587   O     0.09161   0.49999   0.45127   0.00000  Uiso   1.00
O588   O     0.24172   0.50001   0.54873   0.00000  Uiso   1.00
S589   S     0.07232   0.45144   0.36516   0.00000  Uiso   1.00
O590   O     0.08236   0.42614   0.40845   0.00000  Uiso   1.00
O591   O     0.03228   0.48229   0.37074   0.00000  Uiso   1.00
O592   O     0.04740   0.41906   0.65402   0.00000  Uiso   1.00
H593   H     0.01258   0.41044   0.66065   0.00000  Uiso   1.00
S594   S     0.26078   0.54888   0.63476   0.00000  Uiso   1.00
O595   O     0.30123   0.51832   0.62953   0.00000  Uiso   1.00
O596   O     0.25106   0.57386   0.59119   0.00000  Uiso   1.00
O597   O     0.28569   0.58151   0.34564   0.00000  Uiso   1.00
H598   H     0.25994   0.60314   0.34546   0.00000  Uiso   1.00
C599   C     0.50003   0.42079   0.49986   0.00000  Uiso   1.00
C600   C     0.50000   0.57921   0.50015   0.00000  Uiso   1.00
C601   C     0.40125   0.50004   0.48776   0.00000  Uiso   1.00
C602   C     0.59875   0.49996   0.51224   0.00000  Uiso   1.00
C603   C     0.34566   0.50038   0.48129   0.00000  Uiso   1.00
C604   C     0.65434   0.49961   0.51872   0.00000  Uiso   1.00
C605   C     0.50247   0.35427   0.45821   0.00000  Uiso   1.00
C606   C     0.49765   0.64573   0.54181   0.00000  Uiso   1.00
C607   C     0.50250   0.64500   0.45838   0.00000  Uiso   1.00
C608   C     0.49763   0.35500   0.54164   0.00000  Uiso   1.00
C609   C     0.50007   0.62388   0.50018   0.00000  Uiso   1.00
C610   C     0.50002   0.37612   0.49983   0.00000  Uiso   1.00
C611   C     0.46173   0.47843   0.35092   0.00000  Uiso   1.00
C612   C     0.53823   0.52161   0.64906   0.00000  Uiso   1.00
C613   C     0.46258   0.47899   0.63532   0.00000  Uiso   1.00
C614   C     0.53747   0.52095   0.36468   0.00000  Uiso   1.00
Cu615  Cu    0.50000   0.50001   0.54689   0.00000  Uiso   1.00
Cu616  Cu    0.50000   0.49999   0.45311   0.00000  Uiso   1.00
H617   H     0.65826   0.50146   0.44569   0.00000  Uiso   1.00
H618   H     0.34173   0.49854   0.55433   0.00000  Uiso   1.00
H619   H     0.50446   0.36998   0.42557   0.00000  Uiso   1.00
H620   H     0.49568   0.63002   0.57445   0.00000  Uiso   1.00
H621   H     0.50450   0.62871   0.42579   0.00000  Uiso   1.00
H622   H     0.49564   0.37129   0.57423   0.00000  Uiso   1.00
H623   H     0.43275   0.46288   0.61101   0.00000  Uiso   1.00
H624   H     0.56737   0.53700   0.38898   0.00000  Uiso   1.00
N625   N     0.50001   0.50001   0.61736   0.00000  Uiso   1.00
N626   N     0.49999   0.49999   0.38264   0.00000  Uiso   1.00
O627   O     0.50000   0.43989   0.53958   0.00000  Uiso   1.00
O628   O     0.50000   0.56011   0.46042   0.00000  Uiso   1.00
O629   O     0.50000   0.43988   0.46039   0.00000  Uiso   1.00
O630   O     0.50000   0.56012   0.53961   0.00000  Uiso   1.00
O631   O     0.42495   0.50000   0.53046   0.00000  Uiso   1.00
O632   O     0.57505   0.50000   0.46954   0.00000  Uiso   1.00
O633   O     0.42494   0.49999   0.45127   0.00000  Uiso   1.00
O634   O     0.57506   0.50001   0.54873   0.00000  Uiso   1.00
S635   S     0.40565   0.45144   0.36516   0.00000  Uiso   1.00
O636   O     0.41569   0.42614   0.40845   0.00000  Uiso   1.00
O637   O     0.36561   0.48229   0.37074   0.00000  Uiso   1.00
O638   O     0.38073   0.41906   0.65402   0.00000  Uiso   1.00
H639   H     0.34592   0.41044   0.66065   0.00000  Uiso   1.00
S640   S     0.59412   0.54888   0.63476   0.00000  Uiso   1.00
O641   O     0.63457   0.51832   0.62953   0.00000  Uiso   1.00
O642   O     0.58439   0.57386   0.59119   0.00000  Uiso   1.00
O643   O     0.61902   0.58151   0.34564   0.00000  Uiso   1.00
H644   H     0.59327   0.60314   0.34546   0.00000  Uiso   1.00
C645   C     0.83336   0.42079   0.49986   0.00000  Uiso   1.00
C646   C     0.83333   0.57921   0.50015   0.00000  Uiso   1.00
C647   C     0.73458   0.50004   0.48776   0.00000  Uiso   1.00
C648   C     0.93209   0.49996   0.51224   0.00000  Uiso   1.00
C649   C     0.67899   0.50038   0.48129   0.00000  Uiso   1.00
C650   C     0.98767   0.49961   0.51872   0.00000  Uiso   1.00
C651   C     0.83580   0.35427   0.45821   0.00000  Uiso   1.00
C652   C     0.83099   0.64573   0.54181   0.00000  Uiso   1.00
C653   C     0.83583   0.64500   0.45838   0.00000  Uiso   1.00
C654   C     0.83096   0.35500   0.54164   0.00000  Uiso   1.00
C655   C     0.83340   0.62388   0.50018   0.00000  Uiso   1.00
C656   C     0.83336   0.37612   0.49983   0.00000  Uiso   1.00
C657   C     0.79507   0.47843   0.35092   0.00000  Uiso   1.00
C658   C     0.87156   0.52161   0.64906   0.00000  Uiso   1.00
C659   C     0.79592   0.47899   0.63532   0.00000  Uiso   1.00
C660   C     0.87080   0.52095   0.36468   0.00000  Uiso   1.00
Cu661  Cu    0.83333   0.50001   0.54689   0.00000  Uiso   1.00
Cu662  Cu    0.83333   0.49999   0.45311   0.00000  Uiso   1.00
H663   H     0.99159   0.50146   0.44569   0.00000  Uiso   1.00
H664   H     0.67507   0.49854   0.55433   0.00000  Uiso   1.00
H665   H     0.83779   0.36998   0.42557   0.00000  Uiso   1.00
H666   H     0.82901   0.63002   0.57445   0.00000  Uiso   1.00
H667   H     0.83784   0.62871   0.42579   0.00000  Uiso   1.00
H668   H     0.82897   0.37129   0.57423   0.00000  Uiso   1.00
H669   H     0.76608   0.46288   0.61101   0.00000  Uiso   1.00
H670   H     0.90070   0.53700   0.38898   0.00000  Uiso   1.00
N671   N     0.83335   0.50001   0.61736   0.00000  Uiso   1.00
N672   N     0.83332   0.49999   0.38264   0.00000  Uiso   1.00
O673   O     0.83333   0.43989   0.53958   0.00000  Uiso   1.00
O674   O     0.83334   0.56011   0.46042   0.00000  Uiso   1.00
O675   O     0.83333   0.43988   0.46039   0.00000  Uiso   1.00
O676   O     0.83334   0.56012   0.53961   0.00000  Uiso   1.00
O677   O     0.75828   0.50000   0.53046   0.00000  Uiso   1.00
O678   O     0.90839   0.50000   0.46954   0.00000  Uiso   1.00
O679   O     0.75828   0.49999   0.45127   0.00000  Uiso   1.00
O680   O     0.90839   0.50001   0.54873   0.00000  Uiso   1.00
S681   S     0.73899   0.45144   0.36516   0.00000  Uiso   1.00
O682   O     0.74902   0.42614   0.40845   0.00000  Uiso   1.00
O683   O     0.69895   0.48229   0.37074   0.00000  Uiso   1.00
O684   O     0.71406   0.41906   0.65402   0.00000  Uiso   1.00
H685   H     0.67925   0.41044   0.66065   0.00000  Uiso   1.00
S686   S     0.92745   0.54888   0.63476   0.00000  Uiso   1.00
O687   O     0.96790   0.51832   0.62953   0.00000  Uiso   1.00
O688   O     0.91772   0.57386   0.59119   0.00000  Uiso   1.00
O689   O     0.95236   0.58151   0.34564   0.00000  Uiso   1.00
H690   H     0.92660   0.60314   0.34546   0.00000  Uiso   1.00
C691   C     0.16669   0.75413   0.49986   0.00000  Uiso   1.00
C692   C     0.16667   0.91254   0.50015   0.00000  Uiso   1.00
C693   C     0.06791   0.83337   0.48776   0.00000  Uiso   1.00
C694   C     0.26542   0.83329   0.51224   0.00000  Uiso   1.00
C695   C     0.01233   0.83371   0.48129   0.00000  Uiso   1.00
C696   C     0.32100   0.83295   0.51872   0.00000  Uiso   1.00
C697   C     0.16914   0.68760   0.45821   0.00000  Uiso   1.00
C698   C     0.16432   0.97907   0.54181   0.00000  Uiso   1.00
C699   C     0.16916   0.97833   0.45838   0.00000  Uiso   1.00
C700   C     0.16430   0.68834   0.54164   0.00000  Uiso   1.00
C701   C     0.16674   0.95721   0.50018   0.00000  Uiso   1.00
C702   C     0.16669   0.70945   0.49983   0.00000  Uiso   1.00
C703   C     0.12840   0.81176   0.35092   0.00000  Uiso   1.00
C704   C     0.20490   0.85494   0.64906   0.00000  Uiso   1.00
C705   C     0.12925   0.81232   0.63532   0.00000  Uiso   1.00
C706   C     0.20414   0.85428   0.36468   0.00000  Uiso   1.00
Cu707  Cu    0.16667   0.83334   0.54689   0.00000  Uiso   1.00
Cu708  Cu    0.16667   0.83333   0.45311   0.00000  Uiso   1.00
H709   H     0.32492   0.83479   0.44569   0.00000  Uiso   1.00
H710   H     0.00840   0.83187   0.55433   0.00000  Uiso   1.00
H711   H     0.17112   0.70332   0.42557   0.00000  Uiso   1.00
H712   H     0.16234   0.96335   0.57445   0.00000  Uiso   1.00
H713   H     0.17117   0.96204   0.42579   0.00000  Uiso   1.00
H714   H     0.16231   0.70463   0.57423   0.00000  Uiso   1.00
H715   H     0.09941   0.79621   0.61101   0.00000  Uiso   1.00
H716   H     0.23404   0.87034   0.38898   0.00000  Uiso   1.00
N717   N     0.16668   0.83334   0.61736   0.00000  Uiso   1.00
N718   N     0.16665   0.83332   0.38264   0.00000  Uiso   1.00
O719   O     0.16666   0.77322   0.53958   0.00000  Uiso   1.00
O720   O     0.16667   0.89345   0.46042   0.00000  Uiso   1.00
O721   O     0.16666   0.77321   0.46039   0.00000  Uiso   1.00
O722   O     0.16667   0.89346   0.53961   0.00000  Uiso   1.00
O723   O     0.09161   0.83334   0.53046   0.00000  Uiso   1.00
O724   O     0.24172   0.83333   0.46954   0.00000  Uiso   1.00
O725   O     0.09161   0.83333   0.45127   0.00000  Uiso   1.00
O726   O     0.24172   0.83334   0.54873   0.00000  Uiso   1.00
S727   S     0.07232   0.78478   0.36516   0.00000  Uiso   1.00
O728   O     0.08236   0.75947   0.40845   0.00000  Uiso   1.00
O729   O     0.03228   0.81562   0.37074   0.00000  Uiso   1.00
O730   O     0.04740   0.75239   0.65402   0.00000  Uiso   1.00
H731   H     0.01258   0.74377   0.66065   0.00000  Uiso   1.00
S732   S     0.26078   0.88221   0.63476   0.00000  Uiso   1.00
O733   O     0.30123   0.85166   0.62953   0.00000  Uiso   1.00
O734   O     0.25106   0.90720   0.59119   0.00000  Uiso   1.00
O735   O     0.28569   0.91484   0.34564   0.00000  Uiso   1.00
H736   H     0.25994   0.93647   0.34546   0.00000  Uiso   1.00
C737   C     0.50003   0.75413   0.49986   0.00000  Uiso   1.00
C738   C     0.50000   0.91254   0.50015   0.00000  Uiso   1.00
C739   C     0.40125   0.83337   0.48776   0.00000  Uiso   1.00
C740   C     0.59875   0.83329   0.51224   0.00000  Uiso   1.00
C741   C     0.34566   0.83371   0.48129   0.00000  Uiso   1.00
C742   C     0.65434   0.83295   0.51872   0.00000  Uiso   1.00
C743   C     0.50247   0.68760   0.45821   0.00000  Uiso   1.00
C744   C     0.49765   0.97907   0.54181   0.00000  Uiso   1.00
C745   C     0.50250   0.97833   0.45838   0.00000  Uiso   1.00
C746   C     0.49763   0.68834   0.54164   0.00000  Uiso   1.00
C747   C     0.50007   0.95721   0.50018   0.00000  Uiso   1.00
C748   C     0.50002   0.70945   0.49983   0.00000  Uiso   1.00
C749   C     0.46173   0.81176   0.35092   0.00000  Uiso   1.00
C750   C     0.53823   0.85494   0.64906   0.00000  Uiso   1.00
C751   C     0.46258   0.81232   0.63532   0.00000  Uiso   1.00
C752   C     0.53747   0.85428   0.36468   0.00000  Uiso   1.00
Cu753  Cu    0.50000   0.83334   0.54689   0.00000  Uiso   1.00
Cu754  Cu    0.50000   0.83333   0.45311   0.00000  Uiso   1.00
H755   H     0.65826   0.83479   0.44569   0.00000  Uiso   1.00
H756   H     0.34173   0.83187   0.55433   0.00000  Uiso   1.00
H757   H     0.50446   0.70332   0.42557   0.00000  Uiso   1.00
H758   H     0.49568   0.96335   0.57445   0.00000  Uiso   1.00
H759   H     0.50450   0.96204   0.42579   0.00000  Uiso   1.00
H760   H     0.49564   0.70463   0.57423   0.00000  Uiso   1.00
H761   H     0.43275   0.79621   0.61101   0.00000  Uiso   1.00
H762   H     0.56737   0.87034   0.38898   0.00000  Uiso   1.00
N763   N     0.50001   0.83334   0.61736   0.00000  Uiso   1.00
N764   N     0.49999   0.83332   0.38264   0.00000  Uiso   1.00
O765   O     0.50000   0.77322   0.53958   0.00000  Uiso   1.00
O766   O     0.50000   0.89345   0.46042   0.00000  Uiso   1.00
O767   O     0.50000   0.77321   0.46039   0.00000  Uiso   1.00
O768   O     0.50000   0.89346   0.53961   0.00000  Uiso   1.00
O769   O     0.42495   0.83334   0.53046   0.00000  Uiso   1.00
O770   O     0.57505   0.83333   0.46954   0.00000  Uiso   1.00
O771   O     0.42494   0.83333   0.45127   0.00000  Uiso   1.00
O772   O     0.57506   0.83334   0.54873   0.00000  Uiso   1.00
S773   S     0.40565   0.78478   0.36516   0.00000  Uiso   1.00
O774   O     0.41569   0.75947   0.40845   0.00000  Uiso   1.00
O775   O     0.36561   0.81562   0.37074   0.00000  Uiso   1.00
O776   O     0.38073   0.75239   0.65402   0.00000  Uiso   1.00
H777   H     0.34592   0.74377   0.66065   0.00000  Uiso   1.00
S778   S     0.59412   0.88221   0.63476   0.00000  Uiso   1.00
O779   O     0.63457   0.85166   0.62953   0.00000  Uiso   1.00
O780   O     0.58439   0.90720   0.59119   0.00000  Uiso   1.00
O781   O     0.61902   0.91484   0.34564   0.00000  Uiso   1.00
H782   H     0.59327   0.93647   0.34546   0.00000  Uiso   1.00
C783   C     0.83336   0.75413   0.49986   0.00000  Uiso   1.00
C784   C     0.83333   0.91254   0.50015   0.00000  Uiso   1.00
C785   C     0.73458   0.83337   0.48776   0.00000  Uiso   1.00
C786   C     0.93209   0.83329   0.51224   0.00000  Uiso   1.00
C787   C     0.67899   0.83371   0.48129   0.00000  Uiso   1.00
C788   C     0.98767   0.83295   0.51872   0.00000  Uiso   1.00
C789   C     0.83580   0.68760   0.45821   0.00000  Uiso   1.00
C790   C     0.83099   0.97907   0.54181   0.00000  Uiso   1.00
C791   C     0.83583   0.97833   0.45838   0.00000  Uiso   1.00
C792   C     0.83096   0.68834   0.54164   0.00000  Uiso   1.00
C793   C     0.83340   0.95721   0.50018   0.00000  Uiso   1.00
C794   C     0.83336   0.70945   0.49983   0.00000  Uiso   1.00
C795   C     0.79507   0.81176   0.35092   0.00000  Uiso   1.00
C796   C     0.87156   0.85494   0.64906   0.00000  Uiso   1.00
C797   C     0.79592   0.81232   0.63532   0.00000  Uiso   1.00
C798   C     0.87080   0.85428   0.36468   0.00000  Uiso   1.00
Cu799  Cu    0.83333   0.83334   0.54689   0.00000  Uiso   1.00
Cu800  Cu    0.83333   0.83333   0.45311   0.00000  Uiso   1.00
H801   H     0.99159   0.83479   0.44569   0.00000  Uiso   1.00
H802   H     0.67507   0.83187   0.55433   0.00000  Uiso   1.00
H803   H     0.83779   0.70332   0.42557   0.00000  Uiso   1.00
H804   H     0.82901   0.96335   0.57445   0.00000  Uiso   1.00
H805   H     0.83784   0.96204   0.42579   0.00000  Uiso   1.00
H806   H     0.82897   0.70463   0.57423   0.00000  Uiso   1.00
H807   H     0.76608   0.79621   0.61101   0.00000  Uiso   1.00
H808   H     0.90070   0.87034   0.38898   0.00000  Uiso   1.00
N809   N     0.83335   0.83334   0.61736   0.00000  Uiso   1.00
N810   N     0.83332   0.83332   0.38264   0.00000  Uiso   1.00
O811   O     0.83333   0.77322   0.53958   0.00000  Uiso   1.00
O812   O     0.83334   0.89345   0.46042   0.00000  Uiso   1.00
O813   O     0.83333   0.77321   0.46039   0.00000  Uiso   1.00
O814   O     0.83334   0.89346   0.53961   0.00000  Uiso   1.00
O815   O     0.75828   0.83334   0.53046   0.00000  Uiso   1.00
O816   O     0.90839   0.83333   0.46954   0.00000  Uiso   1.00
O817   O     0.75828   0.83333   0.45127   0.00000  Uiso   1.00
O818   O     0.90839   0.83334   0.54873   0.00000  Uiso   1.00
S819   S     0.73899   0.78478   0.36516   0.00000  Uiso   1.00
O820   O     0.74902   0.75947   0.40845   0.00000  Uiso   1.00
O821   O     0.69895   0.81562   0.37074   0.00000  Uiso   1.00
O822   O     0.71406   0.75239   0.65402   0.00000  Uiso   1.00
H823   H     0.67925   0.74377   0.66065   0.00000  Uiso   1.00
S824   S     0.92745   0.88221   0.63476   0.00000  Uiso   1.00
O825   O     0.96790   0.85166   0.62953   0.00000  Uiso   1.00
O826   O     0.91772   0.90720   0.59119   0.00000  Uiso   1.00
O827   O     0.95236   0.91484   0.34564   0.00000  Uiso   1.00
H828   H     0.92660   0.93647   0.34546   0.00000  Uiso   1.00
C829   C     0.16669   0.08746   0.83319   0.00000  Uiso   1.00
C830   C     0.16667   0.24587   0.83348   0.00000  Uiso   1.00
C831   C     0.06791   0.16671   0.82110   0.00000  Uiso   1.00
C832   C     0.26542   0.16662   0.84557   0.00000  Uiso   1.00
C833   C     0.01233   0.16705   0.81462   0.00000  Uiso   1.00
C834   C     0.32100   0.16628   0.85206   0.00000  Uiso   1.00
C835   C     0.16914   0.02094   0.79154   0.00000  Uiso   1.00
C836   C     0.16432   0.31240   0.87515   0.00000  Uiso   1.00
C837   C     0.16916   0.31166   0.79171   0.00000  Uiso   1.00
C838   C     0.16430   0.02167   0.87497   0.00000  Uiso   1.00
C839   C     0.16674   0.29055   0.83352   0.00000  Uiso   1.00
C840   C     0.16669   0.04279   0.83316   0.00000  Uiso   1.00
C841   C     0.12840   0.14510   0.68425   0.00000  Uiso   1.00
C842   C     0.20490   0.18828   0.98240   0.00000  Uiso   1.00
C843   C     0.12925   0.14566   0.96865   0.00000  Uiso   1.00
C844   C     0.20414   0.18762   0.69801   0.00000  Uiso   1.00
Cu845  Cu    0.16667   0.16667   0.88022   0.00000  Uiso   1.00
Cu846  Cu    0.16667   0.16666   0.78645   0.00000  Uiso   1.00
H847   H     0.32492   0.16812   0.77902   0.00000  Uiso   1.00
H848   H     0.00840   0.16521   0.88766   0.00000  Uiso   1.00
H849   H     0.17112   0.03665   0.75891   0.00000  Uiso   1.00
H850   H     0.16234   0.29669   0.90778   0.00000  Uiso   1.00
H851   H     0.17117   0.29538   0.75912   0.00000  Uiso   1.00
H852   H     0.16231   0.03796   0.90757   0.00000  Uiso   1.00
H853   H     0.09941   0.12955   0.94434   0.00000  Uiso   1.00
H854   H     0.23404   0.20367   0.72231   0.00000  Uiso   1.00
N855   N     0.16668   0.16668   0.95069   0.00000  Uiso   1.00
N856   N     0.16665   0.16666   0.71597   0.00000  Uiso   1.00
O857   O     0.16666   0.10655   0.87291   0.00000  Uiso   1.00
O858   O     0.16667   0.22678   0.79375   0.00000  Uiso   1.00
O859   O     0.16666   0.10654   0.79372   0.00000  Uiso   1.00
O860   O     0.16667   0.22679   0.87294   0.00000  Uiso   1.00
O861   O     0.09161   0.16667   0.86379   0.00000  Uiso   1.00
O862   O     0.24172   0.16666   0.80288   0.00000  Uiso   1.00
O863   O     0.09161   0.16666   0.78460   0.00000  Uiso   1.00
O864   O     0.24172   0.16667   0.88207   0.00000  Uiso   1.00
S865   S     0.07232   0.11811   0.69850   0.00000  Uiso   1.00
O866   O     0.08236   0.09281   0.74179   0.00000  Uiso   1.00
O867   O     0.03228   0.14896   0.70408   0.00000  Uiso   1.00
O868   O     0.04740   0.08573   0.98736   0.00000  Uiso   1.00
H869   H     0.01258   0.07711   0.99399   0.00000  Uiso   1.00
S870   S     0.26078   0.21554   0.96809   0.00000  Uiso   1.00
O871   O     0.30123   0.18499   0.96286   0.00000  Uiso   1.00
O872   O     0.25106   0.24053   0.92452   0.00000  Uiso   1.00
O873   O     0.28569   0.24818   0.67897   0.00000  Uiso   1.00
H874   H     0.25994   0.26981   0.67879   0.00000  Uiso   1.00
C875   C     0.50003   0.08746   0.83319   0.00000  Uiso   1.00
C876   C     0.50000   0.24587   0.83348   0.00000  Uiso   1.00
C877   C     0.40125   0.16671   0.82110   0.00000  Uiso   1.00
C878   C     0.59875   0.16662   0.84557   0.00000  Uiso   1.00
C879   C     0.34566   0.16705   0.81462   0.00000  Uiso   1.00
C880   C     0.65434   0.16628   0.85206   0.00000  Uiso   1.00
C881   C     0.50247   0.02094   0.79154   0.00000  Uiso   1.00
C882   C     0.49765   0.31240   0.87515   0.00000  Uiso   1.00
C883   C     0.50250   0.31166   0.79171   0.00000  Uiso   1.00
C884   C     0.49763   0.02167   0.87497   0.00000  Uiso   1.00
C885   C     0.50007   0.29055   0.83352   0.00000  Uiso   1.00
C886   C     0.50002   0.04279   0.83316   0.00000  Uiso   1.00
C887   C     0.46173   0.14510   0.68425   0.00000  Uiso   1.00
C888   C     0.53823   0.18828   0.98240   0.00000  Uiso   1.00
C889   C     0.46258   0.14566   0.96865   0.00000  Uiso   1.00
C890   C     0.53747   0.18762   0.69801   0.00000  Uiso   1.00
Cu891  Cu    0.50000   0.16667   0.88022   0.00000  Uiso   1.00
Cu892  Cu    0.50000   0.16666   0.78645   0.00000  Uiso   1.00
H893   H     0.65826   0.16812   0.77902   0.00000  Uiso   1.00
H894   H     0.34173   0.16521   0.88766   0.00000  Uiso   1.00
H895   H     0.50446   0.03665   0.75891   0.00000  Uiso   1.00
H896   H     0.49568   0.29669   0.90778   0.00000  Uiso   1.00
H897   H     0.50450   0.29538   0.75912   0.00000  Uiso   1.00
H898   H     0.49564   0.03796   0.90757   0.00000  Uiso   1.00
H899   H     0.43275   0.12955   0.94434   0.00000  Uiso   1.00
H900   H     0.56737   0.20367   0.72231   0.00000  Uiso   1.00
N901   N     0.50001   0.16668   0.95069   0.00000  Uiso   1.00
N902   N     0.49999   0.16666   0.71597   0.00000  Uiso   1.00
O903   O     0.50000   0.10655   0.87291   0.00000  Uiso   1.00
O904   O     0.50000   0.22678   0.79375   0.00000  Uiso   1.00
O905   O     0.50000   0.10654   0.79372   0.00000  Uiso   1.00
O906   O     0.50000   0.22679   0.87294   0.00000  Uiso   1.00
O907   O     0.42495   0.16667   0.86379   0.00000  Uiso   1.00
O908   O     0.57505   0.16666   0.80288   0.00000  Uiso   1.00
O909   O     0.42494   0.16666   0.78460   0.00000  Uiso   1.00
O910   O     0.57506   0.16667   0.88207   0.00000  Uiso   1.00
S911   S     0.40565   0.11811   0.69850   0.00000  Uiso   1.00
O912   O     0.41569   0.09281   0.74179   0.00000  Uiso   1.00
O913   O     0.36561   0.14896   0.70408   0.00000  Uiso   1.00
O914   O     0.38073   0.08573   0.98736   0.00000  Uiso   1.00
H915   H     0.34592   0.07711   0.99399   0.00000  Uiso   1.00
S916   S     0.59412   0.21554   0.96809   0.00000  Uiso   1.00
O917   O     0.63457   0.18499   0.96286   0.00000  Uiso   1.00
O918   O     0.58439   0.24053   0.92452   0.00000  Uiso   1.00
O919   O     0.61902   0.24818   0.67897   0.00000  Uiso   1.00
H920   H     0.59327   0.26981   0.67879   0.00000  Uiso   1.00
C921   C     0.83336   0.08746   0.83319   0.00000  Uiso   1.00
C922   C     0.83333   0.24587   0.83348   0.00000  Uiso   1.00
C923   C     0.73458   0.16671   0.82110   0.00000  Uiso   1.00
C924   C     0.93209   0.16662   0.84557   0.00000  Uiso   1.00
C925   C     0.67899   0.16705   0.81462   0.00000  Uiso   1.00
C926   C     0.98767   0.16628   0.85206   0.00000  Uiso   1.00
C927   C     0.83580   0.02094   0.79154   0.00000  Uiso   1.00
C928   C     0.83099   0.31240   0.87515   0.00000  Uiso   1.00
C929   C     0.83583   0.31166   0.79171   0.00000  Uiso   1.00
C930   C     0.83096   0.02167   0.87497   0.00000  Uiso   1.00
C931   C     0.83340   0.29055   0.83352   0.00000  Uiso   1.00
C932   C     0.83336   0.04279   0.83316   0.00000  Uiso   1.00
C933   C     0.79507   0.14510   0.68425   0.00000  Uiso   1.00
C934   C     0.87156   0.18828   0.98240   0.00000  Uiso   1.00
C935   C     0.79592   0.14566   0.96865   0.00000  Uiso   1.00
C936   C     0.87080   0.18762   0.69801   0.00000  Uiso   1.00
Cu937  Cu    0.83333   0.16667   0.88022   0.00000  Uiso   1.00
Cu938  Cu    0.83333   0.16666   0.78645   0.00000  Uiso   1.00
H939   H     0.99159   0.16812   0.77902   0.00000  Uiso   1.00
H940   H     0.67507   0.16521   0.88766   0.00000  Uiso   1.00
H941   H     0.83779   0.03665   0.75891   0.00000  Uiso   1.00
H942   H     0.82901   0.29669   0.90778   0.00000  Uiso   1.00
H943   H     0.83784   0.29538   0.75912   0.00000  Uiso   1.00
H944   H     0.82897   0.03796   0.90757   0.00000  Uiso   1.00
H945   H     0.76608   0.12955   0.94434   0.00000  Uiso   1.00
H946   H     0.90070   0.20367   0.72231   0.00000  Uiso   1.00
N947   N     0.83335   0.16668   0.95069   0.00000  Uiso   1.00
N948   N     0.83332   0.16666   0.71597   0.00000  Uiso   1.00
O949   O     0.83333   0.10655   0.87291   0.00000  Uiso   1.00
O950   O     0.83334   0.22678   0.79375   0.00000  Uiso   1.00
O951   O     0.83333   0.10654   0.79372   0.00000  Uiso   1.00
O952   O     0.83334   0.22679   0.87294   0.00000  Uiso   1.00
O953   O     0.75828   0.16667   0.86379   0.00000  Uiso   1.00
O954   O     0.90839   0.16666   0.80288   0.00000  Uiso   1.00
O955   O     0.75828   0.16666   0.78460   0.00000  Uiso   1.00
O956   O     0.90839   0.16667   0.88207   0.00000  Uiso   1.00
S957   S     0.73899   0.11811   0.69850   0.00000  Uiso   1.00
O958   O     0.74902   0.09281   0.74179   0.00000  Uiso   1.00
O959   O     0.69895   0.14896   0.70408   0.00000  Uiso   1.00
O960   O     0.71406   0.08573   0.98736   0.00000  Uiso   1.00
H961   H     0.67925   0.07711   0.99399   0.00000  Uiso   1.00
S962   S     0.92745   0.21554   0.96809   0.00000  Uiso   1.00
O963   O     0.96790   0.18499   0.96286   0.00000  Uiso   1.00
O964   O     0.91772   0.24053   0.92452   0.00000  Uiso   1.00
O965   O     0.95236   0.24818   0.67897   0.00000  Uiso   1.00
H966   H     0.92660   0.26981   0.67879   0.00000  Uiso   1.00
C967   C     0.16669   0.42079   0.83319   0.00000  Uiso   1.00
C968   C     0.16667   0.57921   0.83348   0.00000  Uiso   1.00
C969   C     0.06791   0.50004   0.82110   0.00000  Uiso   1.00
C970   C     0.26542   0.49996   0.84557   0.00000  Uiso   1.00
C971   C     0.01233   0.50038   0.81462   0.00000  Uiso   1.00
C972   C     0.32100   0.49961   0.85206   0.00000  Uiso   1.00
C973   C     0.16914   0.35427   0.79154   0.00000  Uiso   1.00
C974   C     0.16432   0.64573   0.87515   0.00000  Uiso   1.00
C975   C     0.16916   0.64500   0.79171   0.00000  Uiso   1.00
C976   C     0.16430   0.35500   0.87497   0.00000  Uiso   1.00
C977   C     0.16674   0.62388   0.83352   0.00000  Uiso   1.00
C978   C     0.16669   0.37612   0.83316   0.00000  Uiso   1.00
C979   C     0.12840   0.47843   0.68425   0.00000  Uiso   1.00
C980   C     0.20490   0.52161   0.98240   0.00000  Uiso   1.00
C981   C     0.12925   0.47899   0.96865   0.00000  Uiso   1.00
C982   C     0.20414   0.52095   0.69801   0.00000  Uiso   1.00
Cu983  Cu    0.16667   0.50001   0.88022   0.00000  Uiso   1.00
Cu984  Cu    0.16667   0.49999   0.78645   0.00000  Uiso   1.00
H985   H     0.32492   0.50146   0.77902   0.00000  Uiso   1.00
H986   H     0.00840   0.49854   0.88766   0.00000  Uiso   1.00
H987   H     0.17112   0.36998   0.75891   0.00000  Uiso   1.00
H988   H     0.16234   0.63002   0.90778   0.00000  Uiso   1.00
H989   H     0.17117   0.62871   0.75912   0.00000  Uiso   1.00
H990   H     0.16231   0.37129   0.90757   0.00000  Uiso   1.00
H991   H     0.09941   0.46288   0.94434   0.00000  Uiso   1.00
H992   H     0.23404   0.53700   0.72231   0.00000  Uiso   1.00
N993   N     0.16668   0.50001   0.95069   0.00000  Uiso   1.00
N994   N     0.16665   0.49999   0.71597   0.00000  Uiso   1.00
O995   O     0.16666   0.43989   0.87291   0.00000  Uiso   1.00
O996   O     0.16667   0.56011   0.79375   0.00000  Uiso   1.00
O997   O     0.16666   0.43988   0.79372   0.00000  Uiso   1.00
O998   O     0.16667   0.56012   0.87294   0.00000  Uiso   1.00
O999   O     0.09161   0.50000   0.86379   0.00000  Uiso   1.00
O1000  O     0.24172   0.50000   0.80288   0.00000  Uiso   1.00
O1001  O     0.09161   0.49999   0.78460   0.00000  Uiso   1.00
O1002  O     0.24172   0.50001   0.88207   0.00000  Uiso   1.00
S1003  S     0.07232   0.45144   0.69850   0.00000  Uiso   1.00
O1004  O     0.08236   0.42614   0.74179   0.00000  Uiso   1.00
O1005  O     0.03228   0.48229   0.70408   0.00000  Uiso   1.00
O1006  O     0.04740   0.41906   0.98736   0.00000  Uiso   1.00
H1007  H     0.01258   0.41044   0.99399   0.00000  Uiso   1.00
S1008  S     0.26078   0.54888   0.96809   0.00000  Uiso   1.00
O1009  O     0.30123   0.51832   0.96286   0.00000  Uiso   1.00
O1010  O     0.25106   0.57386   0.92452   0.00000  Uiso   1.00
O1011  O     0.28569   0.58151   0.67897   0.00000  Uiso   1.00
H1012  H     0.25994   0.60314   0.67879   0.00000  Uiso   1.00
C1013  C     0.50003   0.42079   0.83319   0.00000  Uiso   1.00
C1014  C     0.50000   0.57921   0.83348   0.00000  Uiso   1.00
C1015  C     0.40125   0.50004   0.82110   0.00000  Uiso   1.00
C1016  C     0.59875   0.49996   0.84557   0.00000  Uiso   1.00
C1017  C     0.34566   0.50038   0.81462   0.00000  Uiso   1.00
C1018  C     0.65434   0.49961   0.85206   0.00000  Uiso   1.00
C1019  C     0.50247   0.35427   0.79154   0.00000  Uiso   1.00
C1020  C     0.49765   0.64573   0.87515   0.00000  Uiso   1.00
C1021  C     0.50250   0.64500   0.79171   0.00000  Uiso   1.00
C1022  C     0.49763   0.35500   0.87497   0.00000  Uiso   1.00
C1023  C     0.50007   0.62388   0.83352   0.00000  Uiso   1.00
C1024  C     0.50002   0.37612   0.83316   0.00000  Uiso   1.00
C1025  C     0.46173   0.47843   0.68425   0.00000  Uiso   1.00
C1026  C     0.53823   0.52161   0.98240   0.00000  Uiso   1.00
C1027  C     0.46258   0.47899   0.96865   0.00000  Uiso   1.00
C1028  C     0.53747   0.52095   0.69801   0.00000  Uiso   1.00
Cu1029 Cu    0.50000   0.50001   0.88022   0.00000  Uiso   1.00
Cu1030 Cu    0.50000   0.49999   0.78645   0.00000  Uiso   1.00
H1031  H     0.65826   0.50146   0.77902   0.00000  Uiso   1.00
H1032  H     0.34173   0.49854   0.88766   0.00000  Uiso   1.00
H1033  H     0.50446   0.36998   0.75891   0.00000  Uiso   1.00
H1034  H     0.49568   0.63002   0.90778   0.00000  Uiso   1.00
H1035  H     0.50450   0.62871   0.75912   0.00000  Uiso   1.00
H1036  H     0.49564   0.37129   0.90757   0.00000  Uiso   1.00
H1037  H     0.43275   0.46288   0.94434   0.00000  Uiso   1.00
H1038  H     0.56737   0.53700   0.72231   0.00000  Uiso   1.00
N1039  N     0.50001   0.50001   0.95069   0.00000  Uiso   1.00
N1040  N     0.49999   0.49999   0.71597   0.00000  Uiso   1.00
O1041  O     0.50000   0.43989   0.87291   0.00000  Uiso   1.00
O1042  O     0.50000   0.56011   0.79375   0.00000  Uiso   1.00
O1043  O     0.50000   0.43988   0.79372   0.00000  Uiso   1.00
O1044  O     0.50000   0.56012   0.87294   0.00000  Uiso   1.00
O1045  O     0.42495   0.50000   0.86379   0.00000  Uiso   1.00
O1046  O     0.57505   0.50000   0.80288   0.00000  Uiso   1.00
O1047  O     0.42494   0.49999   0.78460   0.00000  Uiso   1.00
O1048  O     0.57506   0.50001   0.88207   0.00000  Uiso   1.00
S1049  S     0.40565   0.45144   0.69850   0.00000  Uiso   1.00
O1050  O     0.41569   0.42614   0.74179   0.00000  Uiso   1.00
O1051  O     0.36561   0.48229   0.70408   0.00000  Uiso   1.00
O1052  O     0.38073   0.41906   0.98736   0.00000  Uiso   1.00
H1053  H     0.34592   0.41044   0.99399   0.00000  Uiso   1.00
S1054  S     0.59412   0.54888   0.96809   0.00000  Uiso   1.00
O1055  O     0.63457   0.51832   0.96286   0.00000  Uiso   1.00
O1056  O     0.58439   0.57386   0.92452   0.00000  Uiso   1.00
O1057  O     0.61902   0.58151   0.67897   0.00000  Uiso   1.00
H1058  H     0.59327   0.60314   0.67879   0.00000  Uiso   1.00
C1059  C     0.83336   0.42079   0.83319   0.00000  Uiso   1.00
C1060  C     0.83333   0.57921   0.83348   0.00000  Uiso   1.00
C1061  C     0.73458   0.50004   0.82110   0.00000  Uiso   1.00
C1062  C     0.93209   0.49996   0.84557   0.00000  Uiso   1.00
C1063  C     0.67899   0.50038   0.81462   0.00000  Uiso   1.00
C1064  C     0.98767   0.49961   0.85206   0.00000  Uiso   1.00
C1065  C     0.83580   0.35427   0.79154   0.00000  Uiso   1.00
C1066  C     0.83099   0.64573   0.87515   0.00000  Uiso   1.00
C1067  C     0.83583   0.64500   0.79171   0.00000  Uiso   1.00
C1068  C     0.83096   0.35500   0.87497   0.00000  Uiso   1.00
C1069  C     0.83340   0.62388   0.83352   0.00000  Uiso   1.00
C1070  C     0.83336   0.37612   0.83316   0.00000  Uiso   1.00
C1071  C     0.79507   0.47843   0.68425   0.00000  Uiso   1.00
C1072  C     0.87156   0.52161   0.98240   0.00000  Uiso   1.00
C1073  C     0.79592   0.47899   0.96865   0.00000  Uiso   1.00
C1074  C     0.87080   0.52095   0.69801   0.00000  Uiso   1.00
Cu1075 Cu    0.83333   0.50001   0.88022   0.00000  Uiso   1.00
Cu1076 Cu    0.83333   0.49999   0.78645   0.00000  Uiso   1.00
H1077  H     0.99159   0.50146   0.77902   0.00000  Uiso   1.00
H1078  H     0.67507   0.49854   0.88766   0.00000  Uiso   1.00
H1079  H     0.83779   0.36998   0.75891   0.00000  Uiso   1.00
H1080  H     0.82901   0.63002   0.90778   0.00000  Uiso   1.00
H1081  H     0.83784   0.62871   0.75912   0.00000  Uiso   1.00
H1082  H     0.82897   0.37129   0.90757   0.00000  Uiso   1.00
H1083  H     0.76608   0.46288   0.94434   0.00000  Uiso   1.00
H1084  H     0.90070   0.53700   0.72231   0.00000  Uiso   1.00
N1085  N     0.83335   0.50001   0.95069   0.00000  Uiso   1.00
N1086  N     0.83332   0.49999   0.71597   0.00000  Uiso   1.00
O1087  O     0.83333   0.43989   0.87291   0.00000  Uiso   1.00
O1088  O     0.83334   0.56011   0.79375   0.00000  Uiso   1.00
O1089  O     0.83333   0.43988   0.79372   0.00000  Uiso   1.00
O1090  O     0.83334   0.56012   0.87294   0.00000  Uiso   1.00
O1091  O     0.75828   0.50000   0.86379   0.00000  Uiso   1.00
O1092  O     0.90839   0.50000   0.80288   0.00000  Uiso   1.00
O1093  O     0.75828   0.49999   0.78460   0.00000  Uiso   1.00
O1094  O     0.90839   0.50001   0.88207   0.00000  Uiso   1.00
S1095  S     0.73899   0.45144   0.69850   0.00000  Uiso   1.00
O1096  O     0.74902   0.42614   0.74179   0.00000  Uiso   1.00
O1097  O     0.69895   0.48229   0.70408   0.00000  Uiso   1.00
O1098  O     0.71406   0.41906   0.98736   0.00000  Uiso   1.00
H1099  H     0.67925   0.41044   0.99399   0.00000  Uiso   1.00
S1100  S     0.92745   0.54888   0.96809   0.00000  Uiso   1.00
O1101  O     0.96790   0.51832   0.96286   0.00000  Uiso   1.00
O1102  O     0.91772   0.57386   0.92452   0.00000  Uiso   1.00
O1103  O     0.95236   0.58151   0.67897   0.00000  Uiso   1.00
H1104  H     0.92660   0.60314   0.67879   0.00000  Uiso   1.00
C1105  C     0.16669   0.75413   0.83319   0.00000  Uiso   1.00
C1106  C     0.16667   0.91254   0.83348   0.00000  Uiso   1.00
C1107  C     0.06791   0.83337   0.82110   0.00000  Uiso   1.00
C1108  C     0.26542   0.83329   0.84557   0.00000  Uiso   1.00
C1109  C     0.01233   0.83371   0.81462   0.00000  Uiso   1.00
C1110  C     0.32100   0.83295   0.85206   0.00000  Uiso   1.00
C1111  C     0.16914   0.68760   0.79154   0.00000  Uiso   1.00
C1112  C     0.16432   0.97907   0.87515   0.00000  Uiso   1.00
C1113  C     0.16916   0.97833   0.79171   0.00000  Uiso   1.00
C1114  C     0.16430   0.68834   0.87497   0.00000  Uiso   1.00
C1115  C     0.16674   0.95721   0.83352   0.00000  Uiso   1.00
C1116  C     0.16669   0.70945   0.83316   0.00000  Uiso   1.00
C1117  C     0.12840   0.81176   0.68425   0.00000  Uiso   1.00
C1118  C     0.20490   0.85494   0.98240   0.00000  Uiso   1.00
C1119  C     0.12925   0.81232   0.96865   0.00000  Uiso   1.00
C1120  C     0.20414   0.85428   0.69801   0.00000  Uiso   1.00
Cu1121 Cu    0.16667   0.83334   0.88022   0.00000  Uiso   1.00
Cu1122 Cu    0.16667   0.83333   0.78645   0.00000  Uiso   1.00
H1123  H     0.32492   0.83479   0.77902   0.00000  Uiso   1.00
H1124  H     0.00840   0.83187   0.88766   0.00000  Uiso   1.00
H1125  H     0.17112   0.70332   0.75891   0.00000  Uiso   1.00
H1126  H     0.16234   0.96335   0.90778   0.00000  Uiso   1.00
H1127  H     0.17117   0.96204   0.75912   0.00000  Uiso   1.00
H1128  H     0.16231   0.70463   0.90757   0.00000  Uiso   1.00
H1129  H     0.09941   0.79621   0.94434   0.00000  Uiso   1.00
H1130  H     0.23404   0.87034   0.72231   0.00000  Uiso   1.00
N1131  N     0.16668   0.83334   0.95069   0.00000  Uiso   1.00
N1132  N     0.16665   0.83332   0.71597   0.00000  Uiso   1.00
O1133  O     0.16666   0.77322   0.87291   0.00000  Uiso   1.00
O1134  O     0.16667   0.89345   0.79375   0.00000  Uiso   1.00
O1135  O     0.16666   0.77321   0.79372   0.00000  Uiso   1.00
O1136  O     0.16667   0.89346   0.87294   0.00000  Uiso   1.00
O1137  O     0.09161   0.83334   0.86379   0.00000  Uiso   1.00
O1138  O     0.24172   0.83333   0.80288   0.00000  Uiso   1.00
O1139  O     0.09161   0.83333   0.78460   0.00000  Uiso   1.00
O1140  O     0.24172   0.83334   0.88207   0.00000  Uiso   1.00
S1141  S     0.07232   0.78478   0.69850   0.00000  Uiso   1.00
O1142  O     0.08236   0.75947   0.74179   0.00000  Uiso   1.00
O1143  O     0.03228   0.81562   0.70408   0.00000  Uiso   1.00
O1144  O     0.04740   0.75239   0.98736   0.00000  Uiso   1.00
H1145  H     0.01258   0.74377   0.99399   0.00000  Uiso   1.00
S1146  S     0.26078   0.88221   0.96809   0.00000  Uiso   1.00
O1147  O     0.30123   0.85166   0.96286   0.00000  Uiso   1.00
O1148  O     0.25106   0.90720   0.92452   0.00000  Uiso   1.00
O1149  O     0.28569   0.91484   0.67897   0.00000  Uiso   1.00
H1150  H     0.25994   0.93647   0.67879   0.00000  Uiso   1.00
C1151  C     0.50003   0.75413   0.83319   0.00000  Uiso   1.00
C1152  C     0.50000   0.91254   0.83348   0.00000  Uiso   1.00
C1153  C     0.40125   0.83337   0.82110   0.00000  Uiso   1.00
C1154  C     0.59875   0.83329   0.84557   0.00000  Uiso   1.00
C1155  C     0.34566   0.83371   0.81462   0.00000  Uiso   1.00
C1156  C     0.65434   0.83295   0.85206   0.00000  Uiso   1.00
C1157  C     0.50247   0.68760   0.79154   0.00000  Uiso   1.00
C1158  C     0.49765   0.97907   0.87515   0.00000  Uiso   1.00
C1159  C     0.50250   0.97833   0.79171   0.00000  Uiso   1.00
C1160  C     0.49763   0.68834   0.87497   0.00000  Uiso   1.00
C1161  C     0.50007   0.95721   0.83352   0.00000  Uiso   1.00
C1162  C     0.50002   0.70945   0.83316   0.00000  Uiso   1.00
C1163  C     0.46173   0.81176   0.68425   0.00000  Uiso   1.00
C1164  C     0.53823   0.85494   0.98240   0.00000  Uiso   1.00
C1165  C     0.46258   0.81232   0.96865   0.00000  Uiso   1.00
C1166  C     0.53747   0.85428   0.69801   0.00000  Uiso   1.00
Cu1167 Cu    0.50000   0.83334   0.88022   0.00000  Uiso   1.00
Cu1168 Cu    0.50000   0.83333   0.78645   0.00000  Uiso   1.00
H1169  H     0.65826   0.83479   0.77902   0.00000  Uiso   1.00
H1170  H     0.34173   0.83187   0.88766   0.00000  Uiso   1.00
H1171  H     0.50446   0.70332   0.75891   0.00000  Uiso   1.00
H1172  H     0.49568   0.96335   0.90778   0.00000  Uiso   1.00
H1173  H     0.50450   0.96204   0.75912   0.00000  Uiso   1.00
H1174  H     0.49564   0.70463   0.90757   0.00000  Uiso   1.00
H1175  H     0.43275   0.79621   0.94434   0.00000  Uiso   1.00
H1176  H     0.56737   0.87034   0.72231   0.00000  Uiso   1.00
N1177  N     0.50001   0.83334   0.95069   0.00000  Uiso   1.00
N1178  N     0.49999   0.83332   0.71597   0.00000  Uiso   1.00
O1179  O     0.50000   0.77322   0.87291   0.00000  Uiso   1.00
O1180  O     0.50000   0.89345   0.79375   0.00000  Uiso   1.00
O1181  O     0.50000   0.77321   0.79372   0.00000  Uiso   1.00
O1182  O     0.50000   0.89346   0.87294   0.00000  Uiso   1.00
O1183  O     0.42495   0.83334   0.86379   0.00000  Uiso   1.00
O1184  O     0.57505   0.83333   0.80288   0.00000  Uiso   1.00
O1185  O     0.42494   0.83333   0.78460   0.00000  Uiso   1.00
O1186  O     0.57506   0.83334   0.88207   0.00000  Uiso   1.00
S1187  S     0.40565   0.78478   0.69850   0.00000  Uiso   1.00
O1188  O     0.41569   0.75947   0.74179   0.00000  Uiso   1.00
O1189  O     0.36561   0.81562   0.70408   0.00000  Uiso   1.00
O1190  O     0.38073   0.75239   0.98736   0.00000  Uiso   1.00
H1191  H     0.34592   0.74377   0.99399   0.00000  Uiso   1.00
S1192  S     0.59412   0.88221   0.96809   0.00000  Uiso   1.00
O1193  O     0.63457   0.85166   0.96286   0.00000  Uiso   1.00
O1194  O     0.58439   0.90720   0.92452   0.00000  Uiso   1.00
O1195  O     0.61902   0.91484   0.67897   0.00000  Uiso   1.00
H1196  H     0.59327   0.93647   0.67879   0.00000  Uiso   1.00
C1197  C     0.83336   0.75413   0.83319   0.00000  Uiso   1.00
C1198  C     0.83333   0.91254   0.83348   0.00000  Uiso   1.00
C1199  C     0.73458   0.83337   0.82110   0.00000  Uiso   1.00
C1200  C     0.93209   0.83329   0.84557   0.00000  Uiso   1.00
C1201  C     0.67899   0.83371   0.81462   0.00000  Uiso   1.00
C1202  C     0.98767   0.83295   0.85206   0.00000  Uiso   1.00
C1203  C     0.83580   0.68760   0.79154   0.00000  Uiso   1.00
C1204  C     0.83099   0.97907   0.87515   0.00000  Uiso   1.00
C1205  C     0.83583   0.97833   0.79171   0.00000  Uiso   1.00
C1206  C     0.83096   0.68834   0.87497   0.00000  Uiso   1.00
C1207  C     0.83340   0.95721   0.83352   0.00000  Uiso   1.00
C1208  C     0.83336   0.70945   0.83316   0.00000  Uiso   1.00
C1209  C     0.79507   0.81176   0.68425   0.00000  Uiso   1.00
C1210  C     0.87156   0.85494   0.98240   0.00000  Uiso   1.00
C1211  C     0.79592   0.81232   0.96865   0.00000  Uiso   1.00
C1212  C     0.87080   0.85428   0.69801   0.00000  Uiso   1.00
Cu1213 Cu    0.83333   0.83334   0.88022   0.00000  Uiso   1.00
Cu1214 Cu    0.83333   0.83333   0.78645   0.00000  Uiso   1.00
H1215  H     0.99159   0.83479   0.77902   0.00000  Uiso   1.00
H1216  H     0.67507   0.83187   0.88766   0.00000  Uiso   1.00
H1217  H     0.83779   0.70332   0.75891   0.00000  Uiso   1.00
H1218  H     0.82901   0.96335   0.90778   0.00000  Uiso   1.00
H1219  H     0.83784   0.96204   0.75912   0.00000  Uiso   1.00
H1220  H     0.82897   0.70463   0.90757   0.00000  Uiso   1.00
H1221  H     0.76608   0.79621   0.94434   0.00000  Uiso   1.00
H1222  H     0.90070   0.87034   0.72231   0.00000  Uiso   1.00
N1223  N     0.83335   0.83334   0.95069   0.00000  Uiso   1.00
N1224  N     0.83332   0.83332   0.71597   0.00000  Uiso   1.00
O1225  O     0.83333   0.77322   0.87291   0.00000  Uiso   1.00
O1226  O     0.83334   0.89345   0.79375   0.00000  Uiso   1.00
O1227  O     0.83333   0.77321   0.79372   0.00000  Uiso   1.00
O1228  O     0.83334   0.89346   0.87294   0.00000  Uiso   1.00
O1229  O     0.75828   0.83334   0.86379   0.00000  Uiso   1.00
O1230  O     0.90839   0.83333   0.80288   0.00000  Uiso   1.00
O1231  O     0.75828   0.83333   0.78460   0.00000  Uiso   1.00
O1232  O     0.90839   0.83334   0.88207   0.00000  Uiso   1.00
S1233  S     0.73899   0.78478   0.69850   0.00000  Uiso   1.00
O1234  O     0.74902   0.75947   0.74179   0.00000  Uiso   1.00
O1235  O     0.69895   0.81562   0.70408   0.00000  Uiso   1.00
O1236  O     0.71406   0.75239   0.98736   0.00000  Uiso   1.00
H1237  H     0.67925   0.74377   0.99399   0.00000  Uiso   1.00
S1238  S     0.92745   0.88221   0.96809   0.00000  Uiso   1.00
O1239  O     0.96790   0.85166   0.96286   0.00000  Uiso   1.00
O1240  O     0.91772   0.90720   0.92452   0.00000  Uiso   1.00
O1241  O     0.95236   0.91484   0.67897   0.00000  Uiso   1.00
H1242  H     0.92660   0.93647   0.67879   0.00000  Uiso   1.00
loop_
_geom_bond_atom_site_label_1
_geom_bond_atom_site_label_2
_geom_bond_distance
_geom_bond_site_symmetry_2
_ccdc_geom_bond_type
C1     O29     1.297   .     A
C1     C12     1.450   .     S
C1     O31     1.302   .     A
C2     C11     1.450   .     S
C2     O30     1.297   .     A
C2     O32     1.302   .     A
C3     O35     1.303   .     A
C3     O33     1.290   .     A
C3     C5      1.438   .     S
C4     O36     1.303   .     A
C4     O34     1.290   .     A
C4     C6      1.438   .     S
C5     C98     1.342   1_455 S
C5     H111    1.086   1_455 S
C6     C51     1.342   .     S
C6     H66     1.086   .     S
C7     C12     1.400   .     A
C7     H21     1.083   .     S
C7     C285    1.383   1_545 S
C8     H22     1.083   .     S
C8     C11     1.399   .     A
C8     C148    1.383   .     S
C9     C11     1.403   .     A
C9     H23     1.083   .     S
C9     C145    1.383   .     S
C10    C12     1.403   .     A
C10    H24     1.083   .     S
C10    C284    1.383   1_545 S
C13    N28     1.406   .     A
C13    S37     1.786   .     S
C13    C843    1.416   1_554 S
C14    N27     1.406   .     A
C14    S42     1.787   .     S
C14    C430    1.416   .     S
C15    N27     1.345   .     A
C15    H25     1.080   .     S
C15    C427    1.416   .     S
C16    N28     1.345   .     A
C16    H26     1.080   .     S
C16    C842    1.416   1_554 S
Cu17   O36     1.957   .     S
Cu17   Cu18    2.706   .     S
Cu17   O33     1.948   .     S
Cu17   N27     2.033   .     S
Cu17   O29     1.961   .     S
Cu17   O32     1.965   .     S
Cu18   O35     1.957   .     S
Cu18   N28     2.033   .     S
Cu18   O30     1.961   .     S
Cu18   O34     1.948   .     S
Cu18   O31     1.965   .     S
H19    C51     1.086   .     S
H20    C98     1.086   1_455 S
S37    O38     1.497   .     D
S37    O39     1.502   .     D
S37    O868    1.684   1_554 S
O40    H41     0.991   .     S
O40    S451    1.684   .     S
S42    O44     1.497   .     D
S42    O43     1.501   .     D
S42    O459    1.683   .     S
O45    H46     0.991   .     S
O45    S870    1.683   1_554 S
C47    O75     1.297   .     A
C47    C58     1.450   .     S
C47    O77     1.302   .     A
C48    C57     1.450   .     S
C48    O76     1.297   .     A
C48    O78     1.302   .     A
C49    O81     1.303   .     A
C49    O79     1.290   .     A
C49    C51     1.438   .     S
C50    O82     1.303   .     A
C50    O80     1.290   .     A
C50    C52     1.438   .     S
C52    C97     1.342   .     S
C52    H112    1.086   .     S
C53    C58     1.400   .     A
C53    H67     1.083   .     S
C53    C331    1.383   1_545 S
C54    H68     1.083   .     S
C54    C57     1.399   .     A
C54    C194    1.383   .     S
C55    C57     1.403   .     A
C55    H69     1.083   .     S
C55    C191    1.383   .     S
C56    C58     1.403   .     A
C56    H70     1.083   .     S
C56    C330    1.383   1_545 S
C59    N74     1.406   .     A
C59    S83     1.786   .     S
C59    C889    1.416   1_554 S
C60    N73     1.406   .     A
C60    S88     1.787   .     S
C60    C476    1.416   .     S
C61    N73     1.345   .     A
C61    H71     1.080   .     S
C61    C473    1.416   .     S
C62    N74     1.345   .     A
C62    H72     1.080   .     S
C62    C888    1.416   1_554 S
Cu63   O82     1.957   .     S
Cu63   Cu64    2.706   .     S
Cu63   O79     1.948   .     S
Cu63   N73     2.033   .     S
Cu63   O75     1.961   .     S
Cu63   O78     1.965   .     S
Cu64   O81     1.957   .     S
Cu64   N74     2.033   .     S
Cu64   O76     1.961   .     S
Cu64   O80     1.948   .     S
Cu64   O77     1.965   .     S
H65    C97     1.086   .     S
S83    O84     1.497   .     D
S83    O85     1.502   .     D
S83    O914    1.684   1_554 S
O86    H87     0.991   .     S
O86    S497    1.684   .     S
S88    O90     1.497   .     D
S88    O89     1.501   .     D
S88    O505    1.683   .     S
O91    H92     0.991   .     S
O91    S916    1.683   1_554 S
C93    O121    1.297   .     A
C93    C104    1.450   .     S
C93    O123    1.302   .     A
C94    C103    1.450   .     S
C94    O122    1.297   .     A
C94    O124    1.302   .     A
C95    O127    1.303   .     A
C95    O125    1.290   .     A
C95    C97     1.438   .     S
C96    O128    1.303   .     A
C96    O126    1.290   .     A
C96    C98     1.438   .     S
C98    C5      1.342   1_655 S
C98    H20     1.086   1_655 S
C99    C104    1.400   .     A
C99    H113    1.083   .     S
C99    C377    1.383   1_545 S
C100   H114    1.083   .     S
C100   C103    1.399   .     A
C100   C240    1.383   .     S
C101   C103    1.403   .     A
C101   H115    1.083   .     S
C101   C237    1.383   .     S
C102   C104    1.403   .     A
C102   H116    1.083   .     S
C102   C376    1.383   1_545 S
C105   N120    1.406   .     A
C105   S129    1.786   .     S
C105   C935    1.416   1_554 S
C106   N119    1.406   .     A
C106   S134    1.787   .     S
C106   C522    1.416   .     S
C107   N119    1.345   .     A
C107   H117    1.080   .     S
C107   C519    1.416   .     S
C108   N120    1.345   .     A
C108   H118    1.080   .     S
C108   C934    1.416   1_554 S
Cu109  O128    1.957   .     S
Cu109  Cu110   2.706   .     S
Cu109  O125    1.948   .     S
Cu109  N119    2.033   .     S
Cu109  O121    1.961   .     S
Cu109  O124    1.965   .     S
Cu110  O127    1.957   .     S
Cu110  N120    2.033   .     S
Cu110  O122    1.961   .     S
Cu110  O126    1.948   .     S
Cu110  O123    1.965   .     S
H111   C5      1.086   1_655 S
S129   O130    1.497   .     D
S129   O131    1.502   .     D
S129   O960    1.684   1_554 S
O132   H133    0.991   .     S
O132   S543    1.684   .     S
S134   O136    1.497   .     D
S134   O135    1.501   .     D
S134   O551    1.683   .     S
O137   H138    0.991   .     S
O137   S962    1.683   1_554 S
C139   O167    1.297   .     A
C139   C150    1.450   .     S
C139   O169    1.302   .     A
C140   C149    1.450   .     S
C140   O168    1.297   .     A
C140   O170    1.302   .     A
C141   O173    1.303   .     A
C141   O171    1.290   .     A
C141   C143    1.438   .     S
C142   O174    1.303   .     A
C142   O172    1.290   .     A
C142   C144    1.438   .     S
C143   C236    1.342   1_455 S
C143   H249    1.086   1_455 S
C144   C189    1.342   .     S
C144   H204    1.086   .     S
C145   C150    1.400   .     A
C145   H159    1.083   .     S
C146   H160    1.083   .     S
C146   C149    1.399   .     A
C146   C286    1.383   .     S
C147   C149    1.403   .     A
C147   H161    1.083   .     S
C147   C283    1.383   .     S
C148   C150    1.403   .     A
C148   H162    1.083   .     S
C151   N166    1.406   .     A
C151   S175    1.786   .     S
C151   C981    1.416   1_554 S
C152   N165    1.406   .     A
C152   S180    1.787   .     S
C152   C568    1.416   .     S
C153   N165    1.345   .     A
C153   H163    1.080   .     S
C153   C565    1.416   .     S
C154   N166    1.345   .     A
C154   H164    1.080   .     S
C154   C980    1.416   1_554 S
Cu155  O174    1.957   .     S
Cu155  Cu156   2.706   .     S
Cu155  O171    1.948   .     S
Cu155  N165    2.033   .     S
Cu155  O167    1.961   .     S
Cu155  O170    1.965   .     S
Cu156  O173    1.957   .     S
Cu156  N166    2.033   .     S
Cu156  O168    1.961   .     S
Cu156  O172    1.948   .     S
Cu156  O169    1.965   .     S
H157   C189    1.086   .     S
H158   C236    1.086   1_455 S
S175   O176    1.497   .     D
S175   O177    1.502   .     D
S175   O1006   1.684   1_554 S
O178   H179    0.991   .     S
O178   S589    1.684   .     S
S180   O182    1.497   .     D
S180   O181    1.501   .     D
S180   O597    1.683   .     S
O183   H184    0.991   .     S
O183   S1008   1.683   1_554 S
C185   O213    1.297   .     A
C185   C196    1.450   .     S
C185   O215    1.302   .     A
C186   C195    1.450   .     S
C186   O214    1.297   .     A
C186   O216    1.302   .     A
C187   O219    1.303   .     A
C187   O217    1.290   .     A
C187   C189    1.438   .     S
C188   O220    1.303   .     A
C188   O218    1.290   .     A
C188   C190    1.438   .     S
C190   C235    1.342   .     S
C190   H250    1.086   .     S
C191   C196    1.400   .     A
C191   H205    1.083   .     S
C192   H206    1.083   .     S
C192   C195    1.399   .     A
C192   C332    1.383   .     S
C193   C195    1.403   .     A
C193   H207    1.083   .     S
C193   C329    1.383   .     S
C194   C196    1.403   .     A
C194   H208    1.083   .     S
C197   N212    1.406   .     A
C197   S221    1.786   .     S
C197   C1027   1.416   1_554 S
C198   N211    1.406   .     A
C198   S226    1.787   .     S
C198   C614    1.416   .     S
C199   N211    1.345   .     A
C199   H209    1.080   .     S
C199   C611    1.416   .     S
C200   N212    1.345   .     A
C200   H210    1.080   .     S
C200   C1026   1.416   1_554 S
Cu201  O220    1.957   .     S
Cu201  Cu202   2.706   .     S
Cu201  O217    1.948   .     S
Cu201  N211    2.033   .     S
Cu201  O213    1.961   .     S
Cu201  O216    1.965   .     S
Cu202  O219    1.957   .     S
Cu202  N212    2.033   .     S
Cu202  O214    1.961   .     S
Cu202  O218    1.948   .     S
Cu202  O215    1.965   .     S
H203   C235    1.086   .     S
S221   O222    1.497   .     D
S221   O223    1.502   .     D
S221   O1052   1.684   1_554 S
O224   H225    0.991   .     S
O224   S635    1.684   .     S
S226   O228    1.497   .     D
S226   O227    1.501   .     D
S226   O643    1.683   .     S
O229   H230    0.991   .     S
O229   S1054   1.683   1_554 S
C231   O259    1.297   .     A
C231   C242    1.450   .     S
C231   O261    1.302   .     A
C232   C241    1.450   .     S
C232   O260    1.297   .     A
C232   O262    1.302   .     A
C233   O265    1.303   .     A
C233   O263    1.290   .     A
C233   C235    1.438   .     S
C234   O266    1.303   .     A
C234   O264    1.290   .     A
C234   C236    1.438   .     S
C236   C143    1.342   1_655 S
C236   H158    1.086   1_655 S
C237   C242    1.400   .     A
C237   H251    1.083   .     S
C238   H252    1.083   .     S
C238   C241    1.399   .     A
C238   C378    1.383   .     S
C239   C241    1.403   .     A
C239   H253    1.083   .     S
C239   C375    1.383   .     S
C240   C242    1.403   .     A
C240   H254    1.083   .     S
C243   N258    1.406   .     A
C243   S267    1.786   .     S
C243   C1073   1.416   1_554 S
C244   N257    1.406   .     A
C244   S272    1.787   .     S
C244   C660    1.416   .     S
C245   N257    1.345   .     A
C245   H255    1.080   .     S
C245   C657    1.416   .     S
C246   N258    1.345   .     A
C246   H256    1.080   .     S
C246   C1072   1.416   1_554 S
Cu247  O266    1.957   .     S
Cu247  Cu248   2.706   .     S
Cu247  O263    1.948   .     S
Cu247  N257    2.033   .     S
Cu247  O259    1.961   .     S
Cu247  O262    1.965   .     S
Cu248  O265    1.957   .     S
Cu248  N258    2.033   .     S
Cu248  O260    1.961   .     S
Cu248  O264    1.948   .     S
Cu248  O261    1.965   .     S
H249   C143    1.086   1_655 S
S267   O268    1.497   .     D
S267   O269    1.502   .     D
S267   O1098   1.684   1_554 S
O270   H271    0.991   .     S
O270   S681    1.684   .     S
S272   O274    1.497   .     D
S272   O273    1.501   .     D
S272   O689    1.683   .     S
O275   H276    0.991   .     S
O275   S1100   1.683   1_554 S
C277   O305    1.297   .     A
C277   C288    1.450   .     S
C277   O307    1.302   .     A
C278   C287    1.450   .     S
C278   O306    1.297   .     A
C278   O308    1.302   .     A
C279   O311    1.303   .     A
C279   O309    1.290   .     A
C279   C281    1.438   .     S
C280   O312    1.303   .     A
C280   O310    1.290   .     A
C280   C282    1.438   .     S
C281   C374    1.342   1_455 S
C281   H387    1.086   1_455 S
C282   C327    1.342   .     S
C282   H342    1.086   .     S
C283   C288    1.400   .     A
C283   H297    1.083   .     S
C284   H298    1.083   .     S
C284   C287    1.399   .     A
C284   C10     1.383   1_565 S
C285   C287    1.403   .     A
C285   H299    1.083   .     S
C285   C7      1.383   1_565 S
C286   C288    1.403   .     A
C286   H300    1.083   .     S
C289   N304    1.406   .     A
C289   S313    1.786   .     S
C289   C1119   1.416   1_554 S
C290   N303    1.406   .     A
C290   S318    1.787   .     S
C290   C706    1.416   .     S
C291   N303    1.345   .     A
C291   H301    1.080   .     S
C291   C703    1.416   .     S
C292   N304    1.345   .     A
C292   H302    1.080   .     S
C292   C1118   1.416   1_554 S
Cu293  O312    1.957   .     S
Cu293  Cu294   2.706   .     S
Cu293  O309    1.948   .     S
Cu293  N303    2.033   .     S
Cu293  O305    1.961   .     S
Cu293  O308    1.965   .     S
Cu294  O311    1.957   .     S
Cu294  N304    2.033   .     S
Cu294  O306    1.961   .     S
Cu294  O310    1.948   .     S
Cu294  O307    1.965   .     S
H295   C327    1.086   .     S
H296   C374    1.086   1_455 S
S313   O314    1.497   .     D
S313   O315    1.502   .     D
S313   O1144   1.684   1_554 S
O316   H317    0.991   .     S
O316   S727    1.684   .     S
S318   O320    1.497   .     D
S318   O319    1.501   .     D
S318   O735    1.683   .     S
O321   H322    0.991   .     S
O321   S1146   1.683   1_554 S
C323   O351    1.297   .     A
C323   C334    1.450   .     S
C323   O353    1.302   .     A
C324   C333    1.450   .     S
C324   O352    1.297   .     A
C324   O354    1.302   .     A
C325   O357    1.303   .     A
C325   O355    1.290   .     A
C325   C327    1.438   .     S
C326   O358    1.303   .     A
C326   O356    1.290   .     A
C326   C328    1.438   .     S
C328   C373    1.342   .     S
C328   H388    1.086   .     S
C329   C334    1.400   .     A
C329   H343    1.083   .     S
C330   H344    1.083   .     S
C330   C333    1.399   .     A
C330   C56     1.383   1_565 S
C331   C333    1.403   .     A
C331   H345    1.083   .     S
C331   C53     1.383   1_565 S
C332   C334    1.403   .     A
C332   H346    1.083   .     S
C335   N350    1.406   .     A
C335   S359    1.786   .     S
C335   C1165   1.416   1_554 S
C336   N349    1.406   .     A
C336   S364    1.787   .     S
C336   C752    1.416   .     S
C337   N349    1.345   .     A
C337   H347    1.080   .     S
C337   C749    1.416   .     S
C338   N350    1.345   .     A
C338   H348    1.080   .     S
C338   C1164   1.416   1_554 S
Cu339  O358    1.957   .     S
Cu339  Cu340   2.706   .     S
Cu339  O355    1.948   .     S
Cu339  N349    2.033   .     S
Cu339  O351    1.961   .     S
Cu339  O354    1.965   .     S
Cu340  O357    1.957   .     S
Cu340  N350    2.033   .     S
Cu340  O352    1.961   .     S
Cu340  O356    1.948   .     S
Cu340  O353    1.965   .     S
H341   C373    1.086   .     S
S359   O360    1.497   .     D
S359   O361    1.502   .     D
S359   O1190   1.684   1_554 S
O362   H363    0.991   .     S
O362   S773    1.684   .     S
S364   O366    1.497   .     D
S364   O365    1.501   .     D
S364   O781    1.683   .     S
O367   H368    0.991   .     S
O367   S1192   1.683   1_554 S
C369   O397    1.297   .     A
C369   C380    1.450   .     S
C369   O399    1.302   .     A
C370   C379    1.450   .     S
C370   O398    1.297   .     A
C370   O400    1.302   .     A
C371   O403    1.303   .     A
C371   O401    1.290   .     A
C371   C373    1.438   .     S
C372   O404    1.303   .     A
C372   O402    1.290   .     A
C372   C374    1.438   .     S
C374   C281    1.342   1_655 S
C374   H296    1.086   1_655 S
C375   C380    1.400   .     A
C375   H389    1.083   .     S
C376   H390    1.083   .     S
C376   C379    1.399   .     A
C376   C102    1.383   1_565 S
C377   C379    1.403   .     A
C377   H391    1.083   .     S
C377   C99     1.383   1_565 S
C378   C380    1.403   .     A
C378   H392    1.083   .     S
C381   N396    1.406   .     A
C381   S405    1.786   .     S
C381   C1211   1.416   1_554 S
C382   N395    1.406   .     A
C382   S410    1.787   .     S
C382   C798    1.416   .     S
C383   N395    1.345   .     A
C383   H393    1.080   .     S
C383   C795    1.416   .     S
C384   N396    1.345   .     A
C384   H394    1.080   .     S
C384   C1210   1.416   1_554 S
Cu385  O404    1.957   .     S
Cu385  Cu386   2.706   .     S
Cu385  O401    1.948   .     S
Cu385  N395    2.033   .     S
Cu385  O397    1.961   .     S
Cu385  O400    1.965   .     S
Cu386  O403    1.957   .     S
Cu386  N396    2.033   .     S
Cu386  O398    1.961   .     S
Cu386  O402    1.948   .     S
Cu386  O399    1.965   .     S
H387   C281    1.086   1_655 S
S405   O406    1.497   .     D
S405   O407    1.502   .     D
S405   O1236   1.684   1_554 S
O408   H409    0.991   .     S
O408   S819    1.684   .     S
S410   O412    1.497   .     D
S410   O411    1.501   .     D
S410   O827    1.683   .     S
O413   H414    0.991   .     S
O413   S1238   1.683   1_554 S
C415   O443    1.297   .     A
C415   C426    1.450   .     S
C415   O445    1.302   .     A
C416   C425    1.450   .     S
C416   O444    1.297   .     A
C416   O446    1.302   .     A
C417   O449    1.303   .     A
C417   O447    1.290   .     A
C417   C419    1.438   .     S
C418   O450    1.303   .     A
C418   O448    1.290   .     A
C418   C420    1.438   .     S
C419   C512    1.342   1_455 S
C419   H525    1.086   1_455 S
C420   C465    1.342   .     S
C420   H480    1.086   .     S
C421   C426    1.400   .     A
C421   H435    1.083   .     S
C421   C699    1.383   1_545 S
C422   H436    1.083   .     S
C422   C425    1.399   .     A
C422   C562    1.383   .     S
C423   C425    1.403   .     A
C423   H437    1.083   .     S
C423   C559    1.383   .     S
C424   C426    1.403   .     A
C424   H438    1.083   .     S
C424   C698    1.383   1_545 S
C427   N442    1.406   .     A
C427   S451    1.786   .     S
C428   N441    1.406   .     A
C428   S456    1.787   .     S
C428   C844    1.416   .     S
C429   N441    1.345   .     A
C429   H439    1.080   .     S
C429   C841    1.416   .     S
C430   N442    1.345   .     A
C430   H440    1.080   .     S
Cu431  O450    1.957   .     S
Cu431  Cu432   2.706   .     S
Cu431  O447    1.948   .     S
Cu431  N441    2.033   .     S
Cu431  O443    1.961   .     S
Cu431  O446    1.965   .     S
Cu432  O449    1.957   .     S
Cu432  N442    2.033   .     S
Cu432  O444    1.961   .     S
Cu432  O448    1.948   .     S
Cu432  O445    1.965   .     S
H433   C465    1.086   .     S
H434   C512    1.086   1_455 S
S451   O452    1.497   .     D
S451   O453    1.502   .     D
O454   H455    0.991   .     S
O454   S865    1.684   .     S
S456   O458    1.497   .     D
S456   O457    1.501   .     D
S456   O873    1.683   .     S
O459   H460    0.991   .     S
C461   O489    1.297   .     A
C461   C472    1.450   .     S
C461   O491    1.302   .     A
C462   C471    1.450   .     S
C462   O490    1.297   .     A
C462   O492    1.302   .     A
C463   O495    1.303   .     A
C463   O493    1.290   .     A
C463   C465    1.438   .     S
C464   O496    1.303   .     A
C464   O494    1.290   .     A
C464   C466    1.438   .     S
C466   C511    1.342   .     S
C466   H526    1.086   .     S
C467   C472    1.400   .     A
C467   H481    1.083   .     S
C467   C745    1.383   1_545 S
C468   H482    1.083   .     S
C468   C471    1.399   .     A
C468   C608    1.383   .     S
C469   C471    1.403   .     A
C469   H483    1.083   .     S
C469   C605    1.383   .     S
C470   C472    1.403   .     A
C470   H484    1.083   .     S
C470   C744    1.383   1_545 S
C473   N488    1.406   .     A
C473   S497    1.786   .     S
C474   N487    1.406   .     A
C474   S502    1.787   .     S
C474   C890    1.416   .     S
C475   N487    1.345   .     A
C475   H485    1.080   .     S
C475   C887    1.416   .     S
C476   N488    1.345   .     A
C476   H486    1.080   .     S
Cu477  O496    1.957   .     S
Cu477  Cu478   2.706   .     S
Cu477  O493    1.948   .     S
Cu477  N487    2.033   .     S
Cu477  O489    1.961   .     S
Cu477  O492    1.965   .     S
Cu478  O495    1.957   .     S
Cu478  N488    2.033   .     S
Cu478  O490    1.961   .     S
Cu478  O494    1.948   .     S
Cu478  O491    1.965   .     S
H479   C511    1.086   .     S
S497   O498    1.497   .     D
S497   O499    1.502   .     D
O500   H501    0.991   .     S
O500   S911    1.684   .     S
S502   O504    1.497   .     D
S502   O503    1.501   .     D
S502   O919    1.683   .     S
O505   H506    0.991   .     S
C507   O535    1.297   .     A
C507   C518    1.450   .     S
C507   O537    1.302   .     A
C508   C517    1.450   .     S
C508   O536    1.297   .     A
C508   O538    1.302   .     A
C509   O541    1.303   .     A
C509   O539    1.290   .     A
C509   C511    1.438   .     S
C510   O542    1.303   .     A
C510   O540    1.290   .     A
C510   C512    1.438   .     S
C512   C419    1.342   1_655 S
C512   H434    1.086   1_655 S
C513   C518    1.400   .     A
C513   H527    1.083   .     S
C513   C791    1.383   1_545 S
C514   H528    1.083   .     S
C514   C517    1.399   .     A
C514   C654    1.383   .     S
C515   C517    1.403   .     A
C515   H529    1.083   .     S
C515   C651    1.383   .     S
C516   C518    1.403   .     A
C516   H530    1.083   .     S
C516   C790    1.383   1_545 S
C519   N534    1.406   .     A
C519   S543    1.786   .     S
C520   N533    1.406   .     A
C520   S548    1.787   .     S
C520   C936    1.416   .     S
C521   N533    1.345   .     A
C521   H531    1.080   .     S
C521   C933    1.416   .     S
C522   N534    1.345   .     A
C522   H532    1.080   .     S
Cu523  O542    1.957   .     S
Cu523  Cu524   2.706   .     S
Cu523  O539    1.948   .     S
Cu523  N533    2.033   .     S
Cu523  O535    1.961   .     S
Cu523  O538    1.965   .     S
Cu524  O541    1.957   .     S
Cu524  N534    2.033   .     S
Cu524  O536    1.961   .     S
Cu524  O540    1.948   .     S
Cu524  O537    1.965   .     S
H525   C419    1.086   1_655 S
S543   O544    1.497   .     D
S543   O545    1.502   .     D
O546   H547    0.991   .     S
O546   S957    1.684   .     S
S548   O550    1.497   .     D
S548   O549    1.501   .     D
S548   O965    1.683   .     S
O551   H552    0.991   .     S
C553   O581    1.297   .     A
C553   C564    1.450   .     S
C553   O583    1.302   .     A
C554   C563    1.450   .     S
C554   O582    1.297   .     A
C554   O584    1.302   .     A
C555   O587    1.303   .     A
C555   O585    1.290   .     A
C555   C557    1.438   .     S
C556   O588    1.303   .     A
C556   O586    1.290   .     A
C556   C558    1.438   .     S
C557   C650    1.342   1_455 S
C557   H663    1.086   1_455 S
C558   C603    1.342   .     S
C558   H618    1.086   .     S
C559   C564    1.400   .     A
C559   H573    1.083   .     S
C560   H574    1.083   .     S
C560   C563    1.399   .     A
C560   C700    1.383   .     S
C561   C563    1.403   .     A
C561   H575    1.083   .     S
C561   C697    1.383   .     S
C562   C564    1.403   .     A
C562   H576    1.083   .     S
C565   N580    1.406   .     A
C565   S589    1.786   .     S
C566   N579    1.406   .     A
C566   S594    1.787   .     S
C566   C982    1.416   .     S
C567   N579    1.345   .     A
C567   H577    1.080   .     S
C567   C979    1.416   .     S
C568   N580    1.345   .     A
C568   H578    1.080   .     S
Cu569  O588    1.957   .     S
Cu569  Cu570   2.706   .     S
Cu569  O585    1.948   .     S
Cu569  N579    2.033   .     S
Cu569  O581    1.961   .     S
Cu569  O584    1.965   .     S
Cu570  O587    1.957   .     S
Cu570  N580    2.033   .     S
Cu570  O582    1.961   .     S
Cu570  O586    1.948   .     S
Cu570  O583    1.965   .     S
H571   C603    1.086   .     S
H572   C650    1.086   1_455 S
S589   O590    1.497   .     D
S589   O591    1.502   .     D
O592   H593    0.991   .     S
O592   S1003   1.684   .     S
S594   O596    1.497   .     D
S594   O595    1.501   .     D
S594   O1011   1.683   .     S
O597   H598    0.991   .     S
C599   O627    1.297   .     A
C599   C610    1.450   .     S
C599   O629    1.302   .     A
C600   C609    1.450   .     S
C600   O628    1.297   .     A
C600   O630    1.302   .     A
C601   O633    1.303   .     A
C601   O631    1.290   .     A
C601   C603    1.438   .     S
C602   O634    1.303   .     A
C602   O632    1.290   .     A
C602   C604    1.438   .     S
C604   C649    1.342   .     S
C604   H664    1.086   .     S
C605   C610    1.400   .     A
C605   H619    1.083   .     S
C606   H620    1.083   .     S
C606   C609    1.399   .     A
C606   C746    1.383   .     S
C607   C609    1.403   .     A
C607   H621    1.083   .     S
C607   C743    1.383   .     S
C608   C610    1.403   .     A
C608   H622    1.083   .     S
C611   N626    1.406   .     A
C611   S635    1.786   .     S
C612   N625    1.406   .     A
C612   S640    1.787   .     S
C612   C1028   1.416   .     S
C613   N625    1.345   .     A
C613   H623    1.080   .     S
C613   C1025   1.416   .     S
C614   N626    1.345   .     A
C614   H624    1.080   .     S
Cu615  O634    1.957   .     S
Cu615  Cu616   2.706   .     S
Cu615  O631    1.948   .     S
Cu615  N625    2.033   .     S
Cu615  O627    1.961   .     S
Cu615  O630    1.965   .     S
Cu616  O633    1.957   .     S
Cu616  N626    2.033   .     S
Cu616  O628    1.961   .     S
Cu616  O632    1.948   .     S
Cu616  O629    1.965   .     S
H617   C649    1.086   .     S
S635   O636    1.497   .     D
S635   O637    1.502   .     D
O638   H639    0.991   .     S
O638   S1049   1.684   .     S
S640   O642    1.497   .     D
S640   O641    1.501   .     D
S640   O1057   1.683   .     S
O643   H644    0.991   .     S
C645   O673    1.297   .     A
C645   C656    1.450   .     S
C645   O675    1.302   .     A
C646   C655    1.450   .     S
C646   O674    1.297   .     A
C646   O676    1.302   .     A
C647   O679    1.303   .     A
C647   O677    1.290   .     A
C647   C649    1.438   .     S
C648   O680    1.303   .     A
C648   O678    1.290   .     A
C648   C650    1.438   .     S
C650   C557    1.342   1_655 S
C650   H572    1.086   1_655 S
C651   C656    1.400   .     A
C651   H665    1.083   .     S
C652   H666    1.083   .     S
C652   C655    1.399   .     A
C652   C792    1.383   .     S
C653   C655    1.403   .     A
C653   H667    1.083   .     S
C653   C789    1.383   .     S
C654   C656    1.403   .     A
C654   H668    1.083   .     S
C657   N672    1.406   .     A
C657   S681    1.786   .     S
C658   N671    1.406   .     A
C658   S686    1.787   .     S
C658   C1074   1.416   .     S
C659   N671    1.345   .     A
C659   H669    1.080   .     S
C659   C1071   1.416   .     S
C660   N672    1.345   .     A
C660   H670    1.080   .     S
Cu661  O680    1.957   .     S
Cu661  Cu662   2.706   .     S
Cu661  O677    1.948   .     S
Cu661  N671    2.033   .     S
Cu661  O673    1.961   .     S
Cu661  O676    1.965   .     S
Cu662  O679    1.957   .     S
Cu662  N672    2.033   .     S
Cu662  O674    1.961   .     S
Cu662  O678    1.948   .     S
Cu662  O675    1.965   .     S
H663   C557    1.086   1_655 S
S681   O682    1.497   .     D
S681   O683    1.502   .     D
O684   H685    0.991   .     S
O684   S1095   1.684   .     S
S686   O688    1.497   .     D
S686   O687    1.501   .     D
S686   O1103   1.683   .     S
O689   H690    0.991   .     S
C691   O719    1.297   .     A
C691   C702    1.450   .     S
C691   O721    1.302   .     A
C692   C701    1.450   .     S
C692   O720    1.297   .     A
C692   O722    1.302   .     A
C693   O725    1.303   .     A
C693   O723    1.290   .     A
C693   C695    1.438   .     S
C694   O726    1.303   .     A
C694   O724    1.290   .     A
C694   C696    1.438   .     S
C695   C788    1.342   1_455 S
C695   H801    1.086   1_455 S
C696   C741    1.342   .     S
C696   H756    1.086   .     S
C697   C702    1.400   .     A
C697   H711    1.083   .     S
C698   H712    1.083   .     S
C698   C701    1.399   .     A
C698   C424    1.383   1_565 S
C699   C701    1.403   .     A
C699   H713    1.083   .     S
C699   C421    1.383   1_565 S
C700   C702    1.403   .     A
C700   H714    1.083   .     S
C703   N718    1.406   .     A
C703   S727    1.786   .     S
C704   N717    1.406   .     A
C704   S732    1.787   .     S
C704   C1120   1.416   .     S
C705   N717    1.345   .     A
C705   H715    1.080   .     S
C705   C1117   1.416   .     S
C706   N718    1.345   .     A
C706   H716    1.080   .     S
Cu707  O726    1.957   .     S
Cu707  Cu708   2.706   .     S
Cu707  O723    1.948   .     S
Cu707  N717    2.033   .     S
Cu707  O719    1.961   .     S
Cu707  O722    1.965   .     S
Cu708  O725    1.957   .     S
Cu708  N718    2.033   .     S
Cu708  O720    1.961   .     S
Cu708  O724    1.948   .     S
Cu708  O721    1.965   .     S
H709   C741    1.086   .     S
H710   C788    1.086   1_455 S
S727   O728    1.497   .     D
S727   O729    1.502   .     D
O730   H731    0.991   .     S
O730   S1141   1.684   .     S
S732   O734    1.497   .     D
S732   O733    1.501   .     D
S732   O1149   1.683   .     S
O735   H736    0.991   .     S
C737   O765    1.297   .     A
C737   C748    1.450   .     S
C737   O767    1.302   .     A
C738   C747    1.450   .     S
C738   O766    1.297   .     A
C738   O768    1.302   .     A
C739   O771    1.303   .     A
C739   O769    1.290   .     A
C739   C741    1.438   .     S
C740   O772    1.303   .     A
C740   O770    1.290   .     A
C740   C742    1.438   .     S
C742   C787    1.342   .     S
C742   H802    1.086   .     S
C743   C748    1.400   .     A
C743   H757    1.083   .     S
C744   H758    1.083   .     S
C744   C747    1.399   .     A
C744   C470    1.383   1_565 S
C745   C747    1.403   .     A
C745   H759    1.083   .     S
C745   C467    1.383   1_565 S
C746   C748    1.403   .     A
C746   H760    1.083   .     S
C749   N764    1.406   .     A
C749   S773    1.786   .     S
C750   N763    1.406   .     A
C750   S778    1.787   .     S
C750   C1166   1.416   .     S
C751   N763    1.345   .     A
C751   H761    1.080   .     S
C751   C1163   1.416   .     S
C752   N764    1.345   .     A
C752   H762    1.080   .     S
Cu753  O772    1.957   .     S
Cu753  Cu754   2.706   .     S
Cu753  O769    1.948   .     S
Cu753  N763    2.033   .     S
Cu753  O765    1.961   .     S
Cu753  O768    1.965   .     S
Cu754  O771    1.957   .     S
Cu754  N764    2.033   .     S
Cu754  O766    1.961   .     S
Cu754  O770    1.948   .     S
Cu754  O767    1.965   .     S
H755   C787    1.086   .     S
S773   O774    1.497   .     D
S773   O775    1.502   .     D
O776   H777    0.991   .     S
O776   S1187   1.684   .     S
S778   O780    1.497   .     D
S778   O779    1.501   .     D
S778   O1195   1.683   .     S
O781   H782    0.991   .     S
C783   O811    1.297   .     A
C783   C794    1.450   .     S
C783   O813    1.302   .     A
C784   C793    1.450   .     S
C784   O812    1.297   .     A
C784   O814    1.302   .     A
C785   O817    1.303   .     A
C785   O815    1.290   .     A
C785   C787    1.438   .     S
C786   O818    1.303   .     A
C786   O816    1.290   .     A
C786   C788    1.438   .     S
C788   C695    1.342   1_655 S
C788   H710    1.086   1_655 S
C789   C794    1.400   .     A
C789   H803    1.083   .     S
C790   H804    1.083   .     S
C790   C793    1.399   .     A
C790   C516    1.383   1_565 S
C791   C793    1.403   .     A
C791   H805    1.083   .     S
C791   C513    1.383   1_565 S
C792   C794    1.403   .     A
C792   H806    1.083   .     S
C795   N810    1.406   .     A
C795   S819    1.786   .     S
C796   N809    1.406   .     A
C796   S824    1.787   .     S
C796   C1212   1.416   .     S
C797   N809    1.345   .     A
C797   H807    1.080   .     S
C797   C1209   1.416   .     S
C798   N810    1.345   .     A
C798   H808    1.080   .     S
Cu799  O818    1.957   .     S
Cu799  Cu800   2.706   .     S
Cu799  O815    1.948   .     S
Cu799  N809    2.033   .     S
Cu799  O811    1.961   .     S
Cu799  O814    1.965   .     S
Cu800  O817    1.957   .     S
Cu800  N810    2.033   .     S
Cu800  O812    1.961   .     S
Cu800  O816    1.948   .     S
Cu800  O813    1.965   .     S
H801   C695    1.086   1_655 S
S819   O820    1.497   .     D
S819   O821    1.502   .     D
O822   H823    0.991   .     S
O822   S1233   1.684   .     S
S824   O826    1.497   .     D
S824   O825    1.501   .     D
S824   O1241   1.683   .     S
O827   H828    0.991   .     S
C829   O857    1.297   .     A
C829   C840    1.450   .     S
C829   O859    1.302   .     A
C830   C839    1.450   .     S
C830   O858    1.297   .     A
C830   O860    1.302   .     A
C831   O863    1.303   .     A
C831   O861    1.290   .     A
C831   C833    1.438   .     S
C832   O864    1.303   .     A
C832   O862    1.290   .     A
C832   C834    1.438   .     S
C833   C926    1.342   1_455 S
C833   H939    1.086   1_455 S
C834   C879    1.342   .     S
C834   H894    1.086   .     S
C835   C840    1.400   .     A
C835   H849    1.083   .     S
C835   C1113   1.383   1_545 S
C836   H850    1.083   .     S
C836   C839    1.399   .     A
C836   C976    1.383   .     S
C837   C839    1.403   .     A
C837   H851    1.083   .     S
C837   C973    1.383   .     S
C838   C840    1.403   .     A
C838   H852    1.083   .     S
C838   C1112   1.383   1_545 S
C841   N856    1.406   .     A
C841   S865    1.786   .     S
C842   N855    1.406   .     A
C842   S870    1.787   .     S
C842   C16     1.416   1_556 S
C843   N855    1.345   .     A
C843   H853    1.080   .     S
C843   C13     1.416   1_556 S
C844   N856    1.345   .     A
C844   H854    1.080   .     S
Cu845  O864    1.957   .     S
Cu845  Cu846   2.706   .     S
Cu845  O861    1.948   .     S
Cu845  N855    2.033   .     S
Cu845  O857    1.961   .     S
Cu845  O860    1.965   .     S
Cu846  O863    1.957   .     S
Cu846  N856    2.033   .     S
Cu846  O858    1.961   .     S
Cu846  O862    1.948   .     S
Cu846  O859    1.965   .     S
H847   C879    1.086   .     S
H848   C926    1.086   1_455 S
S865   O866    1.497   .     D
S865   O867    1.502   .     D
O868   H869    0.991   .     S
O868   S37     1.684   1_556 S
S870   O872    1.497   .     D
S870   O871    1.501   .     D
S870   O45     1.683   1_556 S
O873   H874    0.991   .     S
C875   O903    1.297   .     A
C875   C886    1.450   .     S
C875   O905    1.302   .     A
C876   C885    1.450   .     S
C876   O904    1.297   .     A
C876   O906    1.302   .     A
C877   O909    1.303   .     A
C877   O907    1.290   .     A
C877   C879    1.438   .     S
C878   O910    1.303   .     A
C878   O908    1.290   .     A
C878   C880    1.438   .     S
C880   C925    1.342   .     S
C880   H940    1.086   .     S
C881   C886    1.400   .     A
C881   H895    1.083   .     S
C881   C1159   1.383   1_545 S
C882   H896    1.083   .     S
C882   C885    1.399   .     A
C882   C1022   1.383   .     S
C883   C885    1.403   .     A
C883   H897    1.083   .     S
C883   C1019   1.383   .     S
C884   C886    1.403   .     A
C884   H898    1.083   .     S
C884   C1158   1.383   1_545 S
C887   N902    1.406   .     A
C887   S911    1.786   .     S
C888   N901    1.406   .     A
C888   S916    1.787   .     S
C888   C62     1.416   1_556 S
C889   N901    1.345   .     A
C889   H899    1.080   .     S
C889   C59     1.416   1_556 S
C890   N902    1.345   .     A
C890   H900    1.080   .     S
Cu891  O910    1.957   .     S
Cu891  Cu892   2.706   .     S
Cu891  O907    1.948   .     S
Cu891  N901    2.033   .     S
Cu891  O903    1.961   .     S
Cu891  O906    1.965   .     S
Cu892  O909    1.957   .     S
Cu892  N902    2.033   .     S
Cu892  O904    1.961   .     S
Cu892  O908    1.948   .     S
Cu892  O905    1.965   .     S
H893   C925    1.086   .     S
S911   O912    1.497   .     D
S911   O913    1.502   .     D
O914   H915    0.991   .     S
O914   S83     1.684   1_556 S
S916   O918    1.497   .     D
S916   O917    1.501   .     D
S916   O91     1.683   1_556 S
O919   H920    0.991   .     S
C921   O949    1.297   .     A
C921   C932    1.450   .     S
C921   O951    1.302   .     A
C922   C931    1.450   .     S
C922   O950    1.297   .     A
C922   O952    1.302   .     A
C923   O955    1.303   .     A
C923   O953    1.290   .     A
C923   C925    1.438   .     S
C924   O956    1.303   .     A
C924   O954    1.290   .     A
C924   C926    1.438   .     S
C926   C833    1.342   1_655 S
C926   H848    1.086   1_655 S
C927   C932    1.400   .     A
C927   H941    1.083   .     S
C927   C1205   1.383   1_545 S
C928   H942    1.083   .     S
C928   C931    1.399   .     A
C928   C1068   1.383   .     S
C929   C931    1.403   .     A
C929   H943    1.083   .     S
C929   C1065   1.383   .     S
C930   C932    1.403   .     A
C930   H944    1.083   .     S
C930   C1204   1.383   1_545 S
C933   N948    1.406   .     A
C933   S957    1.786   .     S
C934   N947    1.406   .     A
C934   S962    1.787   .     S
C934   C108    1.416   1_556 S
C935   N947    1.345   .     A
C935   H945    1.080   .     S
C935   C105    1.416   1_556 S
C936   N948    1.345   .     A
C936   H946    1.080   .     S
Cu937  O956    1.957   .     S
Cu937  Cu938   2.706   .     S
Cu937  O953    1.948   .     S
Cu937  N947    2.033   .     S
Cu937  O949    1.961   .     S
Cu937  O952    1.965   .     S
Cu938  O955    1.957   .     S
Cu938  N948    2.033   .     S
Cu938  O950    1.961   .     S
Cu938  O954    1.948   .     S
Cu938  O951    1.965   .     S
H939   C833    1.086   1_655 S
S957   O958    1.497   .     D
S957   O959    1.502   .     D
O960   H961    0.991   .     S
O960   S129    1.684   1_556 S
S962   O964    1.497   .     D
S962   O963    1.501   .     D
S962   O137    1.683   1_556 S
O965   H966    0.991   .     S
C967   O995    1.297   .     A
C967   C978    1.450   .     S
C967   O997    1.302   .     A
C968   C977    1.450   .     S
C968   O996    1.297   .     A
C968   O998    1.302   .     A
C969   O1001   1.303   .     A
C969   O999    1.290   .     A
C969   C971    1.438   .     S
C970   O1002   1.303   .     A
C970   O1000   1.290   .     A
C970   C972    1.438   .     S
C971   C1064   1.342   1_455 S
C971   H1077   1.086   1_455 S
C972   C1017   1.342   .     S
C972   H1032   1.086   .     S
C973   C978    1.400   .     A
C973   H987    1.083   .     S
C974   H988    1.083   .     S
C974   C977    1.399   .     A
C974   C1114   1.383   .     S
C975   C977    1.403   .     A
C975   H989    1.083   .     S
C975   C1111   1.383   .     S
C976   C978    1.403   .     A
C976   H990    1.083   .     S
C979   N994    1.406   .     A
C979   S1003   1.786   .     S
C980   N993    1.406   .     A
C980   S1008   1.787   .     S
C980   C154    1.416   1_556 S
C981   N993    1.345   .     A
C981   H991    1.080   .     S
C981   C151    1.416   1_556 S
C982   N994    1.345   .     A
C982   H992    1.080   .     S
Cu983  O1002   1.957   .     S
Cu983  Cu984   2.706   .     S
Cu983  O999    1.948   .     S
Cu983  N993    2.033   .     S
Cu983  O995    1.961   .     S
Cu983  O998    1.965   .     S
Cu984  O1001   1.957   .     S
Cu984  N994    2.033   .     S
Cu984  O996    1.961   .     S
Cu984  O1000   1.948   .     S
Cu984  O997    1.965   .     S
H985   C1017   1.086   .     S
H986   C1064   1.086   1_455 S
S1003  O1004   1.497   .     D
S1003  O1005   1.502   .     D
O1006  H1007   0.991   .     S
O1006  S175    1.684   1_556 S
S1008  O1010   1.497   .     D
S1008  O1009   1.501   .     D
S1008  O183    1.683   1_556 S
O1011  H1012   0.991   .     S
C1013  O1041   1.297   .     A
C1013  C1024   1.450   .     S
C1013  O1043   1.302   .     A
C1014  C1023   1.450   .     S
C1014  O1042   1.297   .     A
C1014  O1044   1.302   .     A
C1015  O1047   1.303   .     A
C1015  O1045   1.290   .     A
C1015  C1017   1.438   .     S
C1016  O1048   1.303   .     A
C1016  O1046   1.290   .     A
C1016  C1018   1.438   .     S
C1018  C1063   1.342   .     S
C1018  H1078   1.086   .     S
C1019  C1024   1.400   .     A
C1019  H1033   1.083   .     S
C1020  H1034   1.083   .     S
C1020  C1023   1.399   .     A
C1020  C1160   1.383   .     S
C1021  C1023   1.403   .     A
C1021  H1035   1.083   .     S
C1021  C1157   1.383   .     S
C1022  C1024   1.403   .     A
C1022  H1036   1.083   .     S
C1025  N1040   1.406   .     A
C1025  S1049   1.786   .     S
C1026  N1039   1.406   .     A
C1026  S1054   1.787   .     S
C1026  C200    1.416   1_556 S
C1027  N1039   1.345   .     A
C1027  H1037   1.080   .     S
C1027  C197    1.416   1_556 S
C1028  N1040   1.345   .     A
C1028  H1038   1.080   .     S
Cu1029 O1048   1.957   .     S
Cu1029 Cu1030  2.706   .     S
Cu1029 O1045   1.948   .     S
Cu1029 N1039   2.033   .     S
Cu1029 O1041   1.961   .     S
Cu1029 O1044   1.965   .     S
Cu1030 O1047   1.957   .     S
Cu1030 N1040   2.033   .     S
Cu1030 O1042   1.961   .     S
Cu1030 O1046   1.948   .     S
Cu1030 O1043   1.965   .     S
H1031  C1063   1.086   .     S
S1049  O1050   1.497   .     D
S1049  O1051   1.502   .     D
O1052  H1053   0.991   .     S
O1052  S221    1.684   1_556 S
S1054  O1056   1.497   .     D
S1054  O1055   1.501   .     D
S1054  O229    1.683   1_556 S
O1057  H1058   0.991   .     S
C1059  O1087   1.297   .     A
C1059  C1070   1.450   .     S
C1059  O1089   1.302   .     A
C1060  C1069   1.450   .     S
C1060  O1088   1.297   .     A
C1060  O1090   1.302   .     A
C1061  O1093   1.303   .     A
C1061  O1091   1.290   .     A
C1061  C1063   1.438   .     S
C1062  O1094   1.303   .     A
C1062  O1092   1.290   .     A
C1062  C1064   1.438   .     S
C1064  C971    1.342   1_655 S
C1064  H986    1.086   1_655 S
C1065  C1070   1.400   .     A
C1065  H1079   1.083   .     S
C1066  H1080   1.083   .     S
C1066  C1069   1.399   .     A
C1066  C1206   1.383   .     S
C1067  C1069   1.403   .     A
C1067  H1081   1.083   .     S
C1067  C1203   1.383   .     S
C1068  C1070   1.403   .     A
C1068  H1082   1.083   .     S
C1071  N1086   1.406   .     A
C1071  S1095   1.786   .     S
C1072  N1085   1.406   .     A
C1072  S1100   1.787   .     S
C1072  C246    1.416   1_556 S
C1073  N1085   1.345   .     A
C1073  H1083   1.080   .     S
C1073  C243    1.416   1_556 S
C1074  N1086   1.345   .     A
C1074  H1084   1.080   .     S
Cu1075 O1094   1.957   .     S
Cu1075 Cu1076  2.706   .     S
Cu1075 O1091   1.948   .     S
Cu1075 N1085   2.033   .     S
Cu1075 O1087   1.961   .     S
Cu1075 O1090   1.965   .     S
Cu1076 O1093   1.957   .     S
Cu1076 N1086   2.033   .     S
Cu1076 O1088   1.961   .     S
Cu1076 O1092   1.948   .     S
Cu1076 O1089   1.965   .     S
H1077  C971    1.086   1_655 S
S1095  O1096   1.497   .     D
S1095  O1097   1.502   .     D
O1098  H1099   0.991   .     S
O1098  S267    1.684   1_556 S
S1100  O1102   1.497   .     D
S1100  O1101   1.501   .     D
S1100  O275    1.683   1_556 S
O1103  H1104   0.991   .     S
C1105  O1133   1.297   .     A
C1105  C1116   1.450   .     S
C1105  O1135   1.302   .     A
C1106  C1115   1.450   .     S
C1106  O1134   1.297   .     A
C1106  O1136   1.302   .     A
C1107  O1139   1.303   .     A
C1107  O1137   1.290   .     A
C1107  C1109   1.438   .     S
C1108  O1140   1.303   .     A
C1108  O1138   1.290   .     A
C1108  C1110   1.438   .     S
C1109  C1202   1.342   1_455 S
C1109  H1215   1.086   1_455 S
C1110  C1155   1.342   .     S
C1110  H1170   1.086   .     S
C1111  C1116   1.400   .     A
C1111  H1125   1.083   .     S
C1112  H1126   1.083   .     S
C1112  C1115   1.399   .     A
C1112  C838    1.383   1_565 S
C1113  C1115   1.403   .     A
C1113  H1127   1.083   .     S
C1113  C835    1.383   1_565 S
C1114  C1116   1.403   .     A
C1114  H1128   1.083   .     S
C1117  N1132   1.406   .     A
C1117  S1141   1.786   .     S
C1118  N1131   1.406   .     A
C1118  S1146   1.787   .     S
C1118  C292    1.416   1_556 S
C1119  N1131   1.345   .     A
C1119  H1129   1.080   .     S
C1119  C289    1.416   1_556 S
C1120  N1132   1.345   .     A
C1120  H1130   1.080   .     S
Cu1121 O1140   1.957   .     S
Cu1121 Cu1122  2.706   .     S
Cu1121 O1137   1.948   .     S
Cu1121 N1131   2.033   .     S
Cu1121 O1133   1.961   .     S
Cu1121 O1136   1.965   .     S
Cu1122 O1139   1.957   .     S
Cu1122 N1132   2.033   .     S
Cu1122 O1134   1.961   .     S
Cu1122 O1138   1.948   .     S
Cu1122 O1135   1.965   .     S
H1123  C1155   1.086   .     S
H1124  C1202   1.086   1_455 S
S1141  O1142   1.497   .     D
S1141  O1143   1.502   .     D
O1144  H1145   0.991   .     S
O1144  S313    1.684   1_556 S
S1146  O1148   1.497   .     D
S1146  O1147   1.501   .     D
S1146  O321    1.683   1_556 S
O1149  H1150   0.991   .     S
C1151  O1179   1.297   .     A
C1151  C1162   1.450   .     S
C1151  O1181   1.302   .     A
C1152  C1161   1.450   .     S
C1152  O1180   1.297   .     A
C1152  O1182   1.302   .     A
C1153  O1185   1.303   .     A
C1153  O1183   1.290   .     A
C1153  C1155   1.438   .     S
C1154  O1186   1.303   .     A
C1154  O1184   1.290   .     A
C1154  C1156   1.438   .     S
C1156  C1201   1.342   .     S
C1156  H1216   1.086   .     S
C1157  C1162   1.400   .     A
C1157  H1171   1.083   .     S
C1158  H1172   1.083   .     S
C1158  C1161   1.399   .     A
C1158  C884    1.383   1_565 S
C1159  C1161   1.403   .     A
C1159  H1173   1.083   .     S
C1159  C881    1.383   1_565 S
C1160  C1162   1.403   .     A
C1160  H1174   1.083   .     S
C1163  N1178   1.406   .     A
C1163  S1187   1.786   .     S
C1164  N1177   1.406   .     A
C1164  S1192   1.787   .     S
C1164  C338    1.416   1_556 S
C1165  N1177   1.345   .     A
C1165  H1175   1.080   .     S
C1165  C335    1.416   1_556 S
C1166  N1178   1.345   .     A
C1166  H1176   1.080   .     S
Cu1167 O1186   1.957   .     S
Cu1167 Cu1168  2.706   .     S
Cu1167 O1183   1.948   .     S
Cu1167 N1177   2.033   .     S
Cu1167 O1179   1.961   .     S
Cu1167 O1182   1.965   .     S
Cu1168 O1185   1.957   .     S
Cu1168 N1178   2.033   .     S
Cu1168 O1180   1.961   .     S
Cu1168 O1184   1.948   .     S
Cu1168 O1181   1.965   .     S
H1169  C1201   1.086   .     S
S1187  O1188   1.497   .     D
S1187  O1189   1.502   .     D
O1190  H1191   0.991   .     S
O1190  S359    1.684   1_556 S
S1192  O1194   1.497   .     D
S1192  O1193   1.501   .     D
S1192  O367    1.683   1_556 S
O1195  H1196   0.991   .     S
C1197  O1225   1.297   .     A
C1197  C1208   1.450   .     S
C1197  O1227   1.302   .     A
C1198  C1207   1.450   .     S
C1198  O1226   1.297   .     A
C1198  O1228   1.302   .     A
C1199  O1231   1.303   .     A
C1199  O1229   1.290   .     A
C1199  C1201   1.438   .     S
C1200  O1232   1.303   .     A
C1200  O1230   1.290   .     A
C1200  C1202   1.438   .     S
C1202  C1109   1.342   1_655 S
C1202  H1124   1.086   1_655 S
C1203  C1208   1.400   .     A
C1203  H1217   1.083   .     S
C1204  H1218   1.083   .     S
C1204  C1207   1.399   .     A
C1204  C930    1.383   1_565 S
C1205  C1207   1.403   .     A
C1205  H1219   1.083   .     S
C1205  C927    1.383   1_565 S
C1206  C1208   1.403   .     A
C1206  H1220   1.083   .     S
C1209  N1224   1.406   .     A
C1209  S1233   1.786   .     S
C1210  N1223   1.406   .     A
C1210  S1238   1.787   .     S
C1210  C384    1.416   1_556 S
C1211  N1223   1.345   .     A
C1211  H1221   1.080   .     S
C1211  C381    1.416   1_556 S
C1212  N1224   1.345   .     A
C1212  H1222   1.080   .     S
Cu1213 O1232   1.957   .     S
Cu1213 Cu1214  2.706   .     S
Cu1213 O1229   1.948   .     S
Cu1213 N1223   2.033   .     S
Cu1213 O1225   1.961   .     S
Cu1213 O1228   1.965   .     S
Cu1214 O1231   1.957   .     S
Cu1214 N1224   2.033   .     S
Cu1214 O1226   1.961   .     S
Cu1214 O1230   1.948   .     S
Cu1214 O1227   1.965   .     S
H1215  C1109   1.086   1_655 S
S1233  O1234   1.497   .     D
S1233  O1235   1.502   .     D
O1236  H1237   0.991   .     S
O1236  S405    1.684   1_556 S
S1238  O1240   1.497   .     D
S1238  O1239   1.501   .     D
S1238  O413    1.683   1_556 S
O1241  H1242   0.991   .     S
