data_str_m2_o1_o17_pcu_sym.17
_audit_creation_date              2020-01-03
_audit_creation_method            'Materials Studio'
_symmetry_space_group_name_H-M    'P1'
_symmetry_Int_Tables_number       1
_symmetry_cell_setting            triclinic
loop_
_symmetry_equiv_pos_as_xyz
  x,y,z
_cell_length_a                    32.4717
_cell_length_b                    28.5700
_cell_length_c                    30.0670
_cell_angle_alpha                 89.9940
_cell_angle_beta                  90.1741
_cell_angle_gamma                 89.9725
loop_
_atom_site_label
_atom_site_type_symbol
_atom_site_fract_x
_atom_site_fract_y
_atom_site_fract_z
_atom_site_U_iso_or_equiv
_atom_site_adp_type
_atom_site_occupancy
O1     O     0.10655   0.20625   0.25000   0.00000  Uiso   1.00
O2     O     0.22679   0.12709   0.25001   0.00000  Uiso   1.00
O3     O     0.22679   0.20625   0.25001   0.00000  Uiso   1.00
O4     O     0.10655   0.12709   0.25000   0.00000  Uiso   1.00
C5     C     0.08736   0.16668   0.24996   0.00000  Uiso   1.00
C6     C     0.24597   0.16667   0.25005   0.00000  Uiso   1.00
O7     O     0.16666   0.20627   0.18513   0.00000  Uiso   1.00
O8     O     0.16668   0.12707   0.31487   0.00000  Uiso   1.00
O9     O     0.16668   0.20627   0.31487   0.00000  Uiso   1.00
O10    O     0.16666   0.12707   0.18513   0.00000  Uiso   1.00
C11    C     0.16651   0.16666   0.16457   0.00000  Uiso   1.00
C12    C     0.16654   0.16665   0.33543   0.00000  Uiso   1.00
Cu13   Cu    0.16667   0.21355   0.25000   0.00000  Uiso   1.00
Cu14   Cu    0.16667   0.11978   0.25000   0.00000  Uiso   1.00
C15    C     0.20397   0.17146   0.40650   0.00000  Uiso   1.00
C16    C     0.12883   0.16381   0.09350   0.00000  Uiso   1.00
C17    C     0.16650   0.16657   0.38358   0.00000  Uiso   1.00
C18    C     0.16648   0.16659   0.11641   0.00000  Uiso   1.00
C19    C     0.12884   0.16377   0.40624   0.00000  Uiso   1.00
C20    C     0.20396   0.17147   0.09374   0.00000  Uiso   1.00
C21    C     0.12863   0.16484   0.45296   0.00000  Uiso   1.00
C22    C     0.20401   0.17251   0.04703   0.00000  Uiso   1.00
C23    C     0.16628   0.16913   0.47650   0.00000  Uiso   1.00
C24    C     0.16628   0.16913   0.02349   0.00000  Uiso   1.00
C25    C     0.20402   0.17251   0.45321   0.00000  Uiso   1.00
C26    C     0.12862   0.16486   0.04679   0.00000  Uiso   1.00
C27    C     0.09167   0.16034   0.47667   0.00000  Uiso   1.00
C28    C     0.24109   0.17541   0.02332   0.00000  Uiso   1.00
C29    C     0.09166   0.16036   0.02283   0.00000  Uiso   1.00
C30    C     0.24110   0.17542   0.47716   0.00000  Uiso   1.00
H31    H     0.06244   0.15596   0.45980   0.00000  Uiso   1.00
H32    H     0.27055   0.17692   0.04018   0.00000  Uiso   1.00
H33    H     0.06243   0.15599   0.03951   0.00000  Uiso   1.00
H34    H     0.27055   0.17693   0.46049   0.00000  Uiso   1.00
C35    C     0.02131   0.12414   0.24999   0.00000  Uiso   1.00
C36    C     0.31202   0.20921   0.25003   0.00000  Uiso   1.00
C37    C     0.31206   0.12413   0.25005   0.00000  Uiso   1.00
C38    C     0.02127   0.20922   0.24997   0.00000  Uiso   1.00
H39    H     0.03735   0.09089   0.24997   0.00000  Uiso   1.00
H40    H     0.29598   0.24246   0.25005   0.00000  Uiso   1.00
H41    H     0.29605   0.09088   0.25008   0.00000  Uiso   1.00
H42    H     0.03728   0.24247   0.24994   0.00000  Uiso   1.00
C43    C     0.29059   0.16667   0.25006   0.00000  Uiso   1.00
C44    C     0.04275   0.16668   0.24996   0.00000  Uiso   1.00
C45    C     0.14039   0.02482   0.22308   0.00000  Uiso   1.00
C46    C     0.19294   0.30851   0.27693   0.00000  Uiso   1.00
C47    C     0.19294   0.02478   0.27693   0.00000  Uiso   1.00
C48    C     0.14039   0.30855   0.22308   0.00000  Uiso   1.00
H49    H     0.11934   0.04352   0.20151   0.00000  Uiso   1.00
H50    H     0.21398   0.28981   0.29851   0.00000  Uiso   1.00
H51    H     0.21398   0.04346   0.29850   0.00000  Uiso   1.00
H52    H     0.11935   0.28988   0.20150   0.00000  Uiso   1.00
N53    N     0.16667   0.28402   0.25000   0.00000  Uiso   1.00
N54    N     0.16667   0.04931   0.25000   0.00000  Uiso   1.00
N55    N     0.24179   0.17535   0.38209   0.00000  Uiso   1.00
O56    O     0.25401   0.14114   0.35680   0.00000  Uiso   1.00
O57    O     0.26271   0.21416   0.38305   0.00000  Uiso   1.00
N58    N     0.09096   0.16064   0.11792   0.00000  Uiso   1.00
O59    O     0.08368   0.12452   0.14304   0.00000  Uiso   1.00
O60    O     0.06467   0.19501   0.11681   0.00000  Uiso   1.00
N61    N     0.09098   0.16053   0.38158   0.00000  Uiso   1.00
O62    O     0.08372   0.12436   0.35649   0.00000  Uiso   1.00
O63    O     0.06464   0.19485   0.38251   0.00000  Uiso   1.00
N64    N     0.24178   0.17532   0.11839   0.00000  Uiso   1.00
O65    O     0.25405   0.14104   0.14365   0.00000  Uiso   1.00
O66    O     0.26275   0.21409   0.11753   0.00000  Uiso   1.00
O67    O     0.43988   0.20625   0.25000   0.00000  Uiso   1.00
O68    O     0.56012   0.12709   0.25001   0.00000  Uiso   1.00
O69    O     0.56012   0.20625   0.25001   0.00000  Uiso   1.00
O70    O     0.43988   0.12709   0.25000   0.00000  Uiso   1.00
C71    C     0.42069   0.16668   0.24996   0.00000  Uiso   1.00
C72    C     0.57930   0.16667   0.25005   0.00000  Uiso   1.00
O73    O     0.49999   0.20627   0.18513   0.00000  Uiso   1.00
O74    O     0.50001   0.12707   0.31487   0.00000  Uiso   1.00
O75    O     0.50001   0.20627   0.31487   0.00000  Uiso   1.00
O76    O     0.49999   0.12707   0.18513   0.00000  Uiso   1.00
C77    C     0.49985   0.16666   0.16457   0.00000  Uiso   1.00
C78    C     0.49987   0.16665   0.33543   0.00000  Uiso   1.00
Cu79   Cu    0.50000   0.21355   0.25000   0.00000  Uiso   1.00
Cu80   Cu    0.50000   0.11978   0.25000   0.00000  Uiso   1.00
C81    C     0.53731   0.17146   0.40650   0.00000  Uiso   1.00
C82    C     0.46216   0.16381   0.09350   0.00000  Uiso   1.00
C83    C     0.49983   0.16657   0.38358   0.00000  Uiso   1.00
C84    C     0.49982   0.16659   0.11641   0.00000  Uiso   1.00
C85    C     0.46217   0.16377   0.40624   0.00000  Uiso   1.00
C86    C     0.53730   0.17147   0.09374   0.00000  Uiso   1.00
C87    C     0.46196   0.16484   0.45296   0.00000  Uiso   1.00
C88    C     0.53734   0.17251   0.04703   0.00000  Uiso   1.00
C89    C     0.49962   0.16913   0.47650   0.00000  Uiso   1.00
C90    C     0.49961   0.16913   0.02349   0.00000  Uiso   1.00
C91    C     0.53735   0.17251   0.45321   0.00000  Uiso   1.00
C92    C     0.46195   0.16486   0.04679   0.00000  Uiso   1.00
C93    C     0.42500   0.16034   0.47667   0.00000  Uiso   1.00
C94    C     0.57443   0.17541   0.02332   0.00000  Uiso   1.00
C95    C     0.42499   0.16036   0.02283   0.00000  Uiso   1.00
C96    C     0.57443   0.17542   0.47716   0.00000  Uiso   1.00
H97    H     0.39577   0.15596   0.45980   0.00000  Uiso   1.00
H98    H     0.60388   0.17692   0.04018   0.00000  Uiso   1.00
H99    H     0.39577   0.15599   0.03951   0.00000  Uiso   1.00
H100   H     0.60389   0.17693   0.46049   0.00000  Uiso   1.00
C101   C     0.35465   0.12414   0.24999   0.00000  Uiso   1.00
C102   C     0.64535   0.20921   0.25003   0.00000  Uiso   1.00
C103   C     0.64539   0.12413   0.25005   0.00000  Uiso   1.00
C104   C     0.35461   0.20922   0.24997   0.00000  Uiso   1.00
H105   H     0.37069   0.09089   0.24997   0.00000  Uiso   1.00
H106   H     0.62931   0.24246   0.25005   0.00000  Uiso   1.00
H107   H     0.62939   0.09088   0.25008   0.00000  Uiso   1.00
H108   H     0.37062   0.24247   0.24994   0.00000  Uiso   1.00
C109   C     0.62392   0.16667   0.25006   0.00000  Uiso   1.00
C110   C     0.37608   0.16668   0.24996   0.00000  Uiso   1.00
C111   C     0.47373   0.02482   0.22308   0.00000  Uiso   1.00
C112   C     0.52627   0.30851   0.27693   0.00000  Uiso   1.00
C113   C     0.52627   0.02478   0.27693   0.00000  Uiso   1.00
C114   C     0.47373   0.30855   0.22308   0.00000  Uiso   1.00
H115   H     0.45268   0.04352   0.20151   0.00000  Uiso   1.00
H116   H     0.54732   0.28981   0.29851   0.00000  Uiso   1.00
H117   H     0.54732   0.04346   0.29850   0.00000  Uiso   1.00
H118   H     0.45268   0.28988   0.20150   0.00000  Uiso   1.00
N119   N     0.50000   0.28402   0.25000   0.00000  Uiso   1.00
N120   N     0.50000   0.04931   0.25000   0.00000  Uiso   1.00
N121   N     0.57512   0.17535   0.38209   0.00000  Uiso   1.00
O122   O     0.58734   0.14114   0.35680   0.00000  Uiso   1.00
O123   O     0.59604   0.21416   0.38305   0.00000  Uiso   1.00
N124   N     0.42429   0.16064   0.11792   0.00000  Uiso   1.00
O125   O     0.41701   0.12452   0.14304   0.00000  Uiso   1.00
O126   O     0.39801   0.19501   0.11681   0.00000  Uiso   1.00
N127   N     0.42431   0.16053   0.38158   0.00000  Uiso   1.00
O128   O     0.41705   0.12436   0.35649   0.00000  Uiso   1.00
O129   O     0.39797   0.19485   0.38251   0.00000  Uiso   1.00
N130   N     0.57511   0.17532   0.11839   0.00000  Uiso   1.00
O131   O     0.58738   0.14104   0.14365   0.00000  Uiso   1.00
O132   O     0.59609   0.21409   0.11753   0.00000  Uiso   1.00
O133   O     0.77321   0.20625   0.25000   0.00000  Uiso   1.00
O134   O     0.89345   0.12709   0.25001   0.00000  Uiso   1.00
O135   O     0.89345   0.20625   0.25001   0.00000  Uiso   1.00
O136   O     0.77321   0.12709   0.25000   0.00000  Uiso   1.00
C137   C     0.75403   0.16668   0.24996   0.00000  Uiso   1.00
C138   C     0.91264   0.16667   0.25005   0.00000  Uiso   1.00
O139   O     0.83332   0.20627   0.18513   0.00000  Uiso   1.00
O140   O     0.83334   0.12707   0.31487   0.00000  Uiso   1.00
O141   O     0.83334   0.20627   0.31487   0.00000  Uiso   1.00
O142   O     0.83332   0.12707   0.18513   0.00000  Uiso   1.00
C143   C     0.83318   0.16666   0.16457   0.00000  Uiso   1.00
C144   C     0.83320   0.16665   0.33543   0.00000  Uiso   1.00
Cu145  Cu    0.83333   0.21355   0.25000   0.00000  Uiso   1.00
Cu146  Cu    0.83333   0.11978   0.25000   0.00000  Uiso   1.00
C147   C     0.87064   0.17146   0.40650   0.00000  Uiso   1.00
C148   C     0.79549   0.16381   0.09350   0.00000  Uiso   1.00
C149   C     0.83317   0.16657   0.38358   0.00000  Uiso   1.00
C150   C     0.83315   0.16659   0.11641   0.00000  Uiso   1.00
C151   C     0.79551   0.16377   0.40624   0.00000  Uiso   1.00
C152   C     0.87063   0.17147   0.09374   0.00000  Uiso   1.00
C153   C     0.79529   0.16484   0.45296   0.00000  Uiso   1.00
C154   C     0.87068   0.17251   0.04703   0.00000  Uiso   1.00
C155   C     0.83295   0.16913   0.47650   0.00000  Uiso   1.00
C156   C     0.83295   0.16913   0.02349   0.00000  Uiso   1.00
C157   C     0.87068   0.17251   0.45321   0.00000  Uiso   1.00
C158   C     0.79528   0.16486   0.04679   0.00000  Uiso   1.00
C159   C     0.75833   0.16034   0.47667   0.00000  Uiso   1.00
C160   C     0.90776   0.17541   0.02332   0.00000  Uiso   1.00
C161   C     0.75833   0.16036   0.02283   0.00000  Uiso   1.00
C162   C     0.90776   0.17542   0.47716   0.00000  Uiso   1.00
H163   H     0.72910   0.15596   0.45980   0.00000  Uiso   1.00
H164   H     0.93722   0.17692   0.04018   0.00000  Uiso   1.00
H165   H     0.72910   0.15599   0.03951   0.00000  Uiso   1.00
H166   H     0.93722   0.17693   0.46049   0.00000  Uiso   1.00
C167   C     0.68798   0.12414   0.24999   0.00000  Uiso   1.00
C168   C     0.97869   0.20921   0.25003   0.00000  Uiso   1.00
C169   C     0.97873   0.12413   0.25005   0.00000  Uiso   1.00
C170   C     0.68794   0.20922   0.24997   0.00000  Uiso   1.00
H171   H     0.70402   0.09089   0.24997   0.00000  Uiso   1.00
H172   H     0.96265   0.24246   0.25005   0.00000  Uiso   1.00
H173   H     0.96272   0.09088   0.25008   0.00000  Uiso   1.00
H174   H     0.70395   0.24247   0.24994   0.00000  Uiso   1.00
C175   C     0.95726   0.16667   0.25006   0.00000  Uiso   1.00
C176   C     0.70941   0.16668   0.24996   0.00000  Uiso   1.00
C177   C     0.80706   0.02482   0.22308   0.00000  Uiso   1.00
C178   C     0.85960   0.30851   0.27693   0.00000  Uiso   1.00
C179   C     0.85961   0.02478   0.27693   0.00000  Uiso   1.00
C180   C     0.80706   0.30855   0.22308   0.00000  Uiso   1.00
H181   H     0.78601   0.04352   0.20151   0.00000  Uiso   1.00
H182   H     0.88065   0.28981   0.29851   0.00000  Uiso   1.00
H183   H     0.88065   0.04346   0.29850   0.00000  Uiso   1.00
H184   H     0.78601   0.28988   0.20150   0.00000  Uiso   1.00
N185   N     0.83333   0.28402   0.25000   0.00000  Uiso   1.00
N186   N     0.83333   0.04931   0.25000   0.00000  Uiso   1.00
N187   N     0.90845   0.17535   0.38209   0.00000  Uiso   1.00
O188   O     0.92067   0.14114   0.35680   0.00000  Uiso   1.00
O189   O     0.92938   0.21416   0.38305   0.00000  Uiso   1.00
N190   N     0.75762   0.16064   0.11792   0.00000  Uiso   1.00
O191   O     0.75035   0.12452   0.14304   0.00000  Uiso   1.00
O192   O     0.73134   0.19501   0.11681   0.00000  Uiso   1.00
N193   N     0.75764   0.16053   0.38158   0.00000  Uiso   1.00
O194   O     0.75038   0.12436   0.35649   0.00000  Uiso   1.00
O195   O     0.73131   0.19485   0.38251   0.00000  Uiso   1.00
N196   N     0.90845   0.17532   0.11839   0.00000  Uiso   1.00
O197   O     0.92072   0.14104   0.14365   0.00000  Uiso   1.00
O198   O     0.92942   0.21409   0.11753   0.00000  Uiso   1.00
O199   O     0.10655   0.53958   0.25000   0.00000  Uiso   1.00
O200   O     0.22679   0.46042   0.25001   0.00000  Uiso   1.00
O201   O     0.22679   0.53958   0.25001   0.00000  Uiso   1.00
O202   O     0.10655   0.46042   0.25000   0.00000  Uiso   1.00
C203   C     0.08736   0.50001   0.24996   0.00000  Uiso   1.00
C204   C     0.24597   0.50000   0.25005   0.00000  Uiso   1.00
O205   O     0.16666   0.53960   0.18513   0.00000  Uiso   1.00
O206   O     0.16668   0.46040   0.31487   0.00000  Uiso   1.00
O207   O     0.16668   0.53960   0.31487   0.00000  Uiso   1.00
O208   O     0.16666   0.46040   0.18513   0.00000  Uiso   1.00
C209   C     0.16651   0.49999   0.16457   0.00000  Uiso   1.00
C210   C     0.16654   0.49999   0.33543   0.00000  Uiso   1.00
Cu211  Cu    0.16667   0.54689   0.25000   0.00000  Uiso   1.00
Cu212  Cu    0.16667   0.45311   0.25000   0.00000  Uiso   1.00
C213   C     0.20397   0.50480   0.40650   0.00000  Uiso   1.00
C214   C     0.12883   0.49714   0.09350   0.00000  Uiso   1.00
C215   C     0.16650   0.49990   0.38358   0.00000  Uiso   1.00
C216   C     0.16648   0.49992   0.11641   0.00000  Uiso   1.00
C217   C     0.12884   0.49710   0.40624   0.00000  Uiso   1.00
C218   C     0.20396   0.50480   0.09374   0.00000  Uiso   1.00
C219   C     0.12863   0.49818   0.45296   0.00000  Uiso   1.00
C220   C     0.20401   0.50585   0.04703   0.00000  Uiso   1.00
C221   C     0.16628   0.50246   0.47650   0.00000  Uiso   1.00
C222   C     0.16628   0.50246   0.02349   0.00000  Uiso   1.00
C223   C     0.20402   0.50585   0.45321   0.00000  Uiso   1.00
C224   C     0.12862   0.49820   0.04679   0.00000  Uiso   1.00
C225   C     0.09167   0.49367   0.47667   0.00000  Uiso   1.00
C226   C     0.24109   0.50875   0.02332   0.00000  Uiso   1.00
C227   C     0.09166   0.49369   0.02283   0.00000  Uiso   1.00
C228   C     0.24110   0.50875   0.47716   0.00000  Uiso   1.00
H229   H     0.06244   0.48929   0.45980   0.00000  Uiso   1.00
H230   H     0.27055   0.51025   0.04018   0.00000  Uiso   1.00
H231   H     0.06243   0.48932   0.03951   0.00000  Uiso   1.00
H232   H     0.27055   0.51026   0.46049   0.00000  Uiso   1.00
C233   C     0.02131   0.45747   0.24999   0.00000  Uiso   1.00
C234   C     0.31202   0.54254   0.25003   0.00000  Uiso   1.00
C235   C     0.31206   0.45747   0.25005   0.00000  Uiso   1.00
C236   C     0.02127   0.54255   0.24997   0.00000  Uiso   1.00
H237   H     0.03735   0.42422   0.24997   0.00000  Uiso   1.00
H238   H     0.29598   0.57580   0.25005   0.00000  Uiso   1.00
H239   H     0.29605   0.42421   0.25008   0.00000  Uiso   1.00
H240   H     0.03728   0.57581   0.24994   0.00000  Uiso   1.00
C241   C     0.29059   0.50000   0.25006   0.00000  Uiso   1.00
C242   C     0.04275   0.50002   0.24996   0.00000  Uiso   1.00
C243   C     0.14039   0.35815   0.22308   0.00000  Uiso   1.00
C244   C     0.19294   0.64185   0.27693   0.00000  Uiso   1.00
C245   C     0.19294   0.35812   0.27693   0.00000  Uiso   1.00
C246   C     0.14039   0.64188   0.22308   0.00000  Uiso   1.00
H247   H     0.11934   0.37685   0.20151   0.00000  Uiso   1.00
H248   H     0.21398   0.62315   0.29851   0.00000  Uiso   1.00
H249   H     0.21398   0.37679   0.29850   0.00000  Uiso   1.00
H250   H     0.11935   0.62321   0.20150   0.00000  Uiso   1.00
N251   N     0.16667   0.61736   0.25000   0.00000  Uiso   1.00
N252   N     0.16667   0.38264   0.25000   0.00000  Uiso   1.00
N253   N     0.24179   0.50868   0.38209   0.00000  Uiso   1.00
O254   O     0.25401   0.47448   0.35680   0.00000  Uiso   1.00
O255   O     0.26271   0.54749   0.38305   0.00000  Uiso   1.00
N256   N     0.09096   0.49397   0.11792   0.00000  Uiso   1.00
O257   O     0.08368   0.45786   0.14304   0.00000  Uiso   1.00
O258   O     0.06467   0.52834   0.11681   0.00000  Uiso   1.00
N259   N     0.09098   0.49387   0.38158   0.00000  Uiso   1.00
O260   O     0.08372   0.45770   0.35649   0.00000  Uiso   1.00
O261   O     0.06464   0.52818   0.38251   0.00000  Uiso   1.00
N262   N     0.24178   0.50865   0.11839   0.00000  Uiso   1.00
O263   O     0.25405   0.47437   0.14365   0.00000  Uiso   1.00
O264   O     0.26275   0.54742   0.11753   0.00000  Uiso   1.00
O265   O     0.43988   0.53958   0.25000   0.00000  Uiso   1.00
O266   O     0.56012   0.46042   0.25001   0.00000  Uiso   1.00
O267   O     0.56012   0.53958   0.25001   0.00000  Uiso   1.00
O268   O     0.43988   0.46042   0.25000   0.00000  Uiso   1.00
C269   C     0.42069   0.50001   0.24996   0.00000  Uiso   1.00
C270   C     0.57930   0.50000   0.25005   0.00000  Uiso   1.00
O271   O     0.49999   0.53960   0.18513   0.00000  Uiso   1.00
O272   O     0.50001   0.46040   0.31487   0.00000  Uiso   1.00
O273   O     0.50001   0.53960   0.31487   0.00000  Uiso   1.00
O274   O     0.49999   0.46040   0.18513   0.00000  Uiso   1.00
C275   C     0.49985   0.49999   0.16457   0.00000  Uiso   1.00
C276   C     0.49987   0.49999   0.33543   0.00000  Uiso   1.00
Cu277  Cu    0.50000   0.54689   0.25000   0.00000  Uiso   1.00
Cu278  Cu    0.50000   0.45311   0.25000   0.00000  Uiso   1.00
C279   C     0.53731   0.50480   0.40650   0.00000  Uiso   1.00
C280   C     0.46216   0.49714   0.09350   0.00000  Uiso   1.00
C281   C     0.49983   0.49990   0.38358   0.00000  Uiso   1.00
C282   C     0.49982   0.49992   0.11641   0.00000  Uiso   1.00
C283   C     0.46217   0.49710   0.40624   0.00000  Uiso   1.00
C284   C     0.53730   0.50480   0.09374   0.00000  Uiso   1.00
C285   C     0.46196   0.49818   0.45296   0.00000  Uiso   1.00
C286   C     0.53734   0.50585   0.04703   0.00000  Uiso   1.00
C287   C     0.49962   0.50246   0.47650   0.00000  Uiso   1.00
C288   C     0.49961   0.50246   0.02349   0.00000  Uiso   1.00
C289   C     0.53735   0.50585   0.45321   0.00000  Uiso   1.00
C290   C     0.46195   0.49820   0.04679   0.00000  Uiso   1.00
C291   C     0.42500   0.49367   0.47667   0.00000  Uiso   1.00
C292   C     0.57443   0.50875   0.02332   0.00000  Uiso   1.00
C293   C     0.42499   0.49369   0.02283   0.00000  Uiso   1.00
C294   C     0.57443   0.50875   0.47716   0.00000  Uiso   1.00
H295   H     0.39577   0.48929   0.45980   0.00000  Uiso   1.00
H296   H     0.60388   0.51025   0.04018   0.00000  Uiso   1.00
H297   H     0.39577   0.48932   0.03951   0.00000  Uiso   1.00
H298   H     0.60389   0.51026   0.46049   0.00000  Uiso   1.00
C299   C     0.35465   0.45747   0.24999   0.00000  Uiso   1.00
C300   C     0.64535   0.54254   0.25003   0.00000  Uiso   1.00
C301   C     0.64539   0.45747   0.25005   0.00000  Uiso   1.00
C302   C     0.35461   0.54255   0.24997   0.00000  Uiso   1.00
H303   H     0.37069   0.42422   0.24997   0.00000  Uiso   1.00
H304   H     0.62931   0.57580   0.25005   0.00000  Uiso   1.00
H305   H     0.62939   0.42421   0.25008   0.00000  Uiso   1.00
H306   H     0.37062   0.57581   0.24994   0.00000  Uiso   1.00
C307   C     0.62392   0.50000   0.25006   0.00000  Uiso   1.00
C308   C     0.37608   0.50002   0.24996   0.00000  Uiso   1.00
C309   C     0.47373   0.35815   0.22308   0.00000  Uiso   1.00
C310   C     0.52627   0.64185   0.27693   0.00000  Uiso   1.00
C311   C     0.52627   0.35812   0.27693   0.00000  Uiso   1.00
C312   C     0.47373   0.64188   0.22308   0.00000  Uiso   1.00
H313   H     0.45268   0.37685   0.20151   0.00000  Uiso   1.00
H314   H     0.54732   0.62315   0.29851   0.00000  Uiso   1.00
H315   H     0.54732   0.37679   0.29850   0.00000  Uiso   1.00
H316   H     0.45268   0.62321   0.20150   0.00000  Uiso   1.00
N317   N     0.50000   0.61736   0.25000   0.00000  Uiso   1.00
N318   N     0.50000   0.38264   0.25000   0.00000  Uiso   1.00
N319   N     0.57512   0.50868   0.38209   0.00000  Uiso   1.00
O320   O     0.58734   0.47448   0.35680   0.00000  Uiso   1.00
O321   O     0.59604   0.54749   0.38305   0.00000  Uiso   1.00
N322   N     0.42429   0.49397   0.11792   0.00000  Uiso   1.00
O323   O     0.41701   0.45786   0.14304   0.00000  Uiso   1.00
O324   O     0.39801   0.52834   0.11681   0.00000  Uiso   1.00
N325   N     0.42431   0.49387   0.38158   0.00000  Uiso   1.00
O326   O     0.41705   0.45770   0.35649   0.00000  Uiso   1.00
O327   O     0.39797   0.52818   0.38251   0.00000  Uiso   1.00
N328   N     0.57511   0.50865   0.11839   0.00000  Uiso   1.00
O329   O     0.58738   0.47437   0.14365   0.00000  Uiso   1.00
O330   O     0.59609   0.54742   0.11753   0.00000  Uiso   1.00
O331   O     0.77321   0.53958   0.25000   0.00000  Uiso   1.00
O332   O     0.89345   0.46042   0.25001   0.00000  Uiso   1.00
O333   O     0.89345   0.53958   0.25001   0.00000  Uiso   1.00
O334   O     0.77321   0.46042   0.25000   0.00000  Uiso   1.00
C335   C     0.75403   0.50001   0.24996   0.00000  Uiso   1.00
C336   C     0.91264   0.50000   0.25005   0.00000  Uiso   1.00
O337   O     0.83332   0.53960   0.18513   0.00000  Uiso   1.00
O338   O     0.83334   0.46040   0.31487   0.00000  Uiso   1.00
O339   O     0.83334   0.53960   0.31487   0.00000  Uiso   1.00
O340   O     0.83332   0.46040   0.18513   0.00000  Uiso   1.00
C341   C     0.83318   0.49999   0.16457   0.00000  Uiso   1.00
C342   C     0.83320   0.49999   0.33543   0.00000  Uiso   1.00
Cu343  Cu    0.83333   0.54689   0.25000   0.00000  Uiso   1.00
Cu344  Cu    0.83333   0.45311   0.25000   0.00000  Uiso   1.00
C345   C     0.87064   0.50480   0.40650   0.00000  Uiso   1.00
C346   C     0.79549   0.49714   0.09350   0.00000  Uiso   1.00
C347   C     0.83317   0.49990   0.38358   0.00000  Uiso   1.00
C348   C     0.83315   0.49992   0.11641   0.00000  Uiso   1.00
C349   C     0.79551   0.49710   0.40624   0.00000  Uiso   1.00
C350   C     0.87063   0.50480   0.09374   0.00000  Uiso   1.00
C351   C     0.79529   0.49818   0.45296   0.00000  Uiso   1.00
C352   C     0.87068   0.50585   0.04703   0.00000  Uiso   1.00
C353   C     0.83295   0.50246   0.47650   0.00000  Uiso   1.00
C354   C     0.83295   0.50246   0.02349   0.00000  Uiso   1.00
C355   C     0.87068   0.50585   0.45321   0.00000  Uiso   1.00
C356   C     0.79528   0.49820   0.04679   0.00000  Uiso   1.00
C357   C     0.75833   0.49367   0.47667   0.00000  Uiso   1.00
C358   C     0.90776   0.50875   0.02332   0.00000  Uiso   1.00
C359   C     0.75833   0.49369   0.02283   0.00000  Uiso   1.00
C360   C     0.90776   0.50875   0.47716   0.00000  Uiso   1.00
H361   H     0.72910   0.48929   0.45980   0.00000  Uiso   1.00
H362   H     0.93722   0.51025   0.04018   0.00000  Uiso   1.00
H363   H     0.72910   0.48932   0.03951   0.00000  Uiso   1.00
H364   H     0.93722   0.51026   0.46049   0.00000  Uiso   1.00
C365   C     0.68798   0.45747   0.24999   0.00000  Uiso   1.00
C366   C     0.97869   0.54254   0.25003   0.00000  Uiso   1.00
C367   C     0.97873   0.45747   0.25005   0.00000  Uiso   1.00
C368   C     0.68794   0.54255   0.24997   0.00000  Uiso   1.00
H369   H     0.70402   0.42422   0.24997   0.00000  Uiso   1.00
H370   H     0.96265   0.57580   0.25005   0.00000  Uiso   1.00
H371   H     0.96272   0.42421   0.25008   0.00000  Uiso   1.00
H372   H     0.70395   0.57581   0.24994   0.00000  Uiso   1.00
C373   C     0.95726   0.50000   0.25006   0.00000  Uiso   1.00
C374   C     0.70941   0.50002   0.24996   0.00000  Uiso   1.00
C375   C     0.80706   0.35815   0.22308   0.00000  Uiso   1.00
C376   C     0.85960   0.64185   0.27693   0.00000  Uiso   1.00
C377   C     0.85961   0.35812   0.27693   0.00000  Uiso   1.00
C378   C     0.80706   0.64188   0.22308   0.00000  Uiso   1.00
H379   H     0.78601   0.37685   0.20151   0.00000  Uiso   1.00
H380   H     0.88065   0.62315   0.29851   0.00000  Uiso   1.00
H381   H     0.88065   0.37679   0.29850   0.00000  Uiso   1.00
H382   H     0.78601   0.62321   0.20150   0.00000  Uiso   1.00
N383   N     0.83333   0.61736   0.25000   0.00000  Uiso   1.00
N384   N     0.83333   0.38264   0.25000   0.00000  Uiso   1.00
N385   N     0.90845   0.50868   0.38209   0.00000  Uiso   1.00
O386   O     0.92067   0.47448   0.35680   0.00000  Uiso   1.00
O387   O     0.92938   0.54749   0.38305   0.00000  Uiso   1.00
N388   N     0.75762   0.49397   0.11792   0.00000  Uiso   1.00
O389   O     0.75035   0.45786   0.14304   0.00000  Uiso   1.00
O390   O     0.73134   0.52834   0.11681   0.00000  Uiso   1.00
N391   N     0.75764   0.49387   0.38158   0.00000  Uiso   1.00
O392   O     0.75038   0.45770   0.35649   0.00000  Uiso   1.00
O393   O     0.73131   0.52818   0.38251   0.00000  Uiso   1.00
N394   N     0.90845   0.50865   0.11839   0.00000  Uiso   1.00
O395   O     0.92072   0.47437   0.14365   0.00000  Uiso   1.00
O396   O     0.92942   0.54742   0.11753   0.00000  Uiso   1.00
O397   O     0.10655   0.87291   0.25000   0.00000  Uiso   1.00
O398   O     0.22679   0.79375   0.25001   0.00000  Uiso   1.00
O399   O     0.22679   0.87291   0.25001   0.00000  Uiso   1.00
O400   O     0.10655   0.79375   0.25000   0.00000  Uiso   1.00
C401   C     0.08736   0.83334   0.24996   0.00000  Uiso   1.00
C402   C     0.24597   0.83333   0.25005   0.00000  Uiso   1.00
O403   O     0.16666   0.87293   0.18513   0.00000  Uiso   1.00
O404   O     0.16668   0.79373   0.31487   0.00000  Uiso   1.00
O405   O     0.16668   0.87293   0.31487   0.00000  Uiso   1.00
O406   O     0.16666   0.79373   0.18513   0.00000  Uiso   1.00
C407   C     0.16651   0.83333   0.16457   0.00000  Uiso   1.00
C408   C     0.16654   0.83332   0.33543   0.00000  Uiso   1.00
Cu409  Cu    0.16667   0.88022   0.25000   0.00000  Uiso   1.00
Cu410  Cu    0.16667   0.78645   0.25000   0.00000  Uiso   1.00
C411   C     0.20397   0.83813   0.40650   0.00000  Uiso   1.00
C412   C     0.12883   0.83047   0.09350   0.00000  Uiso   1.00
C413   C     0.16650   0.83324   0.38358   0.00000  Uiso   1.00
C414   C     0.16648   0.83325   0.11641   0.00000  Uiso   1.00
C415   C     0.12884   0.83043   0.40624   0.00000  Uiso   1.00
C416   C     0.20396   0.83813   0.09374   0.00000  Uiso   1.00
C417   C     0.12863   0.83151   0.45296   0.00000  Uiso   1.00
C418   C     0.20401   0.83918   0.04703   0.00000  Uiso   1.00
C419   C     0.16628   0.83579   0.47650   0.00000  Uiso   1.00
C420   C     0.16628   0.83580   0.02349   0.00000  Uiso   1.00
C421   C     0.20402   0.83918   0.45321   0.00000  Uiso   1.00
C422   C     0.12862   0.83153   0.04679   0.00000  Uiso   1.00
C423   C     0.09167   0.82701   0.47667   0.00000  Uiso   1.00
C424   C     0.24109   0.84208   0.02332   0.00000  Uiso   1.00
C425   C     0.09166   0.82702   0.02283   0.00000  Uiso   1.00
C426   C     0.24110   0.84208   0.47716   0.00000  Uiso   1.00
H427   H     0.06244   0.82262   0.45980   0.00000  Uiso   1.00
H428   H     0.27055   0.84358   0.04018   0.00000  Uiso   1.00
H429   H     0.06243   0.82265   0.03951   0.00000  Uiso   1.00
H430   H     0.27055   0.84359   0.46049   0.00000  Uiso   1.00
C431   C     0.02131   0.79081   0.24999   0.00000  Uiso   1.00
C432   C     0.31202   0.87588   0.25003   0.00000  Uiso   1.00
C433   C     0.31206   0.79080   0.25005   0.00000  Uiso   1.00
C434   C     0.02127   0.87588   0.24997   0.00000  Uiso   1.00
H435   H     0.03735   0.75755   0.24997   0.00000  Uiso   1.00
H436   H     0.29598   0.90913   0.25005   0.00000  Uiso   1.00
H437   H     0.29605   0.75755   0.25008   0.00000  Uiso   1.00
H438   H     0.03728   0.90914   0.24994   0.00000  Uiso   1.00
C439   C     0.29059   0.83334   0.25006   0.00000  Uiso   1.00
C440   C     0.04275   0.83335   0.24996   0.00000  Uiso   1.00
C441   C     0.14039   0.69149   0.22308   0.00000  Uiso   1.00
C442   C     0.19294   0.97518   0.27693   0.00000  Uiso   1.00
C443   C     0.19294   0.69145   0.27693   0.00000  Uiso   1.00
C444   C     0.14039   0.97522   0.22308   0.00000  Uiso   1.00
H445   H     0.11934   0.71018   0.20151   0.00000  Uiso   1.00
H446   H     0.21398   0.95648   0.29851   0.00000  Uiso   1.00
H447   H     0.21398   0.71013   0.29850   0.00000  Uiso   1.00
H448   H     0.11935   0.95654   0.20150   0.00000  Uiso   1.00
N449   N     0.16667   0.95069   0.25000   0.00000  Uiso   1.00
N450   N     0.16667   0.71598   0.25000   0.00000  Uiso   1.00
N451   N     0.24179   0.84201   0.38209   0.00000  Uiso   1.00
O452   O     0.25401   0.80781   0.35680   0.00000  Uiso   1.00
O453   O     0.26271   0.88082   0.38305   0.00000  Uiso   1.00
N454   N     0.09096   0.82730   0.11792   0.00000  Uiso   1.00
O455   O     0.08368   0.79119   0.14304   0.00000  Uiso   1.00
O456   O     0.06467   0.86167   0.11681   0.00000  Uiso   1.00
N457   N     0.09098   0.82720   0.38158   0.00000  Uiso   1.00
O458   O     0.08372   0.79103   0.35649   0.00000  Uiso   1.00
O459   O     0.06464   0.86152   0.38251   0.00000  Uiso   1.00
N460   N     0.24178   0.84198   0.11839   0.00000  Uiso   1.00
O461   O     0.25405   0.80771   0.14365   0.00000  Uiso   1.00
O462   O     0.26275   0.88076   0.11753   0.00000  Uiso   1.00
O463   O     0.43988   0.87291   0.25000   0.00000  Uiso   1.00
O464   O     0.56012   0.79375   0.25001   0.00000  Uiso   1.00
O465   O     0.56012   0.87291   0.25001   0.00000  Uiso   1.00
O466   O     0.43988   0.79375   0.25000   0.00000  Uiso   1.00
C467   C     0.42069   0.83334   0.24996   0.00000  Uiso   1.00
C468   C     0.57930   0.83333   0.25005   0.00000  Uiso   1.00
O469   O     0.49999   0.87293   0.18513   0.00000  Uiso   1.00
O470   O     0.50001   0.79373   0.31487   0.00000  Uiso   1.00
O471   O     0.50001   0.87293   0.31487   0.00000  Uiso   1.00
O472   O     0.49999   0.79373   0.18513   0.00000  Uiso   1.00
C473   C     0.49985   0.83333   0.16457   0.00000  Uiso   1.00
C474   C     0.49987   0.83332   0.33543   0.00000  Uiso   1.00
Cu475  Cu    0.50000   0.88022   0.25000   0.00000  Uiso   1.00
Cu476  Cu    0.50000   0.78645   0.25000   0.00000  Uiso   1.00
C477   C     0.53731   0.83813   0.40650   0.00000  Uiso   1.00
C478   C     0.46216   0.83047   0.09350   0.00000  Uiso   1.00
C479   C     0.49983   0.83324   0.38358   0.00000  Uiso   1.00
C480   C     0.49982   0.83325   0.11641   0.00000  Uiso   1.00
C481   C     0.46217   0.83043   0.40624   0.00000  Uiso   1.00
C482   C     0.53730   0.83813   0.09374   0.00000  Uiso   1.00
C483   C     0.46196   0.83151   0.45296   0.00000  Uiso   1.00
C484   C     0.53734   0.83918   0.04703   0.00000  Uiso   1.00
C485   C     0.49962   0.83579   0.47650   0.00000  Uiso   1.00
C486   C     0.49961   0.83580   0.02349   0.00000  Uiso   1.00
C487   C     0.53735   0.83918   0.45321   0.00000  Uiso   1.00
C488   C     0.46195   0.83153   0.04679   0.00000  Uiso   1.00
C489   C     0.42500   0.82701   0.47667   0.00000  Uiso   1.00
C490   C     0.57443   0.84208   0.02332   0.00000  Uiso   1.00
C491   C     0.42499   0.82702   0.02283   0.00000  Uiso   1.00
C492   C     0.57443   0.84208   0.47716   0.00000  Uiso   1.00
H493   H     0.39577   0.82262   0.45980   0.00000  Uiso   1.00
H494   H     0.60388   0.84358   0.04018   0.00000  Uiso   1.00
H495   H     0.39577   0.82265   0.03951   0.00000  Uiso   1.00
H496   H     0.60389   0.84359   0.46049   0.00000  Uiso   1.00
C497   C     0.35465   0.79081   0.24999   0.00000  Uiso   1.00
C498   C     0.64535   0.87588   0.25003   0.00000  Uiso   1.00
C499   C     0.64539   0.79080   0.25005   0.00000  Uiso   1.00
C500   C     0.35461   0.87588   0.24997   0.00000  Uiso   1.00
H501   H     0.37069   0.75755   0.24997   0.00000  Uiso   1.00
H502   H     0.62931   0.90913   0.25005   0.00000  Uiso   1.00
H503   H     0.62939   0.75755   0.25008   0.00000  Uiso   1.00
H504   H     0.37062   0.90914   0.24994   0.00000  Uiso   1.00
C505   C     0.62392   0.83334   0.25006   0.00000  Uiso   1.00
C506   C     0.37608   0.83335   0.24996   0.00000  Uiso   1.00
C507   C     0.47373   0.69149   0.22308   0.00000  Uiso   1.00
C508   C     0.52627   0.97518   0.27693   0.00000  Uiso   1.00
C509   C     0.52627   0.69145   0.27693   0.00000  Uiso   1.00
C510   C     0.47373   0.97522   0.22308   0.00000  Uiso   1.00
H511   H     0.45268   0.71018   0.20151   0.00000  Uiso   1.00
H512   H     0.54732   0.95648   0.29851   0.00000  Uiso   1.00
H513   H     0.54732   0.71013   0.29850   0.00000  Uiso   1.00
H514   H     0.45268   0.95654   0.20150   0.00000  Uiso   1.00
N515   N     0.50000   0.95069   0.25000   0.00000  Uiso   1.00
N516   N     0.50000   0.71598   0.25000   0.00000  Uiso   1.00
N517   N     0.57512   0.84201   0.38209   0.00000  Uiso   1.00
O518   O     0.58734   0.80781   0.35680   0.00000  Uiso   1.00
O519   O     0.59604   0.88082   0.38305   0.00000  Uiso   1.00
N520   N     0.42429   0.82730   0.11792   0.00000  Uiso   1.00
O521   O     0.41701   0.79119   0.14304   0.00000  Uiso   1.00
O522   O     0.39801   0.86167   0.11681   0.00000  Uiso   1.00
N523   N     0.42431   0.82720   0.38158   0.00000  Uiso   1.00
O524   O     0.41705   0.79103   0.35649   0.00000  Uiso   1.00
O525   O     0.39797   0.86152   0.38251   0.00000  Uiso   1.00
N526   N     0.57511   0.84198   0.11839   0.00000  Uiso   1.00
O527   O     0.58738   0.80771   0.14365   0.00000  Uiso   1.00
O528   O     0.59609   0.88076   0.11753   0.00000  Uiso   1.00
O529   O     0.77321   0.87291   0.25000   0.00000  Uiso   1.00
O530   O     0.89345   0.79375   0.25001   0.00000  Uiso   1.00
O531   O     0.89345   0.87291   0.25001   0.00000  Uiso   1.00
O532   O     0.77321   0.79375   0.25000   0.00000  Uiso   1.00
C533   C     0.75403   0.83334   0.24996   0.00000  Uiso   1.00
C534   C     0.91264   0.83333   0.25005   0.00000  Uiso   1.00
O535   O     0.83332   0.87293   0.18513   0.00000  Uiso   1.00
O536   O     0.83334   0.79373   0.31487   0.00000  Uiso   1.00
O537   O     0.83334   0.87293   0.31487   0.00000  Uiso   1.00
O538   O     0.83332   0.79373   0.18513   0.00000  Uiso   1.00
C539   C     0.83318   0.83333   0.16457   0.00000  Uiso   1.00
C540   C     0.83320   0.83332   0.33543   0.00000  Uiso   1.00
Cu541  Cu    0.83333   0.88022   0.25000   0.00000  Uiso   1.00
Cu542  Cu    0.83333   0.78645   0.25000   0.00000  Uiso   1.00
C543   C     0.87064   0.83813   0.40650   0.00000  Uiso   1.00
C544   C     0.79549   0.83047   0.09350   0.00000  Uiso   1.00
C545   C     0.83317   0.83324   0.38358   0.00000  Uiso   1.00
C546   C     0.83315   0.83325   0.11641   0.00000  Uiso   1.00
C547   C     0.79551   0.83043   0.40624   0.00000  Uiso   1.00
C548   C     0.87063   0.83813   0.09374   0.00000  Uiso   1.00
C549   C     0.79529   0.83151   0.45296   0.00000  Uiso   1.00
C550   C     0.87068   0.83918   0.04703   0.00000  Uiso   1.00
C551   C     0.83295   0.83579   0.47650   0.00000  Uiso   1.00
C552   C     0.83295   0.83580   0.02349   0.00000  Uiso   1.00
C553   C     0.87068   0.83918   0.45321   0.00000  Uiso   1.00
C554   C     0.79528   0.83153   0.04679   0.00000  Uiso   1.00
C555   C     0.75833   0.82701   0.47667   0.00000  Uiso   1.00
C556   C     0.90776   0.84208   0.02332   0.00000  Uiso   1.00
C557   C     0.75833   0.82702   0.02283   0.00000  Uiso   1.00
C558   C     0.90776   0.84208   0.47716   0.00000  Uiso   1.00
H559   H     0.72910   0.82262   0.45980   0.00000  Uiso   1.00
H560   H     0.93722   0.84358   0.04018   0.00000  Uiso   1.00
H561   H     0.72910   0.82265   0.03951   0.00000  Uiso   1.00
H562   H     0.93722   0.84359   0.46049   0.00000  Uiso   1.00
C563   C     0.68798   0.79081   0.24999   0.00000  Uiso   1.00
C564   C     0.97869   0.87588   0.25003   0.00000  Uiso   1.00
C565   C     0.97873   0.79080   0.25005   0.00000  Uiso   1.00
C566   C     0.68794   0.87588   0.24997   0.00000  Uiso   1.00
H567   H     0.70402   0.75755   0.24997   0.00000  Uiso   1.00
H568   H     0.96265   0.90913   0.25005   0.00000  Uiso   1.00
H569   H     0.96272   0.75755   0.25008   0.00000  Uiso   1.00
H570   H     0.70395   0.90914   0.24994   0.00000  Uiso   1.00
C571   C     0.95726   0.83334   0.25006   0.00000  Uiso   1.00
C572   C     0.70941   0.83335   0.24996   0.00000  Uiso   1.00
C573   C     0.80706   0.69149   0.22308   0.00000  Uiso   1.00
C574   C     0.85960   0.97518   0.27693   0.00000  Uiso   1.00
C575   C     0.85961   0.69145   0.27693   0.00000  Uiso   1.00
C576   C     0.80706   0.97522   0.22308   0.00000  Uiso   1.00
H577   H     0.78601   0.71018   0.20151   0.00000  Uiso   1.00
H578   H     0.88065   0.95648   0.29851   0.00000  Uiso   1.00
H579   H     0.88065   0.71013   0.29850   0.00000  Uiso   1.00
H580   H     0.78601   0.95654   0.20150   0.00000  Uiso   1.00
N581   N     0.83333   0.95069   0.25000   0.00000  Uiso   1.00
N582   N     0.83333   0.71598   0.25000   0.00000  Uiso   1.00
N583   N     0.90845   0.84201   0.38209   0.00000  Uiso   1.00
O584   O     0.92067   0.80781   0.35680   0.00000  Uiso   1.00
O585   O     0.92938   0.88082   0.38305   0.00000  Uiso   1.00
N586   N     0.75762   0.82730   0.11792   0.00000  Uiso   1.00
O587   O     0.75035   0.79119   0.14304   0.00000  Uiso   1.00
O588   O     0.73134   0.86167   0.11681   0.00000  Uiso   1.00
N589   N     0.75764   0.82720   0.38158   0.00000  Uiso   1.00
O590   O     0.75038   0.79103   0.35649   0.00000  Uiso   1.00
O591   O     0.73131   0.86152   0.38251   0.00000  Uiso   1.00
N592   N     0.90845   0.84198   0.11839   0.00000  Uiso   1.00
O593   O     0.92072   0.80771   0.14365   0.00000  Uiso   1.00
O594   O     0.92942   0.88076   0.11753   0.00000  Uiso   1.00
O595   O     0.10655   0.20625   0.75000   0.00000  Uiso   1.00
O596   O     0.22679   0.12709   0.75001   0.00000  Uiso   1.00
O597   O     0.22679   0.20625   0.75001   0.00000  Uiso   1.00
O598   O     0.10655   0.12709   0.75000   0.00000  Uiso   1.00
C599   C     0.08736   0.16668   0.74996   0.00000  Uiso   1.00
C600   C     0.24597   0.16667   0.75005   0.00000  Uiso   1.00
O601   O     0.16666   0.20627   0.68513   0.00000  Uiso   1.00
O602   O     0.16668   0.12707   0.81487   0.00000  Uiso   1.00
O603   O     0.16668   0.20627   0.81487   0.00000  Uiso   1.00
O604   O     0.16666   0.12707   0.68513   0.00000  Uiso   1.00
C605   C     0.16651   0.16666   0.66457   0.00000  Uiso   1.00
C606   C     0.16654   0.16665   0.83543   0.00000  Uiso   1.00
Cu607  Cu    0.16667   0.21355   0.75000   0.00000  Uiso   1.00
Cu608  Cu    0.16667   0.11978   0.75000   0.00000  Uiso   1.00
C609   C     0.20397   0.17146   0.90650   0.00000  Uiso   1.00
C610   C     0.12883   0.16381   0.59350   0.00000  Uiso   1.00
C611   C     0.16650   0.16657   0.88358   0.00000  Uiso   1.00
C612   C     0.16648   0.16659   0.61641   0.00000  Uiso   1.00
C613   C     0.12884   0.16377   0.90624   0.00000  Uiso   1.00
C614   C     0.20396   0.17147   0.59374   0.00000  Uiso   1.00
C615   C     0.12863   0.16484   0.95296   0.00000  Uiso   1.00
C616   C     0.20401   0.17251   0.54703   0.00000  Uiso   1.00
C617   C     0.16628   0.16913   0.97650   0.00000  Uiso   1.00
C618   C     0.16628   0.16913   0.52349   0.00000  Uiso   1.00
C619   C     0.20402   0.17251   0.95321   0.00000  Uiso   1.00
C620   C     0.12862   0.16486   0.54679   0.00000  Uiso   1.00
C621   C     0.09167   0.16034   0.97667   0.00000  Uiso   1.00
C622   C     0.24109   0.17541   0.52332   0.00000  Uiso   1.00
C623   C     0.09166   0.16036   0.52283   0.00000  Uiso   1.00
C624   C     0.24110   0.17542   0.97716   0.00000  Uiso   1.00
H625   H     0.06244   0.15596   0.95980   0.00000  Uiso   1.00
H626   H     0.27055   0.17692   0.54018   0.00000  Uiso   1.00
H627   H     0.06243   0.15599   0.53951   0.00000  Uiso   1.00
H628   H     0.27055   0.17693   0.96049   0.00000  Uiso   1.00
C629   C     0.02131   0.12414   0.74999   0.00000  Uiso   1.00
C630   C     0.31202   0.20921   0.75003   0.00000  Uiso   1.00
C631   C     0.31206   0.12413   0.75005   0.00000  Uiso   1.00
C632   C     0.02127   0.20922   0.74997   0.00000  Uiso   1.00
H633   H     0.03735   0.09089   0.74997   0.00000  Uiso   1.00
H634   H     0.29598   0.24246   0.75005   0.00000  Uiso   1.00
H635   H     0.29605   0.09088   0.75008   0.00000  Uiso   1.00
H636   H     0.03728   0.24247   0.74994   0.00000  Uiso   1.00
C637   C     0.29059   0.16667   0.75006   0.00000  Uiso   1.00
C638   C     0.04275   0.16668   0.74996   0.00000  Uiso   1.00
C639   C     0.14039   0.02482   0.72308   0.00000  Uiso   1.00
C640   C     0.19294   0.30851   0.77693   0.00000  Uiso   1.00
C641   C     0.19294   0.02478   0.77693   0.00000  Uiso   1.00
C642   C     0.14039   0.30855   0.72308   0.00000  Uiso   1.00
H643   H     0.11934   0.04352   0.70151   0.00000  Uiso   1.00
H644   H     0.21398   0.28981   0.79851   0.00000  Uiso   1.00
H645   H     0.21398   0.04346   0.79850   0.00000  Uiso   1.00
H646   H     0.11935   0.28988   0.70150   0.00000  Uiso   1.00
N647   N     0.16667   0.28402   0.75000   0.00000  Uiso   1.00
N648   N     0.16667   0.04931   0.75000   0.00000  Uiso   1.00
N649   N     0.24179   0.17535   0.88209   0.00000  Uiso   1.00
O650   O     0.25401   0.14114   0.85680   0.00000  Uiso   1.00
O651   O     0.26271   0.21416   0.88305   0.00000  Uiso   1.00
N652   N     0.09096   0.16064   0.61792   0.00000  Uiso   1.00
O653   O     0.08368   0.12452   0.64304   0.00000  Uiso   1.00
O654   O     0.06467   0.19501   0.61681   0.00000  Uiso   1.00
N655   N     0.09098   0.16053   0.88158   0.00000  Uiso   1.00
O656   O     0.08372   0.12436   0.85649   0.00000  Uiso   1.00
O657   O     0.06464   0.19485   0.88251   0.00000  Uiso   1.00
N658   N     0.24178   0.17532   0.61839   0.00000  Uiso   1.00
O659   O     0.25405   0.14104   0.64365   0.00000  Uiso   1.00
O660   O     0.26275   0.21409   0.61753   0.00000  Uiso   1.00
O661   O     0.43988   0.20625   0.75000   0.00000  Uiso   1.00
O662   O     0.56012   0.12709   0.75001   0.00000  Uiso   1.00
O663   O     0.56012   0.20625   0.75001   0.00000  Uiso   1.00
O664   O     0.43988   0.12709   0.75000   0.00000  Uiso   1.00
C665   C     0.42069   0.16668   0.74996   0.00000  Uiso   1.00
C666   C     0.57930   0.16667   0.75005   0.00000  Uiso   1.00
O667   O     0.49999   0.20627   0.68513   0.00000  Uiso   1.00
O668   O     0.50001   0.12707   0.81487   0.00000  Uiso   1.00
O669   O     0.50001   0.20627   0.81487   0.00000  Uiso   1.00
O670   O     0.49999   0.12707   0.68513   0.00000  Uiso   1.00
C671   C     0.49985   0.16666   0.66457   0.00000  Uiso   1.00
C672   C     0.49987   0.16665   0.83543   0.00000  Uiso   1.00
Cu673  Cu    0.50000   0.21355   0.75000   0.00000  Uiso   1.00
Cu674  Cu    0.50000   0.11978   0.75000   0.00000  Uiso   1.00
C675   C     0.53731   0.17146   0.90650   0.00000  Uiso   1.00
C676   C     0.46216   0.16381   0.59350   0.00000  Uiso   1.00
C677   C     0.49983   0.16657   0.88358   0.00000  Uiso   1.00
C678   C     0.49982   0.16659   0.61641   0.00000  Uiso   1.00
C679   C     0.46217   0.16377   0.90624   0.00000  Uiso   1.00
C680   C     0.53730   0.17147   0.59374   0.00000  Uiso   1.00
C681   C     0.46196   0.16484   0.95296   0.00000  Uiso   1.00
C682   C     0.53734   0.17251   0.54703   0.00000  Uiso   1.00
C683   C     0.49962   0.16913   0.97650   0.00000  Uiso   1.00
C684   C     0.49961   0.16913   0.52349   0.00000  Uiso   1.00
C685   C     0.53735   0.17251   0.95321   0.00000  Uiso   1.00
C686   C     0.46195   0.16486   0.54679   0.00000  Uiso   1.00
C687   C     0.42500   0.16034   0.97667   0.00000  Uiso   1.00
C688   C     0.57443   0.17541   0.52332   0.00000  Uiso   1.00
C689   C     0.42499   0.16036   0.52283   0.00000  Uiso   1.00
C690   C     0.57443   0.17542   0.97716   0.00000  Uiso   1.00
H691   H     0.39577   0.15596   0.95980   0.00000  Uiso   1.00
H692   H     0.60388   0.17692   0.54018   0.00000  Uiso   1.00
H693   H     0.39577   0.15599   0.53951   0.00000  Uiso   1.00
H694   H     0.60389   0.17693   0.96049   0.00000  Uiso   1.00
C695   C     0.35465   0.12414   0.74999   0.00000  Uiso   1.00
C696   C     0.64535   0.20921   0.75003   0.00000  Uiso   1.00
C697   C     0.64539   0.12413   0.75005   0.00000  Uiso   1.00
C698   C     0.35461   0.20922   0.74997   0.00000  Uiso   1.00
H699   H     0.37069   0.09089   0.74997   0.00000  Uiso   1.00
H700   H     0.62931   0.24246   0.75005   0.00000  Uiso   1.00
H701   H     0.62939   0.09088   0.75008   0.00000  Uiso   1.00
H702   H     0.37062   0.24247   0.74994   0.00000  Uiso   1.00
C703   C     0.62392   0.16667   0.75006   0.00000  Uiso   1.00
C704   C     0.37608   0.16668   0.74996   0.00000  Uiso   1.00
C705   C     0.47373   0.02482   0.72308   0.00000  Uiso   1.00
C706   C     0.52627   0.30851   0.77693   0.00000  Uiso   1.00
C707   C     0.52627   0.02478   0.77693   0.00000  Uiso   1.00
C708   C     0.47373   0.30855   0.72308   0.00000  Uiso   1.00
H709   H     0.45268   0.04352   0.70151   0.00000  Uiso   1.00
H710   H     0.54732   0.28981   0.79851   0.00000  Uiso   1.00
H711   H     0.54732   0.04346   0.79850   0.00000  Uiso   1.00
H712   H     0.45268   0.28988   0.70150   0.00000  Uiso   1.00
N713   N     0.50000   0.28402   0.75000   0.00000  Uiso   1.00
N714   N     0.50000   0.04931   0.75000   0.00000  Uiso   1.00
N715   N     0.57512   0.17535   0.88209   0.00000  Uiso   1.00
O716   O     0.58734   0.14114   0.85680   0.00000  Uiso   1.00
O717   O     0.59604   0.21416   0.88305   0.00000  Uiso   1.00
N718   N     0.42429   0.16064   0.61792   0.00000  Uiso   1.00
O719   O     0.41701   0.12452   0.64304   0.00000  Uiso   1.00
O720   O     0.39801   0.19501   0.61681   0.00000  Uiso   1.00
N721   N     0.42431   0.16053   0.88158   0.00000  Uiso   1.00
O722   O     0.41705   0.12436   0.85649   0.00000  Uiso   1.00
O723   O     0.39797   0.19485   0.88251   0.00000  Uiso   1.00
N724   N     0.57511   0.17532   0.61839   0.00000  Uiso   1.00
O725   O     0.58738   0.14104   0.64365   0.00000  Uiso   1.00
O726   O     0.59609   0.21409   0.61753   0.00000  Uiso   1.00
O727   O     0.77321   0.20625   0.75000   0.00000  Uiso   1.00
O728   O     0.89345   0.12709   0.75001   0.00000  Uiso   1.00
O729   O     0.89345   0.20625   0.75001   0.00000  Uiso   1.00
O730   O     0.77321   0.12709   0.75000   0.00000  Uiso   1.00
C731   C     0.75403   0.16668   0.74996   0.00000  Uiso   1.00
C732   C     0.91264   0.16667   0.75005   0.00000  Uiso   1.00
O733   O     0.83332   0.20627   0.68513   0.00000  Uiso   1.00
O734   O     0.83334   0.12707   0.81487   0.00000  Uiso   1.00
O735   O     0.83334   0.20627   0.81487   0.00000  Uiso   1.00
O736   O     0.83332   0.12707   0.68513   0.00000  Uiso   1.00
C737   C     0.83318   0.16666   0.66457   0.00000  Uiso   1.00
C738   C     0.83320   0.16665   0.83543   0.00000  Uiso   1.00
Cu739  Cu    0.83333   0.21355   0.75000   0.00000  Uiso   1.00
Cu740  Cu    0.83333   0.11978   0.75000   0.00000  Uiso   1.00
C741   C     0.87064   0.17146   0.90650   0.00000  Uiso   1.00
C742   C     0.79549   0.16381   0.59350   0.00000  Uiso   1.00
C743   C     0.83317   0.16657   0.88358   0.00000  Uiso   1.00
C744   C     0.83315   0.16659   0.61641   0.00000  Uiso   1.00
C745   C     0.79551   0.16377   0.90624   0.00000  Uiso   1.00
C746   C     0.87063   0.17147   0.59374   0.00000  Uiso   1.00
C747   C     0.79529   0.16484   0.95296   0.00000  Uiso   1.00
C748   C     0.87068   0.17251   0.54703   0.00000  Uiso   1.00
C749   C     0.83295   0.16913   0.97650   0.00000  Uiso   1.00
C750   C     0.83295   0.16913   0.52349   0.00000  Uiso   1.00
C751   C     0.87068   0.17251   0.95321   0.00000  Uiso   1.00
C752   C     0.79528   0.16486   0.54679   0.00000  Uiso   1.00
C753   C     0.75833   0.16034   0.97667   0.00000  Uiso   1.00
C754   C     0.90776   0.17541   0.52332   0.00000  Uiso   1.00
C755   C     0.75833   0.16036   0.52283   0.00000  Uiso   1.00
C756   C     0.90776   0.17542   0.97716   0.00000  Uiso   1.00
H757   H     0.72910   0.15596   0.95980   0.00000  Uiso   1.00
H758   H     0.93722   0.17692   0.54018   0.00000  Uiso   1.00
H759   H     0.72910   0.15599   0.53951   0.00000  Uiso   1.00
H760   H     0.93722   0.17693   0.96049   0.00000  Uiso   1.00
C761   C     0.68798   0.12414   0.74999   0.00000  Uiso   1.00
C762   C     0.97869   0.20921   0.75003   0.00000  Uiso   1.00
C763   C     0.97873   0.12413   0.75005   0.00000  Uiso   1.00
C764   C     0.68794   0.20922   0.74997   0.00000  Uiso   1.00
H765   H     0.70402   0.09089   0.74997   0.00000  Uiso   1.00
H766   H     0.96265   0.24246   0.75005   0.00000  Uiso   1.00
H767   H     0.96272   0.09088   0.75008   0.00000  Uiso   1.00
H768   H     0.70395   0.24247   0.74994   0.00000  Uiso   1.00
C769   C     0.95726   0.16667   0.75006   0.00000  Uiso   1.00
C770   C     0.70941   0.16668   0.74996   0.00000  Uiso   1.00
C771   C     0.80706   0.02482   0.72308   0.00000  Uiso   1.00
C772   C     0.85960   0.30851   0.77693   0.00000  Uiso   1.00
C773   C     0.85961   0.02478   0.77693   0.00000  Uiso   1.00
C774   C     0.80706   0.30855   0.72308   0.00000  Uiso   1.00
H775   H     0.78601   0.04352   0.70151   0.00000  Uiso   1.00
H776   H     0.88065   0.28981   0.79851   0.00000  Uiso   1.00
H777   H     0.88065   0.04346   0.79850   0.00000  Uiso   1.00
H778   H     0.78601   0.28988   0.70150   0.00000  Uiso   1.00
N779   N     0.83333   0.28402   0.75000   0.00000  Uiso   1.00
N780   N     0.83333   0.04931   0.75000   0.00000  Uiso   1.00
N781   N     0.90845   0.17535   0.88209   0.00000  Uiso   1.00
O782   O     0.92067   0.14114   0.85680   0.00000  Uiso   1.00
O783   O     0.92938   0.21416   0.88305   0.00000  Uiso   1.00
N784   N     0.75762   0.16064   0.61792   0.00000  Uiso   1.00
O785   O     0.75035   0.12452   0.64304   0.00000  Uiso   1.00
O786   O     0.73134   0.19501   0.61681   0.00000  Uiso   1.00
N787   N     0.75764   0.16053   0.88158   0.00000  Uiso   1.00
O788   O     0.75038   0.12436   0.85649   0.00000  Uiso   1.00
O789   O     0.73131   0.19485   0.88251   0.00000  Uiso   1.00
N790   N     0.90845   0.17532   0.61839   0.00000  Uiso   1.00
O791   O     0.92072   0.14104   0.64365   0.00000  Uiso   1.00
O792   O     0.92942   0.21409   0.61753   0.00000  Uiso   1.00
O793   O     0.10655   0.53958   0.75000   0.00000  Uiso   1.00
O794   O     0.22679   0.46042   0.75001   0.00000  Uiso   1.00
O795   O     0.22679   0.53958   0.75001   0.00000  Uiso   1.00
O796   O     0.10655   0.46042   0.75000   0.00000  Uiso   1.00
C797   C     0.08736   0.50001   0.74996   0.00000  Uiso   1.00
C798   C     0.24597   0.50000   0.75005   0.00000  Uiso   1.00
O799   O     0.16666   0.53960   0.68513   0.00000  Uiso   1.00
O800   O     0.16668   0.46040   0.81487   0.00000  Uiso   1.00
O801   O     0.16668   0.53960   0.81487   0.00000  Uiso   1.00
O802   O     0.16666   0.46040   0.68513   0.00000  Uiso   1.00
C803   C     0.16651   0.49999   0.66457   0.00000  Uiso   1.00
C804   C     0.16654   0.49999   0.83543   0.00000  Uiso   1.00
Cu805  Cu    0.16667   0.54689   0.75000   0.00000  Uiso   1.00
Cu806  Cu    0.16667   0.45311   0.75000   0.00000  Uiso   1.00
C807   C     0.20397   0.50480   0.90650   0.00000  Uiso   1.00
C808   C     0.12883   0.49714   0.59350   0.00000  Uiso   1.00
C809   C     0.16650   0.49990   0.88358   0.00000  Uiso   1.00
C810   C     0.16648   0.49992   0.61641   0.00000  Uiso   1.00
C811   C     0.12884   0.49710   0.90624   0.00000  Uiso   1.00
C812   C     0.20396   0.50480   0.59374   0.00000  Uiso   1.00
C813   C     0.12863   0.49818   0.95296   0.00000  Uiso   1.00
C814   C     0.20401   0.50585   0.54703   0.00000  Uiso   1.00
C815   C     0.16628   0.50246   0.97650   0.00000  Uiso   1.00
C816   C     0.16628   0.50246   0.52349   0.00000  Uiso   1.00
C817   C     0.20402   0.50585   0.95321   0.00000  Uiso   1.00
C818   C     0.12862   0.49820   0.54679   0.00000  Uiso   1.00
C819   C     0.09167   0.49367   0.97667   0.00000  Uiso   1.00
C820   C     0.24109   0.50875   0.52332   0.00000  Uiso   1.00
C821   C     0.09166   0.49369   0.52283   0.00000  Uiso   1.00
C822   C     0.24110   0.50875   0.97716   0.00000  Uiso   1.00
H823   H     0.06244   0.48929   0.95980   0.00000  Uiso   1.00
H824   H     0.27055   0.51025   0.54018   0.00000  Uiso   1.00
H825   H     0.06243   0.48932   0.53951   0.00000  Uiso   1.00
H826   H     0.27055   0.51026   0.96049   0.00000  Uiso   1.00
C827   C     0.02131   0.45747   0.74999   0.00000  Uiso   1.00
C828   C     0.31202   0.54254   0.75003   0.00000  Uiso   1.00
C829   C     0.31206   0.45747   0.75005   0.00000  Uiso   1.00
C830   C     0.02127   0.54255   0.74997   0.00000  Uiso   1.00
H831   H     0.03735   0.42422   0.74997   0.00000  Uiso   1.00
H832   H     0.29598   0.57580   0.75005   0.00000  Uiso   1.00
H833   H     0.29605   0.42421   0.75008   0.00000  Uiso   1.00
H834   H     0.03728   0.57581   0.74994   0.00000  Uiso   1.00
C835   C     0.29059   0.50000   0.75006   0.00000  Uiso   1.00
C836   C     0.04275   0.50002   0.74996   0.00000  Uiso   1.00
C837   C     0.14039   0.35815   0.72308   0.00000  Uiso   1.00
C838   C     0.19294   0.64185   0.77693   0.00000  Uiso   1.00
C839   C     0.19294   0.35812   0.77693   0.00000  Uiso   1.00
C840   C     0.14039   0.64188   0.72308   0.00000  Uiso   1.00
H841   H     0.11934   0.37685   0.70151   0.00000  Uiso   1.00
H842   H     0.21398   0.62315   0.79851   0.00000  Uiso   1.00
H843   H     0.21398   0.37679   0.79850   0.00000  Uiso   1.00
H844   H     0.11935   0.62321   0.70150   0.00000  Uiso   1.00
N845   N     0.16667   0.61736   0.75000   0.00000  Uiso   1.00
N846   N     0.16667   0.38264   0.75000   0.00000  Uiso   1.00
N847   N     0.24179   0.50868   0.88209   0.00000  Uiso   1.00
O848   O     0.25401   0.47448   0.85680   0.00000  Uiso   1.00
O849   O     0.26271   0.54749   0.88305   0.00000  Uiso   1.00
N850   N     0.09096   0.49397   0.61792   0.00000  Uiso   1.00
O851   O     0.08368   0.45786   0.64304   0.00000  Uiso   1.00
O852   O     0.06467   0.52834   0.61681   0.00000  Uiso   1.00
N853   N     0.09098   0.49387   0.88158   0.00000  Uiso   1.00
O854   O     0.08372   0.45770   0.85649   0.00000  Uiso   1.00
O855   O     0.06464   0.52818   0.88251   0.00000  Uiso   1.00
N856   N     0.24178   0.50865   0.61839   0.00000  Uiso   1.00
O857   O     0.25405   0.47437   0.64365   0.00000  Uiso   1.00
O858   O     0.26275   0.54742   0.61753   0.00000  Uiso   1.00
O859   O     0.43988   0.53958   0.75000   0.00000  Uiso   1.00
O860   O     0.56012   0.46042   0.75001   0.00000  Uiso   1.00
O861   O     0.56012   0.53958   0.75001   0.00000  Uiso   1.00
O862   O     0.43988   0.46042   0.75000   0.00000  Uiso   1.00
C863   C     0.42069   0.50001   0.74996   0.00000  Uiso   1.00
C864   C     0.57930   0.50000   0.75005   0.00000  Uiso   1.00
O865   O     0.49999   0.53960   0.68513   0.00000  Uiso   1.00
O866   O     0.50001   0.46040   0.81487   0.00000  Uiso   1.00
O867   O     0.50001   0.53960   0.81487   0.00000  Uiso   1.00
O868   O     0.49999   0.46040   0.68513   0.00000  Uiso   1.00
C869   C     0.49985   0.49999   0.66457   0.00000  Uiso   1.00
C870   C     0.49987   0.49999   0.83543   0.00000  Uiso   1.00
Cu871  Cu    0.50000   0.54689   0.75000   0.00000  Uiso   1.00
Cu872  Cu    0.50000   0.45311   0.75000   0.00000  Uiso   1.00
C873   C     0.53731   0.50480   0.90650   0.00000  Uiso   1.00
C874   C     0.46216   0.49714   0.59350   0.00000  Uiso   1.00
C875   C     0.49983   0.49990   0.88358   0.00000  Uiso   1.00
C876   C     0.49982   0.49992   0.61641   0.00000  Uiso   1.00
C877   C     0.46217   0.49710   0.90624   0.00000  Uiso   1.00
C878   C     0.53730   0.50480   0.59374   0.00000  Uiso   1.00
C879   C     0.46196   0.49818   0.95296   0.00000  Uiso   1.00
C880   C     0.53734   0.50585   0.54703   0.00000  Uiso   1.00
C881   C     0.49962   0.50246   0.97650   0.00000  Uiso   1.00
C882   C     0.49961   0.50246   0.52349   0.00000  Uiso   1.00
C883   C     0.53735   0.50585   0.95321   0.00000  Uiso   1.00
C884   C     0.46195   0.49820   0.54679   0.00000  Uiso   1.00
C885   C     0.42500   0.49367   0.97667   0.00000  Uiso   1.00
C886   C     0.57443   0.50875   0.52332   0.00000  Uiso   1.00
C887   C     0.42499   0.49369   0.52283   0.00000  Uiso   1.00
C888   C     0.57443   0.50875   0.97716   0.00000  Uiso   1.00
H889   H     0.39577   0.48929   0.95980   0.00000  Uiso   1.00
H890   H     0.60388   0.51025   0.54018   0.00000  Uiso   1.00
H891   H     0.39577   0.48932   0.53951   0.00000  Uiso   1.00
H892   H     0.60389   0.51026   0.96049   0.00000  Uiso   1.00
C893   C     0.35465   0.45747   0.74999   0.00000  Uiso   1.00
C894   C     0.64535   0.54254   0.75003   0.00000  Uiso   1.00
C895   C     0.64539   0.45747   0.75005   0.00000  Uiso   1.00
C896   C     0.35461   0.54255   0.74997   0.00000  Uiso   1.00
H897   H     0.37069   0.42422   0.74997   0.00000  Uiso   1.00
H898   H     0.62931   0.57580   0.75005   0.00000  Uiso   1.00
H899   H     0.62939   0.42421   0.75008   0.00000  Uiso   1.00
H900   H     0.37062   0.57581   0.74994   0.00000  Uiso   1.00
C901   C     0.62392   0.50000   0.75006   0.00000  Uiso   1.00
C902   C     0.37608   0.50002   0.74996   0.00000  Uiso   1.00
C903   C     0.47373   0.35815   0.72308   0.00000  Uiso   1.00
C904   C     0.52627   0.64185   0.77693   0.00000  Uiso   1.00
C905   C     0.52627   0.35812   0.77693   0.00000  Uiso   1.00
C906   C     0.47373   0.64188   0.72308   0.00000  Uiso   1.00
H907   H     0.45268   0.37685   0.70151   0.00000  Uiso   1.00
H908   H     0.54732   0.62315   0.79851   0.00000  Uiso   1.00
H909   H     0.54732   0.37679   0.79850   0.00000  Uiso   1.00
H910   H     0.45268   0.62321   0.70150   0.00000  Uiso   1.00
N911   N     0.50000   0.61736   0.75000   0.00000  Uiso   1.00
N912   N     0.50000   0.38264   0.75000   0.00000  Uiso   1.00
N913   N     0.57512   0.50868   0.88209   0.00000  Uiso   1.00
O914   O     0.58734   0.47448   0.85680   0.00000  Uiso   1.00
O915   O     0.59604   0.54749   0.88305   0.00000  Uiso   1.00
N916   N     0.42429   0.49397   0.61792   0.00000  Uiso   1.00
O917   O     0.41701   0.45786   0.64304   0.00000  Uiso   1.00
O918   O     0.39801   0.52834   0.61681   0.00000  Uiso   1.00
N919   N     0.42431   0.49387   0.88158   0.00000  Uiso   1.00
O920   O     0.41705   0.45770   0.85649   0.00000  Uiso   1.00
O921   O     0.39797   0.52818   0.88251   0.00000  Uiso   1.00
N922   N     0.57511   0.50865   0.61839   0.00000  Uiso   1.00
O923   O     0.58738   0.47437   0.64365   0.00000  Uiso   1.00
O924   O     0.59609   0.54742   0.61753   0.00000  Uiso   1.00
O925   O     0.77321   0.53958   0.75000   0.00000  Uiso   1.00
O926   O     0.89345   0.46042   0.75001   0.00000  Uiso   1.00
O927   O     0.89345   0.53958   0.75001   0.00000  Uiso   1.00
O928   O     0.77321   0.46042   0.75000   0.00000  Uiso   1.00
C929   C     0.75403   0.50001   0.74996   0.00000  Uiso   1.00
C930   C     0.91264   0.50000   0.75005   0.00000  Uiso   1.00
O931   O     0.83332   0.53960   0.68513   0.00000  Uiso   1.00
O932   O     0.83334   0.46040   0.81487   0.00000  Uiso   1.00
O933   O     0.83334   0.53960   0.81487   0.00000  Uiso   1.00
O934   O     0.83332   0.46040   0.68513   0.00000  Uiso   1.00
C935   C     0.83318   0.49999   0.66457   0.00000  Uiso   1.00
C936   C     0.83320   0.49999   0.83543   0.00000  Uiso   1.00
Cu937  Cu    0.83333   0.54689   0.75000   0.00000  Uiso   1.00
Cu938  Cu    0.83333   0.45311   0.75000   0.00000  Uiso   1.00
C939   C     0.87064   0.50480   0.90650   0.00000  Uiso   1.00
C940   C     0.79549   0.49714   0.59350   0.00000  Uiso   1.00
C941   C     0.83317   0.49990   0.88358   0.00000  Uiso   1.00
C942   C     0.83315   0.49992   0.61641   0.00000  Uiso   1.00
C943   C     0.79551   0.49710   0.90624   0.00000  Uiso   1.00
C944   C     0.87063   0.50480   0.59374   0.00000  Uiso   1.00
C945   C     0.79529   0.49818   0.95296   0.00000  Uiso   1.00
C946   C     0.87068   0.50585   0.54703   0.00000  Uiso   1.00
C947   C     0.83295   0.50246   0.97650   0.00000  Uiso   1.00
C948   C     0.83295   0.50246   0.52349   0.00000  Uiso   1.00
C949   C     0.87068   0.50585   0.95321   0.00000  Uiso   1.00
C950   C     0.79528   0.49820   0.54679   0.00000  Uiso   1.00
C951   C     0.75833   0.49367   0.97667   0.00000  Uiso   1.00
C952   C     0.90776   0.50875   0.52332   0.00000  Uiso   1.00
C953   C     0.75833   0.49369   0.52283   0.00000  Uiso   1.00
C954   C     0.90776   0.50875   0.97716   0.00000  Uiso   1.00
H955   H     0.72910   0.48929   0.95980   0.00000  Uiso   1.00
H956   H     0.93722   0.51025   0.54018   0.00000  Uiso   1.00
H957   H     0.72910   0.48932   0.53951   0.00000  Uiso   1.00
H958   H     0.93722   0.51026   0.96049   0.00000  Uiso   1.00
C959   C     0.68798   0.45747   0.74999   0.00000  Uiso   1.00
C960   C     0.97869   0.54254   0.75003   0.00000  Uiso   1.00
C961   C     0.97873   0.45747   0.75005   0.00000  Uiso   1.00
C962   C     0.68794   0.54255   0.74997   0.00000  Uiso   1.00
H963   H     0.70402   0.42422   0.74997   0.00000  Uiso   1.00
H964   H     0.96265   0.57580   0.75005   0.00000  Uiso   1.00
H965   H     0.96272   0.42421   0.75008   0.00000  Uiso   1.00
H966   H     0.70395   0.57581   0.74994   0.00000  Uiso   1.00
C967   C     0.95726   0.50000   0.75006   0.00000  Uiso   1.00
C968   C     0.70941   0.50002   0.74996   0.00000  Uiso   1.00
C969   C     0.80706   0.35815   0.72308   0.00000  Uiso   1.00
C970   C     0.85960   0.64185   0.77693   0.00000  Uiso   1.00
C971   C     0.85961   0.35812   0.77693   0.00000  Uiso   1.00
C972   C     0.80706   0.64188   0.72308   0.00000  Uiso   1.00
H973   H     0.78601   0.37685   0.70151   0.00000  Uiso   1.00
H974   H     0.88065   0.62315   0.79851   0.00000  Uiso   1.00
H975   H     0.88065   0.37679   0.79850   0.00000  Uiso   1.00
H976   H     0.78601   0.62321   0.70150   0.00000  Uiso   1.00
N977   N     0.83333   0.61736   0.75000   0.00000  Uiso   1.00
N978   N     0.83333   0.38264   0.75000   0.00000  Uiso   1.00
N979   N     0.90845   0.50868   0.88209   0.00000  Uiso   1.00
O980   O     0.92067   0.47448   0.85680   0.00000  Uiso   1.00
O981   O     0.92938   0.54749   0.88305   0.00000  Uiso   1.00
N982   N     0.75762   0.49397   0.61792   0.00000  Uiso   1.00
O983   O     0.75035   0.45786   0.64304   0.00000  Uiso   1.00
O984   O     0.73134   0.52834   0.61681   0.00000  Uiso   1.00
N985   N     0.75764   0.49387   0.88158   0.00000  Uiso   1.00
O986   O     0.75038   0.45770   0.85649   0.00000  Uiso   1.00
O987   O     0.73131   0.52818   0.88251   0.00000  Uiso   1.00
N988   N     0.90845   0.50865   0.61839   0.00000  Uiso   1.00
O989   O     0.92072   0.47437   0.64365   0.00000  Uiso   1.00
O990   O     0.92942   0.54742   0.61753   0.00000  Uiso   1.00
O991   O     0.10655   0.87291   0.75000   0.00000  Uiso   1.00
O992   O     0.22679   0.79375   0.75001   0.00000  Uiso   1.00
O993   O     0.22679   0.87291   0.75001   0.00000  Uiso   1.00
O994   O     0.10655   0.79375   0.75000   0.00000  Uiso   1.00
C995   C     0.08736   0.83334   0.74996   0.00000  Uiso   1.00
C996   C     0.24597   0.83333   0.75005   0.00000  Uiso   1.00
O997   O     0.16666   0.87293   0.68513   0.00000  Uiso   1.00
O998   O     0.16668   0.79373   0.81487   0.00000  Uiso   1.00
O999   O     0.16668   0.87293   0.81487   0.00000  Uiso   1.00
O1000  O     0.16666   0.79373   0.68513   0.00000  Uiso   1.00
C1001  C     0.16651   0.83333   0.66457   0.00000  Uiso   1.00
C1002  C     0.16654   0.83332   0.83543   0.00000  Uiso   1.00
Cu1003 Cu    0.16667   0.88022   0.75000   0.00000  Uiso   1.00
Cu1004 Cu    0.16667   0.78645   0.75000   0.00000  Uiso   1.00
C1005  C     0.20397   0.83813   0.90650   0.00000  Uiso   1.00
C1006  C     0.12883   0.83047   0.59350   0.00000  Uiso   1.00
C1007  C     0.16650   0.83324   0.88358   0.00000  Uiso   1.00
C1008  C     0.16648   0.83325   0.61641   0.00000  Uiso   1.00
C1009  C     0.12884   0.83043   0.90624   0.00000  Uiso   1.00
C1010  C     0.20396   0.83813   0.59374   0.00000  Uiso   1.00
C1011  C     0.12863   0.83151   0.95296   0.00000  Uiso   1.00
C1012  C     0.20401   0.83918   0.54703   0.00000  Uiso   1.00
C1013  C     0.16628   0.83579   0.97650   0.00000  Uiso   1.00
C1014  C     0.16628   0.83580   0.52349   0.00000  Uiso   1.00
C1015  C     0.20402   0.83918   0.95321   0.00000  Uiso   1.00
C1016  C     0.12862   0.83153   0.54679   0.00000  Uiso   1.00
C1017  C     0.09167   0.82701   0.97667   0.00000  Uiso   1.00
C1018  C     0.24109   0.84208   0.52332   0.00000  Uiso   1.00
C1019  C     0.09166   0.82702   0.52283   0.00000  Uiso   1.00
C1020  C     0.24110   0.84208   0.97716   0.00000  Uiso   1.00
H1021  H     0.06244   0.82262   0.95980   0.00000  Uiso   1.00
H1022  H     0.27055   0.84358   0.54018   0.00000  Uiso   1.00
H1023  H     0.06243   0.82265   0.53951   0.00000  Uiso   1.00
H1024  H     0.27055   0.84359   0.96049   0.00000  Uiso   1.00
C1025  C     0.02131   0.79081   0.74999   0.00000  Uiso   1.00
C1026  C     0.31202   0.87588   0.75003   0.00000  Uiso   1.00
C1027  C     0.31206   0.79080   0.75005   0.00000  Uiso   1.00
C1028  C     0.02127   0.87588   0.74997   0.00000  Uiso   1.00
H1029  H     0.03735   0.75755   0.74997   0.00000  Uiso   1.00
H1030  H     0.29598   0.90913   0.75005   0.00000  Uiso   1.00
H1031  H     0.29605   0.75755   0.75008   0.00000  Uiso   1.00
H1032  H     0.03728   0.90914   0.74994   0.00000  Uiso   1.00
C1033  C     0.29059   0.83334   0.75006   0.00000  Uiso   1.00
C1034  C     0.04275   0.83335   0.74996   0.00000  Uiso   1.00
C1035  C     0.14039   0.69149   0.72308   0.00000  Uiso   1.00
C1036  C     0.19294   0.97518   0.77693   0.00000  Uiso   1.00
C1037  C     0.19294   0.69145   0.77693   0.00000  Uiso   1.00
C1038  C     0.14039   0.97522   0.72308   0.00000  Uiso   1.00
H1039  H     0.11934   0.71018   0.70151   0.00000  Uiso   1.00
H1040  H     0.21398   0.95648   0.79851   0.00000  Uiso   1.00
H1041  H     0.21398   0.71013   0.79850   0.00000  Uiso   1.00
H1042  H     0.11935   0.95654   0.70150   0.00000  Uiso   1.00
N1043  N     0.16667   0.95069   0.75000   0.00000  Uiso   1.00
N1044  N     0.16667   0.71598   0.75000   0.00000  Uiso   1.00
N1045  N     0.24179   0.84201   0.88209   0.00000  Uiso   1.00
O1046  O     0.25401   0.80781   0.85680   0.00000  Uiso   1.00
O1047  O     0.26271   0.88082   0.88305   0.00000  Uiso   1.00
N1048  N     0.09096   0.82730   0.61792   0.00000  Uiso   1.00
O1049  O     0.08368   0.79119   0.64304   0.00000  Uiso   1.00
O1050  O     0.06467   0.86167   0.61681   0.00000  Uiso   1.00
N1051  N     0.09098   0.82720   0.88158   0.00000  Uiso   1.00
O1052  O     0.08372   0.79103   0.85649   0.00000  Uiso   1.00
O1053  O     0.06464   0.86152   0.88251   0.00000  Uiso   1.00
N1054  N     0.24178   0.84198   0.61839   0.00000  Uiso   1.00
O1055  O     0.25405   0.80771   0.64365   0.00000  Uiso   1.00
O1056  O     0.26275   0.88076   0.61753   0.00000  Uiso   1.00
O1057  O     0.43988   0.87291   0.75000   0.00000  Uiso   1.00
O1058  O     0.56012   0.79375   0.75001   0.00000  Uiso   1.00
O1059  O     0.56012   0.87291   0.75001   0.00000  Uiso   1.00
O1060  O     0.43988   0.79375   0.75000   0.00000  Uiso   1.00
C1061  C     0.42069   0.83334   0.74996   0.00000  Uiso   1.00
C1062  C     0.57930   0.83333   0.75005   0.00000  Uiso   1.00
O1063  O     0.49999   0.87293   0.68513   0.00000  Uiso   1.00
O1064  O     0.50001   0.79373   0.81487   0.00000  Uiso   1.00
O1065  O     0.50001   0.87293   0.81487   0.00000  Uiso   1.00
O1066  O     0.49999   0.79373   0.68513   0.00000  Uiso   1.00
C1067  C     0.49985   0.83333   0.66457   0.00000  Uiso   1.00
C1068  C     0.49987   0.83332   0.83543   0.00000  Uiso   1.00
Cu1069 Cu    0.50000   0.88022   0.75000   0.00000  Uiso   1.00
Cu1070 Cu    0.50000   0.78645   0.75000   0.00000  Uiso   1.00
C1071  C     0.53731   0.83813   0.90650   0.00000  Uiso   1.00
C1072  C     0.46216   0.83047   0.59350   0.00000  Uiso   1.00
C1073  C     0.49983   0.83324   0.88358   0.00000  Uiso   1.00
C1074  C     0.49982   0.83325   0.61641   0.00000  Uiso   1.00
C1075  C     0.46217   0.83043   0.90624   0.00000  Uiso   1.00
C1076  C     0.53730   0.83813   0.59374   0.00000  Uiso   1.00
C1077  C     0.46196   0.83151   0.95296   0.00000  Uiso   1.00
C1078  C     0.53734   0.83918   0.54703   0.00000  Uiso   1.00
C1079  C     0.49962   0.83579   0.97650   0.00000  Uiso   1.00
C1080  C     0.49961   0.83580   0.52349   0.00000  Uiso   1.00
C1081  C     0.53735   0.83918   0.95321   0.00000  Uiso   1.00
C1082  C     0.46195   0.83153   0.54679   0.00000  Uiso   1.00
C1083  C     0.42500   0.82701   0.97667   0.00000  Uiso   1.00
C1084  C     0.57443   0.84208   0.52332   0.00000  Uiso   1.00
C1085  C     0.42499   0.82702   0.52283   0.00000  Uiso   1.00
C1086  C     0.57443   0.84208   0.97716   0.00000  Uiso   1.00
H1087  H     0.39577   0.82262   0.95980   0.00000  Uiso   1.00
H1088  H     0.60388   0.84358   0.54018   0.00000  Uiso   1.00
H1089  H     0.39577   0.82265   0.53951   0.00000  Uiso   1.00
H1090  H     0.60389   0.84359   0.96049   0.00000  Uiso   1.00
C1091  C     0.35465   0.79081   0.74999   0.00000  Uiso   1.00
C1092  C     0.64535   0.87588   0.75003   0.00000  Uiso   1.00
C1093  C     0.64539   0.79080   0.75005   0.00000  Uiso   1.00
C1094  C     0.35461   0.87588   0.74997   0.00000  Uiso   1.00
H1095  H     0.37069   0.75755   0.74997   0.00000  Uiso   1.00
H1096  H     0.62931   0.90913   0.75005   0.00000  Uiso   1.00
H1097  H     0.62939   0.75755   0.75008   0.00000  Uiso   1.00
H1098  H     0.37062   0.90914   0.74994   0.00000  Uiso   1.00
C1099  C     0.62392   0.83334   0.75006   0.00000  Uiso   1.00
C1100  C     0.37608   0.83335   0.74996   0.00000  Uiso   1.00
C1101  C     0.47373   0.69149   0.72308   0.00000  Uiso   1.00
C1102  C     0.52627   0.97518   0.77693   0.00000  Uiso   1.00
C1103  C     0.52627   0.69145   0.77693   0.00000  Uiso   1.00
C1104  C     0.47373   0.97522   0.72308   0.00000  Uiso   1.00
H1105  H     0.45268   0.71018   0.70151   0.00000  Uiso   1.00
H1106  H     0.54732   0.95648   0.79851   0.00000  Uiso   1.00
H1107  H     0.54732   0.71013   0.79850   0.00000  Uiso   1.00
H1108  H     0.45268   0.95654   0.70150   0.00000  Uiso   1.00
N1109  N     0.50000   0.95069   0.75000   0.00000  Uiso   1.00
N1110  N     0.50000   0.71598   0.75000   0.00000  Uiso   1.00
N1111  N     0.57512   0.84201   0.88209   0.00000  Uiso   1.00
O1112  O     0.58734   0.80781   0.85680   0.00000  Uiso   1.00
O1113  O     0.59604   0.88082   0.88305   0.00000  Uiso   1.00
N1114  N     0.42429   0.82730   0.61792   0.00000  Uiso   1.00
O1115  O     0.41701   0.79119   0.64304   0.00000  Uiso   1.00
O1116  O     0.39801   0.86167   0.61681   0.00000  Uiso   1.00
N1117  N     0.42431   0.82720   0.88158   0.00000  Uiso   1.00
O1118  O     0.41705   0.79103   0.85649   0.00000  Uiso   1.00
O1119  O     0.39797   0.86152   0.88251   0.00000  Uiso   1.00
N1120  N     0.57511   0.84198   0.61839   0.00000  Uiso   1.00
O1121  O     0.58738   0.80771   0.64365   0.00000  Uiso   1.00
O1122  O     0.59609   0.88076   0.61753   0.00000  Uiso   1.00
O1123  O     0.77321   0.87291   0.75000   0.00000  Uiso   1.00
O1124  O     0.89345   0.79375   0.75001   0.00000  Uiso   1.00
O1125  O     0.89345   0.87291   0.75001   0.00000  Uiso   1.00
O1126  O     0.77321   0.79375   0.75000   0.00000  Uiso   1.00
C1127  C     0.75403   0.83334   0.74996   0.00000  Uiso   1.00
C1128  C     0.91264   0.83333   0.75005   0.00000  Uiso   1.00
O1129  O     0.83332   0.87293   0.68513   0.00000  Uiso   1.00
O1130  O     0.83334   0.79373   0.81487   0.00000  Uiso   1.00
O1131  O     0.83334   0.87293   0.81487   0.00000  Uiso   1.00
O1132  O     0.83332   0.79373   0.68513   0.00000  Uiso   1.00
C1133  C     0.83318   0.83333   0.66457   0.00000  Uiso   1.00
C1134  C     0.83320   0.83332   0.83543   0.00000  Uiso   1.00
Cu1135 Cu    0.83333   0.88022   0.75000   0.00000  Uiso   1.00
Cu1136 Cu    0.83333   0.78645   0.75000   0.00000  Uiso   1.00
C1137  C     0.87064   0.83813   0.90650   0.00000  Uiso   1.00
C1138  C     0.79549   0.83047   0.59350   0.00000  Uiso   1.00
C1139  C     0.83317   0.83324   0.88358   0.00000  Uiso   1.00
C1140  C     0.83315   0.83325   0.61641   0.00000  Uiso   1.00
C1141  C     0.79551   0.83043   0.90624   0.00000  Uiso   1.00
C1142  C     0.87063   0.83813   0.59374   0.00000  Uiso   1.00
C1143  C     0.79529   0.83151   0.95296   0.00000  Uiso   1.00
C1144  C     0.87068   0.83918   0.54703   0.00000  Uiso   1.00
C1145  C     0.83295   0.83579   0.97650   0.00000  Uiso   1.00
C1146  C     0.83295   0.83580   0.52349   0.00000  Uiso   1.00
C1147  C     0.87068   0.83918   0.95321   0.00000  Uiso   1.00
C1148  C     0.79528   0.83153   0.54679   0.00000  Uiso   1.00
C1149  C     0.75833   0.82701   0.97667   0.00000  Uiso   1.00
C1150  C     0.90776   0.84208   0.52332   0.00000  Uiso   1.00
C1151  C     0.75833   0.82702   0.52283   0.00000  Uiso   1.00
C1152  C     0.90776   0.84208   0.97716   0.00000  Uiso   1.00
H1153  H     0.72910   0.82262   0.95980   0.00000  Uiso   1.00
H1154  H     0.93722   0.84358   0.54018   0.00000  Uiso   1.00
H1155  H     0.72910   0.82265   0.53951   0.00000  Uiso   1.00
H1156  H     0.93722   0.84359   0.96049   0.00000  Uiso   1.00
C1157  C     0.68798   0.79081   0.74999   0.00000  Uiso   1.00
C1158  C     0.97869   0.87588   0.75003   0.00000  Uiso   1.00
C1159  C     0.97873   0.79080   0.75005   0.00000  Uiso   1.00
C1160  C     0.68794   0.87588   0.74997   0.00000  Uiso   1.00
H1161  H     0.70402   0.75755   0.74997   0.00000  Uiso   1.00
H1162  H     0.96265   0.90913   0.75005   0.00000  Uiso   1.00
H1163  H     0.96272   0.75755   0.75008   0.00000  Uiso   1.00
H1164  H     0.70395   0.90914   0.74994   0.00000  Uiso   1.00
C1165  C     0.95726   0.83334   0.75006   0.00000  Uiso   1.00
C1166  C     0.70941   0.83335   0.74996   0.00000  Uiso   1.00
C1167  C     0.80706   0.69149   0.72308   0.00000  Uiso   1.00
C1168  C     0.85960   0.97518   0.77693   0.00000  Uiso   1.00
C1169  C     0.85961   0.69145   0.77693   0.00000  Uiso   1.00
C1170  C     0.80706   0.97522   0.72308   0.00000  Uiso   1.00
H1171  H     0.78601   0.71018   0.70151   0.00000  Uiso   1.00
H1172  H     0.88065   0.95648   0.79851   0.00000  Uiso   1.00
H1173  H     0.88065   0.71013   0.79850   0.00000  Uiso   1.00
H1174  H     0.78601   0.95654   0.70150   0.00000  Uiso   1.00
N1175  N     0.83333   0.95069   0.75000   0.00000  Uiso   1.00
N1176  N     0.83333   0.71598   0.75000   0.00000  Uiso   1.00
N1177  N     0.90845   0.84201   0.88209   0.00000  Uiso   1.00
O1178  O     0.92067   0.80781   0.85680   0.00000  Uiso   1.00
O1179  O     0.92938   0.88082   0.88305   0.00000  Uiso   1.00
N1180  N     0.75762   0.82730   0.61792   0.00000  Uiso   1.00
O1181  O     0.75035   0.79119   0.64304   0.00000  Uiso   1.00
O1182  O     0.73134   0.86167   0.61681   0.00000  Uiso   1.00
N1183  N     0.75764   0.82720   0.88158   0.00000  Uiso   1.00
O1184  O     0.75038   0.79103   0.85649   0.00000  Uiso   1.00
O1185  O     0.73131   0.86152   0.88251   0.00000  Uiso   1.00
N1186  N     0.90845   0.84198   0.61839   0.00000  Uiso   1.00
O1187  O     0.92072   0.80771   0.64365   0.00000  Uiso   1.00
O1188  O     0.92942   0.88076   0.61753   0.00000  Uiso   1.00
loop_
_geom_bond_atom_site_label_1
_geom_bond_atom_site_label_2
_geom_bond_distance
_geom_bond_site_symmetry_2
_ccdc_geom_bond_type
O1     C5      1.291   .     A
O1     Cu13    1.963   .     S
O2     C6      1.291   .     A
O2     Cu14    1.963   .     S
O3     Cu13    1.963   .     S
O3     C6      1.291   .     A
O4     Cu14    1.963   .     S
O4     C5      1.291   .     A
C5     C44     1.449   .     S
C6     C43     1.449   .     S
O7     C11     1.289   .     A
O7     Cu13    1.962   .     S
O8     C12     1.289   .     A
O8     Cu14    1.962   .     S
O9     C12     1.289   .     A
O9     Cu13    1.961   .     S
O10    C11     1.289   .     A
O10    Cu14    1.961   .     S
C11    C18     1.448   .     S
C12    C17     1.448   .     S
Cu13   Cu14    2.679   .     S
Cu13   N53     2.013   .     S
Cu14   N54     2.013   .     S
C15    N55     1.437   .     S
C15    C17     1.404   .     A
C15    C25     1.405   .     A
C16    N58     1.437   .     S
C16    C18     1.404   .     A
C16    C26     1.405   .     A
C17    C19     1.404   .     A
C18    C20     1.404   .     A
C19    C21     1.405   .     A
C19    N61     1.437   .     S
C20    N64     1.437   .     S
C20    C22     1.405   .     A
C21    C27     1.404   .     A
C21    C23     1.416   .     A
C22    C28     1.404   .     A
C22    C24     1.416   .     A
C23    C25     1.416   .     A
C23    C618    1.413   .     S
C24    C26     1.416   .     A
C24    C617    1.413   1_554 S
C25    C30     1.404   .     A
C26    C29     1.404   .     A
C27    H31     1.082   .     S
C27    C623    1.388   .     S
C28    H32     1.082   .     S
C28    C624    1.388   1_554 S
C29    H33     1.082   .     S
C29    C621    1.388   1_554 S
C30    H34     1.082   .     S
C30    C622    1.388   .     S
C35    H39     1.083   .     S
C35    C44     1.401   .     A
C35    C169    1.383   1_455 S
C36    H40     1.083   .     S
C36    C43     1.401   .     A
C36    C104    1.383   .     S
C37    C43     1.401   .     A
C37    H41     1.083   .     S
C37    C101    1.383   .     S
C38    C44     1.401   .     A
C38    H42     1.083   .     S
C38    C168    1.383   1_455 S
C45    H49     1.082   .     S
C45    N54     1.367   .     A
C45    C444    1.417   1_545 S
C46    H50     1.082   .     S
C46    N53     1.367   .     A
C46    C245    1.417   .     S
C47    N54     1.367   .     A
C47    H51     1.082   .     S
C47    C442    1.417   1_545 S
C48    N53     1.367   .     A
C48    H52     1.082   .     S
C48    C243    1.417   .     S
N55    O56     1.301   .     A
N55    O57     1.301   .     A
N58    O60     1.301   .     A
N58    O59     1.301   .     A
N61    O62     1.301   .     A
N61    O63     1.301   .     A
N64    O65     1.301   .     A
N64    O66     1.301   .     A
O67    C71     1.291   .     A
O67    Cu79    1.963   .     S
O68    C72     1.291   .     A
O68    Cu80    1.963   .     S
O69    Cu79    1.963   .     S
O69    C72     1.291   .     A
O70    Cu80    1.963   .     S
O70    C71     1.291   .     A
C71    C110    1.449   .     S
C72    C109    1.449   .     S
O73    C77     1.289   .     A
O73    Cu79    1.962   .     S
O74    C78     1.289   .     A
O74    Cu80    1.962   .     S
O75    C78     1.289   .     A
O75    Cu79    1.961   .     S
O76    C77     1.289   .     A
O76    Cu80    1.961   .     S
C77    C84     1.448   .     S
C78    C83     1.448   .     S
Cu79   Cu80    2.679   .     S
Cu79   N119    2.013   .     S
Cu80   N120    2.013   .     S
C81    N121    1.437   .     S
C81    C83     1.404   .     A
C81    C91     1.405   .     A
C82    N124    1.437   .     S
C82    C84     1.404   .     A
C82    C92     1.405   .     A
C83    C85     1.404   .     A
C84    C86     1.404   .     A
C85    C87     1.405   .     A
C85    N127    1.437   .     S
C86    N130    1.437   .     S
C86    C88     1.405   .     A
C87    C93     1.404   .     A
C87    C89     1.416   .     A
C88    C94     1.404   .     A
C88    C90     1.416   .     A
C89    C91     1.416   .     A
C89    C684    1.413   .     S
C90    C92     1.416   .     A
C90    C683    1.413   1_554 S
C91    C96     1.404   .     A
C92    C95     1.404   .     A
C93    H97     1.082   .     S
C93    C689    1.388   .     S
C94    H98     1.082   .     S
C94    C690    1.388   1_554 S
C95    H99     1.082   .     S
C95    C687    1.388   1_554 S
C96    H100    1.082   .     S
C96    C688    1.388   .     S
C101   H105    1.083   .     S
C101   C110    1.401   .     A
C102   H106    1.083   .     S
C102   C109    1.401   .     A
C102   C170    1.383   .     S
C103   C109    1.401   .     A
C103   H107    1.083   .     S
C103   C167    1.383   .     S
C104   C110    1.401   .     A
C104   H108    1.083   .     S
C111   H115    1.082   .     S
C111   N120    1.367   .     A
C111   C510    1.417   1_545 S
C112   H116    1.082   .     S
C112   N119    1.367   .     A
C112   C311    1.417   .     S
C113   N120    1.367   .     A
C113   H117    1.082   .     S
C113   C508    1.417   1_545 S
C114   N119    1.367   .     A
C114   H118    1.082   .     S
C114   C309    1.417   .     S
N121   O122    1.301   .     A
N121   O123    1.301   .     A
N124   O126    1.301   .     A
N124   O125    1.301   .     A
N127   O128    1.301   .     A
N127   O129    1.301   .     A
N130   O131    1.301   .     A
N130   O132    1.301   .     A
O133   C137    1.291   .     A
O133   Cu145   1.963   .     S
O134   C138    1.291   .     A
O134   Cu146   1.963   .     S
O135   Cu145   1.963   .     S
O135   C138    1.291   .     A
O136   Cu146   1.963   .     S
O136   C137    1.291   .     A
C137   C176    1.449   .     S
C138   C175    1.449   .     S
O139   C143    1.289   .     A
O139   Cu145   1.962   .     S
O140   C144    1.289   .     A
O140   Cu146   1.962   .     S
O141   C144    1.289   .     A
O141   Cu145   1.961   .     S
O142   C143    1.289   .     A
O142   Cu146   1.961   .     S
C143   C150    1.448   .     S
C144   C149    1.448   .     S
Cu145  Cu146   2.679   .     S
Cu145  N185    2.013   .     S
Cu146  N186    2.013   .     S
C147   N187    1.437   .     S
C147   C149    1.404   .     A
C147   C157    1.405   .     A
C148   N190    1.437   .     S
C148   C150    1.404   .     A
C148   C158    1.405   .     A
C149   C151    1.404   .     A
C150   C152    1.404   .     A
C151   C153    1.405   .     A
C151   N193    1.437   .     S
C152   N196    1.437   .     S
C152   C154    1.405   .     A
C153   C159    1.404   .     A
C153   C155    1.416   .     A
C154   C160    1.404   .     A
C154   C156    1.416   .     A
C155   C157    1.416   .     A
C155   C750    1.413   .     S
C156   C158    1.416   .     A
C156   C749    1.413   1_554 S
C157   C162    1.404   .     A
C158   C161    1.404   .     A
C159   H163    1.082   .     S
C159   C755    1.388   .     S
C160   H164    1.082   .     S
C160   C756    1.388   1_554 S
C161   H165    1.082   .     S
C161   C753    1.388   1_554 S
C162   H166    1.082   .     S
C162   C754    1.388   .     S
C167   H171    1.083   .     S
C167   C176    1.401   .     A
C168   H172    1.083   .     S
C168   C175    1.401   .     A
C168   C38     1.383   1_655 S
C169   C175    1.401   .     A
C169   H173    1.083   .     S
C169   C35     1.383   1_655 S
C170   C176    1.401   .     A
C170   H174    1.083   .     S
C177   H181    1.082   .     S
C177   N186    1.367   .     A
C177   C576    1.417   1_545 S
C178   H182    1.082   .     S
C178   N185    1.367   .     A
C178   C377    1.417   .     S
C179   N186    1.367   .     A
C179   H183    1.082   .     S
C179   C574    1.417   1_545 S
C180   N185    1.367   .     A
C180   H184    1.082   .     S
C180   C375    1.417   .     S
N187   O188    1.301   .     A
N187   O189    1.301   .     A
N190   O192    1.301   .     A
N190   O191    1.301   .     A
N193   O194    1.301   .     A
N193   O195    1.301   .     A
N196   O197    1.301   .     A
N196   O198    1.301   .     A
O199   C203    1.291   .     A
O199   Cu211   1.963   .     S
O200   C204    1.291   .     A
O200   Cu212   1.963   .     S
O201   Cu211   1.963   .     S
O201   C204    1.291   .     A
O202   Cu212   1.963   .     S
O202   C203    1.291   .     A
C203   C242    1.449   .     S
C204   C241    1.449   .     S
O205   C209    1.289   .     A
O205   Cu211   1.962   .     S
O206   C210    1.289   .     A
O206   Cu212   1.962   .     S
O207   C210    1.289   .     A
O207   Cu211   1.961   .     S
O208   C209    1.289   .     A
O208   Cu212   1.961   .     S
C209   C216    1.448   .     S
C210   C215    1.448   .     S
Cu211  Cu212   2.679   .     S
Cu211  N251    2.013   .     S
Cu212  N252    2.013   .     S
C213   N253    1.437   .     S
C213   C215    1.404   .     A
C213   C223    1.405   .     A
C214   N256    1.437   .     S
C214   C216    1.404   .     A
C214   C224    1.405   .     A
C215   C217    1.404   .     A
C216   C218    1.404   .     A
C217   C219    1.405   .     A
C217   N259    1.437   .     S
C218   N262    1.437   .     S
C218   C220    1.405   .     A
C219   C225    1.404   .     A
C219   C221    1.416   .     A
C220   C226    1.404   .     A
C220   C222    1.416   .     A
C221   C223    1.416   .     A
C221   C816    1.413   .     S
C222   C224    1.416   .     A
C222   C815    1.413   1_554 S
C223   C228    1.404   .     A
C224   C227    1.404   .     A
C225   H229    1.082   .     S
C225   C821    1.388   .     S
C226   H230    1.082   .     S
C226   C822    1.388   1_554 S
C227   H231    1.082   .     S
C227   C819    1.388   1_554 S
C228   H232    1.082   .     S
C228   C820    1.388   .     S
C233   H237    1.083   .     S
C233   C242    1.401   .     A
C233   C367    1.383   1_455 S
C234   H238    1.083   .     S
C234   C241    1.401   .     A
C234   C302    1.383   .     S
C235   C241    1.401   .     A
C235   H239    1.083   .     S
C235   C299    1.383   .     S
C236   C242    1.401   .     A
C236   H240    1.083   .     S
C236   C366    1.383   1_455 S
C243   H247    1.082   .     S
C243   N252    1.367   .     A
C244   H248    1.082   .     S
C244   N251    1.367   .     A
C244   C443    1.417   .     S
C245   N252    1.367   .     A
C245   H249    1.082   .     S
C246   N251    1.367   .     A
C246   H250    1.082   .     S
C246   C441    1.417   .     S
N253   O254    1.301   .     A
N253   O255    1.301   .     A
N256   O258    1.301   .     A
N256   O257    1.301   .     A
N259   O260    1.301   .     A
N259   O261    1.301   .     A
N262   O263    1.301   .     A
N262   O264    1.301   .     A
O265   C269    1.291   .     A
O265   Cu277   1.963   .     S
O266   C270    1.291   .     A
O266   Cu278   1.963   .     S
O267   Cu277   1.963   .     S
O267   C270    1.291   .     A
O268   Cu278   1.963   .     S
O268   C269    1.291   .     A
C269   C308    1.449   .     S
C270   C307    1.449   .     S
O271   C275    1.289   .     A
O271   Cu277   1.962   .     S
O272   C276    1.289   .     A
O272   Cu278   1.962   .     S
O273   C276    1.289   .     A
O273   Cu277   1.961   .     S
O274   C275    1.289   .     A
O274   Cu278   1.961   .     S
C275   C282    1.448   .     S
C276   C281    1.448   .     S
Cu277  Cu278   2.679   .     S
Cu277  N317    2.013   .     S
Cu278  N318    2.013   .     S
C279   N319    1.437   .     S
C279   C281    1.404   .     A
C279   C289    1.405   .     A
C280   N322    1.437   .     S
C280   C282    1.404   .     A
C280   C290    1.405   .     A
C281   C283    1.404   .     A
C282   C284    1.404   .     A
C283   C285    1.405   .     A
C283   N325    1.437   .     S
C284   N328    1.437   .     S
C284   C286    1.405   .     A
C285   C291    1.404   .     A
C285   C287    1.416   .     A
C286   C292    1.404   .     A
C286   C288    1.416   .     A
C287   C289    1.416   .     A
C287   C882    1.413   .     S
C288   C290    1.416   .     A
C288   C881    1.413   1_554 S
C289   C294    1.404   .     A
C290   C293    1.404   .     A
C291   H295    1.082   .     S
C291   C887    1.388   .     S
C292   H296    1.082   .     S
C292   C888    1.388   1_554 S
C293   H297    1.082   .     S
C293   C885    1.388   1_554 S
C294   H298    1.082   .     S
C294   C886    1.388   .     S
C299   H303    1.083   .     S
C299   C308    1.401   .     A
C300   H304    1.083   .     S
C300   C307    1.401   .     A
C300   C368    1.383   .     S
C301   C307    1.401   .     A
C301   H305    1.083   .     S
C301   C365    1.383   .     S
C302   C308    1.401   .     A
C302   H306    1.083   .     S
C309   H313    1.082   .     S
C309   N318    1.367   .     A
C310   H314    1.082   .     S
C310   N317    1.367   .     A
C310   C509    1.417   .     S
C311   N318    1.367   .     A
C311   H315    1.082   .     S
C312   N317    1.367   .     A
C312   H316    1.082   .     S
C312   C507    1.417   .     S
N319   O320    1.301   .     A
N319   O321    1.301   .     A
N322   O324    1.301   .     A
N322   O323    1.301   .     A
N325   O326    1.301   .     A
N325   O327    1.301   .     A
N328   O329    1.301   .     A
N328   O330    1.301   .     A
O331   C335    1.291   .     A
O331   Cu343   1.963   .     S
O332   C336    1.291   .     A
O332   Cu344   1.963   .     S
O333   Cu343   1.963   .     S
O333   C336    1.291   .     A
O334   Cu344   1.963   .     S
O334   C335    1.291   .     A
C335   C374    1.449   .     S
C336   C373    1.449   .     S
O337   C341    1.289   .     A
O337   Cu343   1.962   .     S
O338   C342    1.289   .     A
O338   Cu344   1.962   .     S
O339   C342    1.289   .     A
O339   Cu343   1.961   .     S
O340   C341    1.289   .     A
O340   Cu344   1.961   .     S
C341   C348    1.448   .     S
C342   C347    1.448   .     S
Cu343  Cu344   2.679   .     S
Cu343  N383    2.013   .     S
Cu344  N384    2.013   .     S
C345   N385    1.437   .     S
C345   C347    1.404   .     A
C345   C355    1.405   .     A
C346   N388    1.437   .     S
C346   C348    1.404   .     A
C346   C356    1.405   .     A
C347   C349    1.404   .     A
C348   C350    1.404   .     A
C349   C351    1.405   .     A
C349   N391    1.437   .     S
C350   N394    1.437   .     S
C350   C352    1.405   .     A
C351   C357    1.404   .     A
C351   C353    1.416   .     A
C352   C358    1.404   .     A
C352   C354    1.416   .     A
C353   C355    1.416   .     A
C353   C948    1.413   .     S
C354   C356    1.416   .     A
C354   C947    1.413   1_554 S
C355   C360    1.404   .     A
C356   C359    1.404   .     A
C357   H361    1.082   .     S
C357   C953    1.388   .     S
C358   H362    1.082   .     S
C358   C954    1.388   1_554 S
C359   H363    1.082   .     S
C359   C951    1.388   1_554 S
C360   H364    1.082   .     S
C360   C952    1.388   .     S
C365   H369    1.083   .     S
C365   C374    1.401   .     A
C366   H370    1.083   .     S
C366   C373    1.401   .     A
C366   C236    1.383   1_655 S
C367   C373    1.401   .     A
C367   H371    1.083   .     S
C367   C233    1.383   1_655 S
C368   C374    1.401   .     A
C368   H372    1.083   .     S
C375   H379    1.082   .     S
C375   N384    1.367   .     A
C376   H380    1.082   .     S
C376   N383    1.367   .     A
C376   C575    1.417   .     S
C377   N384    1.367   .     A
C377   H381    1.082   .     S
C378   N383    1.367   .     A
C378   H382    1.082   .     S
C378   C573    1.417   .     S
N385   O386    1.301   .     A
N385   O387    1.301   .     A
N388   O390    1.301   .     A
N388   O389    1.301   .     A
N391   O392    1.301   .     A
N391   O393    1.301   .     A
N394   O395    1.301   .     A
N394   O396    1.301   .     A
O397   C401    1.291   .     A
O397   Cu409   1.963   .     S
O398   C402    1.291   .     A
O398   Cu410   1.963   .     S
O399   Cu409   1.963   .     S
O399   C402    1.291   .     A
O400   Cu410   1.963   .     S
O400   C401    1.291   .     A
C401   C440    1.449   .     S
C402   C439    1.449   .     S
O403   C407    1.289   .     A
O403   Cu409   1.962   .     S
O404   C408    1.289   .     A
O404   Cu410   1.962   .     S
O405   C408    1.289   .     A
O405   Cu409   1.961   .     S
O406   C407    1.289   .     A
O406   Cu410   1.961   .     S
C407   C414    1.448   .     S
C408   C413    1.448   .     S
Cu409  Cu410   2.679   .     S
Cu409  N449    2.013   .     S
Cu410  N450    2.013   .     S
C411   N451    1.437   .     S
C411   C413    1.404   .     A
C411   C421    1.405   .     A
C412   N454    1.437   .     S
C412   C414    1.404   .     A
C412   C422    1.405   .     A
C413   C415    1.404   .     A
C414   C416    1.404   .     A
C415   C417    1.405   .     A
C415   N457    1.437   .     S
C416   N460    1.437   .     S
C416   C418    1.405   .     A
C417   C423    1.404   .     A
C417   C419    1.416   .     A
C418   C424    1.404   .     A
C418   C420    1.416   .     A
C419   C421    1.416   .     A
C419   C1014   1.413   .     S
C420   C422    1.416   .     A
C420   C1013   1.413   1_554 S
C421   C426    1.404   .     A
C422   C425    1.404   .     A
C423   H427    1.082   .     S
C423   C1019   1.388   .     S
C424   H428    1.082   .     S
C424   C1020   1.388   1_554 S
C425   H429    1.082   .     S
C425   C1017   1.388   1_554 S
C426   H430    1.082   .     S
C426   C1018   1.388   .     S
C431   H435    1.083   .     S
C431   C440    1.401   .     A
C431   C565    1.383   1_455 S
C432   H436    1.083   .     S
C432   C439    1.401   .     A
C432   C500    1.383   .     S
C433   C439    1.401   .     A
C433   H437    1.083   .     S
C433   C497    1.383   .     S
C434   C440    1.401   .     A
C434   H438    1.083   .     S
C434   C564    1.383   1_455 S
C441   H445    1.082   .     S
C441   N450    1.367   .     A
C442   H446    1.082   .     S
C442   N449    1.367   .     A
C442   C47     1.417   1_565 S
C443   N450    1.367   .     A
C443   H447    1.082   .     S
C444   N449    1.367   .     A
C444   H448    1.082   .     S
C444   C45     1.417   1_565 S
N451   O452    1.301   .     A
N451   O453    1.301   .     A
N454   O456    1.301   .     A
N454   O455    1.301   .     A
N457   O458    1.301   .     A
N457   O459    1.301   .     A
N460   O461    1.301   .     A
N460   O462    1.301   .     A
O463   C467    1.291   .     A
O463   Cu475   1.963   .     S
O464   C468    1.291   .     A
O464   Cu476   1.963   .     S
O465   Cu475   1.963   .     S
O465   C468    1.291   .     A
O466   Cu476   1.963   .     S
O466   C467    1.291   .     A
C467   C506    1.449   .     S
C468   C505    1.449   .     S
O469   C473    1.289   .     A
O469   Cu475   1.962   .     S
O470   C474    1.289   .     A
O470   Cu476   1.962   .     S
O471   C474    1.289   .     A
O471   Cu475   1.961   .     S
O472   C473    1.289   .     A
O472   Cu476   1.961   .     S
C473   C480    1.448   .     S
C474   C479    1.448   .     S
Cu475  Cu476   2.679   .     S
Cu475  N515    2.013   .     S
Cu476  N516    2.013   .     S
C477   N517    1.437   .     S
C477   C479    1.404   .     A
C477   C487    1.405   .     A
C478   N520    1.437   .     S
C478   C480    1.404   .     A
C478   C488    1.405   .     A
C479   C481    1.404   .     A
C480   C482    1.404   .     A
C481   C483    1.405   .     A
C481   N523    1.437   .     S
C482   N526    1.437   .     S
C482   C484    1.405   .     A
C483   C489    1.404   .     A
C483   C485    1.416   .     A
C484   C490    1.404   .     A
C484   C486    1.416   .     A
C485   C487    1.416   .     A
C485   C1080   1.413   .     S
C486   C488    1.416   .     A
C486   C1079   1.413   1_554 S
C487   C492    1.404   .     A
C488   C491    1.404   .     A
C489   H493    1.082   .     S
C489   C1085   1.388   .     S
C490   H494    1.082   .     S
C490   C1086   1.388   1_554 S
C491   H495    1.082   .     S
C491   C1083   1.388   1_554 S
C492   H496    1.082   .     S
C492   C1084   1.388   .     S
C497   H501    1.083   .     S
C497   C506    1.401   .     A
C498   H502    1.083   .     S
C498   C505    1.401   .     A
C498   C566    1.383   .     S
C499   C505    1.401   .     A
C499   H503    1.083   .     S
C499   C563    1.383   .     S
C500   C506    1.401   .     A
C500   H504    1.083   .     S
C507   H511    1.082   .     S
C507   N516    1.367   .     A
C508   H512    1.082   .     S
C508   N515    1.367   .     A
C508   C113    1.417   1_565 S
C509   N516    1.367   .     A
C509   H513    1.082   .     S
C510   N515    1.367   .     A
C510   H514    1.082   .     S
C510   C111    1.417   1_565 S
N517   O518    1.301   .     A
N517   O519    1.301   .     A
N520   O522    1.301   .     A
N520   O521    1.301   .     A
N523   O524    1.301   .     A
N523   O525    1.301   .     A
N526   O527    1.301   .     A
N526   O528    1.301   .     A
O529   C533    1.291   .     A
O529   Cu541   1.963   .     S
O530   C534    1.291   .     A
O530   Cu542   1.963   .     S
O531   Cu541   1.963   .     S
O531   C534    1.291   .     A
O532   Cu542   1.963   .     S
O532   C533    1.291   .     A
C533   C572    1.449   .     S
C534   C571    1.449   .     S
O535   C539    1.289   .     A
O535   Cu541   1.962   .     S
O536   C540    1.289   .     A
O536   Cu542   1.962   .     S
O537   C540    1.289   .     A
O537   Cu541   1.961   .     S
O538   C539    1.289   .     A
O538   Cu542   1.961   .     S
C539   C546    1.448   .     S
C540   C545    1.448   .     S
Cu541  Cu542   2.679   .     S
Cu541  N581    2.013   .     S
Cu542  N582    2.013   .     S
C543   N583    1.437   .     S
C543   C545    1.404   .     A
C543   C553    1.405   .     A
C544   N586    1.437   .     S
C544   C546    1.404   .     A
C544   C554    1.405   .     A
C545   C547    1.404   .     A
C546   C548    1.404   .     A
C547   C549    1.405   .     A
C547   N589    1.437   .     S
C548   N592    1.437   .     S
C548   C550    1.405   .     A
C549   C555    1.404   .     A
C549   C551    1.416   .     A
C550   C556    1.404   .     A
C550   C552    1.416   .     A
C551   C553    1.416   .     A
C551   C1146   1.413   .     S
C552   C554    1.416   .     A
C552   C1145   1.413   1_554 S
C553   C558    1.404   .     A
C554   C557    1.404   .     A
C555   H559    1.082   .     S
C555   C1151   1.388   .     S
C556   H560    1.082   .     S
C556   C1152   1.388   1_554 S
C557   H561    1.082   .     S
C557   C1149   1.388   1_554 S
C558   H562    1.082   .     S
C558   C1150   1.388   .     S
C563   H567    1.083   .     S
C563   C572    1.401   .     A
C564   H568    1.083   .     S
C564   C571    1.401   .     A
C564   C434    1.383   1_655 S
C565   C571    1.401   .     A
C565   H569    1.083   .     S
C565   C431    1.383   1_655 S
C566   C572    1.401   .     A
C566   H570    1.083   .     S
C573   H577    1.082   .     S
C573   N582    1.367   .     A
C574   H578    1.082   .     S
C574   N581    1.367   .     A
C574   C179    1.417   1_565 S
C575   N582    1.367   .     A
C575   H579    1.082   .     S
C576   N581    1.367   .     A
C576   H580    1.082   .     S
C576   C177    1.417   1_565 S
N583   O584    1.301   .     A
N583   O585    1.301   .     A
N586   O588    1.301   .     A
N586   O587    1.301   .     A
N589   O590    1.301   .     A
N589   O591    1.301   .     A
N592   O593    1.301   .     A
N592   O594    1.301   .     A
O595   C599    1.291   .     A
O595   Cu607   1.963   .     S
O596   C600    1.291   .     A
O596   Cu608   1.963   .     S
O597   Cu607   1.963   .     S
O597   C600    1.291   .     A
O598   Cu608   1.963   .     S
O598   C599    1.291   .     A
C599   C638    1.449   .     S
C600   C637    1.449   .     S
O601   C605    1.289   .     A
O601   Cu607   1.962   .     S
O602   C606    1.289   .     A
O602   Cu608   1.962   .     S
O603   C606    1.289   .     A
O603   Cu607   1.961   .     S
O604   C605    1.289   .     A
O604   Cu608   1.961   .     S
C605   C612    1.448   .     S
C606   C611    1.448   .     S
Cu607  Cu608   2.679   .     S
Cu607  N647    2.013   .     S
Cu608  N648    2.013   .     S
C609   N649    1.437   .     S
C609   C611    1.404   .     A
C609   C619    1.405   .     A
C610   N652    1.437   .     S
C610   C612    1.404   .     A
C610   C620    1.405   .     A
C611   C613    1.404   .     A
C612   C614    1.404   .     A
C613   C615    1.405   .     A
C613   N655    1.437   .     S
C614   N658    1.437   .     S
C614   C616    1.405   .     A
C615   C621    1.404   .     A
C615   C617    1.416   .     A
C616   C622    1.404   .     A
C616   C618    1.416   .     A
C617   C619    1.416   .     A
C617   C24     1.413   1_556 S
C618   C620    1.416   .     A
C619   C624    1.404   .     A
C620   C623    1.404   .     A
C621   H625    1.082   .     S
C621   C29     1.388   1_556 S
C622   H626    1.082   .     S
C623   H627    1.082   .     S
C624   H628    1.082   .     S
C624   C28     1.388   1_556 S
C629   H633    1.083   .     S
C629   C638    1.401   .     A
C629   C763    1.383   1_455 S
C630   H634    1.083   .     S
C630   C637    1.401   .     A
C630   C698    1.383   .     S
C631   C637    1.401   .     A
C631   H635    1.083   .     S
C631   C695    1.383   .     S
C632   C638    1.401   .     A
C632   H636    1.083   .     S
C632   C762    1.383   1_455 S
C639   H643    1.082   .     S
C639   N648    1.367   .     A
C639   C1038   1.417   1_545 S
C640   H644    1.082   .     S
C640   N647    1.367   .     A
C640   C839    1.417   .     S
C641   N648    1.367   .     A
C641   H645    1.082   .     S
C641   C1036   1.417   1_545 S
C642   N647    1.367   .     A
C642   H646    1.082   .     S
C642   C837    1.417   .     S
N649   O650    1.301   .     A
N649   O651    1.301   .     A
N652   O654    1.301   .     A
N652   O653    1.301   .     A
N655   O656    1.301   .     A
N655   O657    1.301   .     A
N658   O659    1.301   .     A
N658   O660    1.301   .     A
O661   C665    1.291   .     A
O661   Cu673   1.963   .     S
O662   C666    1.291   .     A
O662   Cu674   1.963   .     S
O663   Cu673   1.963   .     S
O663   C666    1.291   .     A
O664   Cu674   1.963   .     S
O664   C665    1.291   .     A
C665   C704    1.449   .     S
C666   C703    1.449   .     S
O667   C671    1.289   .     A
O667   Cu673   1.962   .     S
O668   C672    1.289   .     A
O668   Cu674   1.962   .     S
O669   C672    1.289   .     A
O669   Cu673   1.961   .     S
O670   C671    1.289   .     A
O670   Cu674   1.961   .     S
C671   C678    1.448   .     S
C672   C677    1.448   .     S
Cu673  Cu674   2.679   .     S
Cu673  N713    2.013   .     S
Cu674  N714    2.013   .     S
C675   N715    1.437   .     S
C675   C677    1.404   .     A
C675   C685    1.405   .     A
C676   N718    1.437   .     S
C676   C678    1.404   .     A
C676   C686    1.405   .     A
C677   C679    1.404   .     A
C678   C680    1.404   .     A
C679   C681    1.405   .     A
C679   N721    1.437   .     S
C680   N724    1.437   .     S
C680   C682    1.405   .     A
C681   C687    1.404   .     A
C681   C683    1.416   .     A
C682   C688    1.404   .     A
C682   C684    1.416   .     A
C683   C685    1.416   .     A
C683   C90     1.413   1_556 S
C684   C686    1.416   .     A
C685   C690    1.404   .     A
C686   C689    1.404   .     A
C687   H691    1.082   .     S
C687   C95     1.388   1_556 S
C688   H692    1.082   .     S
C689   H693    1.082   .     S
C690   H694    1.082   .     S
C690   C94     1.388   1_556 S
C695   H699    1.083   .     S
C695   C704    1.401   .     A
C696   H700    1.083   .     S
C696   C703    1.401   .     A
C696   C764    1.383   .     S
C697   C703    1.401   .     A
C697   H701    1.083   .     S
C697   C761    1.383   .     S
C698   C704    1.401   .     A
C698   H702    1.083   .     S
C705   H709    1.082   .     S
C705   N714    1.367   .     A
C705   C1104   1.417   1_545 S
C706   H710    1.082   .     S
C706   N713    1.367   .     A
C706   C905    1.417   .     S
C707   N714    1.367   .     A
C707   H711    1.082   .     S
C707   C1102   1.417   1_545 S
C708   N713    1.367   .     A
C708   H712    1.082   .     S
C708   C903    1.417   .     S
N715   O716    1.301   .     A
N715   O717    1.301   .     A
N718   O720    1.301   .     A
N718   O719    1.301   .     A
N721   O722    1.301   .     A
N721   O723    1.301   .     A
N724   O725    1.301   .     A
N724   O726    1.301   .     A
O727   C731    1.291   .     A
O727   Cu739   1.963   .     S
O728   C732    1.291   .     A
O728   Cu740   1.963   .     S
O729   Cu739   1.963   .     S
O729   C732    1.291   .     A
O730   Cu740   1.963   .     S
O730   C731    1.291   .     A
C731   C770    1.449   .     S
C732   C769    1.449   .     S
O733   C737    1.289   .     A
O733   Cu739   1.962   .     S
O734   C738    1.289   .     A
O734   Cu740   1.962   .     S
O735   C738    1.289   .     A
O735   Cu739   1.961   .     S
O736   C737    1.289   .     A
O736   Cu740   1.961   .     S
C737   C744    1.448   .     S
C738   C743    1.448   .     S
Cu739  Cu740   2.679   .     S
Cu739  N779    2.013   .     S
Cu740  N780    2.013   .     S
C741   N781    1.437   .     S
C741   C743    1.404   .     A
C741   C751    1.405   .     A
C742   N784    1.437   .     S
C742   C744    1.404   .     A
C742   C752    1.405   .     A
C743   C745    1.404   .     A
C744   C746    1.404   .     A
C745   C747    1.405   .     A
C745   N787    1.437   .     S
C746   N790    1.437   .     S
C746   C748    1.405   .     A
C747   C753    1.404   .     A
C747   C749    1.416   .     A
C748   C754    1.404   .     A
C748   C750    1.416   .     A
C749   C751    1.416   .     A
C749   C156    1.413   1_556 S
C750   C752    1.416   .     A
C751   C756    1.404   .     A
C752   C755    1.404   .     A
C753   H757    1.082   .     S
C753   C161    1.388   1_556 S
C754   H758    1.082   .     S
C755   H759    1.082   .     S
C756   H760    1.082   .     S
C756   C160    1.388   1_556 S
C761   H765    1.083   .     S
C761   C770    1.401   .     A
C762   H766    1.083   .     S
C762   C769    1.401   .     A
C762   C632    1.383   1_655 S
C763   C769    1.401   .     A
C763   H767    1.083   .     S
C763   C629    1.383   1_655 S
C764   C770    1.401   .     A
C764   H768    1.083   .     S
C771   H775    1.082   .     S
C771   N780    1.367   .     A
C771   C1170   1.417   1_545 S
C772   H776    1.082   .     S
C772   N779    1.367   .     A
C772   C971    1.417   .     S
C773   N780    1.367   .     A
C773   H777    1.082   .     S
C773   C1168   1.417   1_545 S
C774   N779    1.367   .     A
C774   H778    1.082   .     S
C774   C969    1.417   .     S
N781   O782    1.301   .     A
N781   O783    1.301   .     A
N784   O786    1.301   .     A
N784   O785    1.301   .     A
N787   O788    1.301   .     A
N787   O789    1.301   .     A
N790   O791    1.301   .     A
N790   O792    1.301   .     A
O793   C797    1.291   .     A
O793   Cu805   1.963   .     S
O794   C798    1.291   .     A
O794   Cu806   1.963   .     S
O795   Cu805   1.963   .     S
O795   C798    1.291   .     A
O796   Cu806   1.963   .     S
O796   C797    1.291   .     A
C797   C836    1.449   .     S
C798   C835    1.449   .     S
O799   C803    1.289   .     A
O799   Cu805   1.962   .     S
O800   C804    1.289   .     A
O800   Cu806   1.962   .     S
O801   C804    1.289   .     A
O801   Cu805   1.961   .     S
O802   C803    1.289   .     A
O802   Cu806   1.961   .     S
C803   C810    1.448   .     S
C804   C809    1.448   .     S
Cu805  Cu806   2.679   .     S
Cu805  N845    2.013   .     S
Cu806  N846    2.013   .     S
C807   N847    1.437   .     S
C807   C809    1.404   .     A
C807   C817    1.405   .     A
C808   N850    1.437   .     S
C808   C810    1.404   .     A
C808   C818    1.405   .     A
C809   C811    1.404   .     A
C810   C812    1.404   .     A
C811   C813    1.405   .     A
C811   N853    1.437   .     S
C812   N856    1.437   .     S
C812   C814    1.405   .     A
C813   C819    1.404   .     A
C813   C815    1.416   .     A
C814   C820    1.404   .     A
C814   C816    1.416   .     A
C815   C817    1.416   .     A
C815   C222    1.413   1_556 S
C816   C818    1.416   .     A
C817   C822    1.404   .     A
C818   C821    1.404   .     A
C819   H823    1.082   .     S
C819   C227    1.388   1_556 S
C820   H824    1.082   .     S
C821   H825    1.082   .     S
C822   H826    1.082   .     S
C822   C226    1.388   1_556 S
C827   H831    1.083   .     S
C827   C836    1.401   .     A
C827   C961    1.383   1_455 S
C828   H832    1.083   .     S
C828   C835    1.401   .     A
C828   C896    1.383   .     S
C829   C835    1.401   .     A
C829   H833    1.083   .     S
C829   C893    1.383   .     S
C830   C836    1.401   .     A
C830   H834    1.083   .     S
C830   C960    1.383   1_455 S
C837   H841    1.082   .     S
C837   N846    1.367   .     A
C838   H842    1.082   .     S
C838   N845    1.367   .     A
C838   C1037   1.417   .     S
C839   N846    1.367   .     A
C839   H843    1.082   .     S
C840   N845    1.367   .     A
C840   H844    1.082   .     S
C840   C1035   1.417   .     S
N847   O848    1.301   .     A
N847   O849    1.301   .     A
N850   O852    1.301   .     A
N850   O851    1.301   .     A
N853   O854    1.301   .     A
N853   O855    1.301   .     A
N856   O857    1.301   .     A
N856   O858    1.301   .     A
O859   C863    1.291   .     A
O859   Cu871   1.963   .     S
O860   C864    1.291   .     A
O860   Cu872   1.963   .     S
O861   Cu871   1.963   .     S
O861   C864    1.291   .     A
O862   Cu872   1.963   .     S
O862   C863    1.291   .     A
C863   C902    1.449   .     S
C864   C901    1.449   .     S
O865   C869    1.289   .     A
O865   Cu871   1.962   .     S
O866   C870    1.289   .     A
O866   Cu872   1.962   .     S
O867   C870    1.289   .     A
O867   Cu871   1.961   .     S
O868   C869    1.289   .     A
O868   Cu872   1.961   .     S
C869   C876    1.448   .     S
C870   C875    1.448   .     S
Cu871  Cu872   2.679   .     S
Cu871  N911    2.013   .     S
Cu872  N912    2.013   .     S
C873   N913    1.437   .     S
C873   C875    1.404   .     A
C873   C883    1.405   .     A
C874   N916    1.437   .     S
C874   C876    1.404   .     A
C874   C884    1.405   .     A
C875   C877    1.404   .     A
C876   C878    1.404   .     A
C877   C879    1.405   .     A
C877   N919    1.437   .     S
C878   N922    1.437   .     S
C878   C880    1.405   .     A
C879   C885    1.404   .     A
C879   C881    1.416   .     A
C880   C886    1.404   .     A
C880   C882    1.416   .     A
C881   C883    1.416   .     A
C881   C288    1.413   1_556 S
C882   C884    1.416   .     A
C883   C888    1.404   .     A
C884   C887    1.404   .     A
C885   H889    1.082   .     S
C885   C293    1.388   1_556 S
C886   H890    1.082   .     S
C887   H891    1.082   .     S
C888   H892    1.082   .     S
C888   C292    1.388   1_556 S
C893   H897    1.083   .     S
C893   C902    1.401   .     A
C894   H898    1.083   .     S
C894   C901    1.401   .     A
C894   C962    1.383   .     S
C895   C901    1.401   .     A
C895   H899    1.083   .     S
C895   C959    1.383   .     S
C896   C902    1.401   .     A
C896   H900    1.083   .     S
C903   H907    1.082   .     S
C903   N912    1.367   .     A
C904   H908    1.082   .     S
C904   N911    1.367   .     A
C904   C1103   1.417   .     S
C905   N912    1.367   .     A
C905   H909    1.082   .     S
C906   N911    1.367   .     A
C906   H910    1.082   .     S
C906   C1101   1.417   .     S
N913   O914    1.301   .     A
N913   O915    1.301   .     A
N916   O918    1.301   .     A
N916   O917    1.301   .     A
N919   O920    1.301   .     A
N919   O921    1.301   .     A
N922   O923    1.301   .     A
N922   O924    1.301   .     A
O925   C929    1.291   .     A
O925   Cu937   1.963   .     S
O926   C930    1.291   .     A
O926   Cu938   1.963   .     S
O927   Cu937   1.963   .     S
O927   C930    1.291   .     A
O928   Cu938   1.963   .     S
O928   C929    1.291   .     A
C929   C968    1.449   .     S
C930   C967    1.449   .     S
O931   C935    1.289   .     A
O931   Cu937   1.962   .     S
O932   C936    1.289   .     A
O932   Cu938   1.962   .     S
O933   C936    1.289   .     A
O933   Cu937   1.961   .     S
O934   C935    1.289   .     A
O934   Cu938   1.961   .     S
C935   C942    1.448   .     S
C936   C941    1.448   .     S
Cu937  Cu938   2.679   .     S
Cu937  N977    2.013   .     S
Cu938  N978    2.013   .     S
C939   N979    1.437   .     S
C939   C941    1.404   .     A
C939   C949    1.405   .     A
C940   N982    1.437   .     S
C940   C942    1.404   .     A
C940   C950    1.405   .     A
C941   C943    1.404   .     A
C942   C944    1.404   .     A
C943   C945    1.405   .     A
C943   N985    1.437   .     S
C944   N988    1.437   .     S
C944   C946    1.405   .     A
C945   C951    1.404   .     A
C945   C947    1.416   .     A
C946   C952    1.404   .     A
C946   C948    1.416   .     A
C947   C949    1.416   .     A
C947   C354    1.413   1_556 S
C948   C950    1.416   .     A
C949   C954    1.404   .     A
C950   C953    1.404   .     A
C951   H955    1.082   .     S
C951   C359    1.388   1_556 S
C952   H956    1.082   .     S
C953   H957    1.082   .     S
C954   H958    1.082   .     S
C954   C358    1.388   1_556 S
C959   H963    1.083   .     S
C959   C968    1.401   .     A
C960   H964    1.083   .     S
C960   C967    1.401   .     A
C960   C830    1.383   1_655 S
C961   C967    1.401   .     A
C961   H965    1.083   .     S
C961   C827    1.383   1_655 S
C962   C968    1.401   .     A
C962   H966    1.083   .     S
C969   H973    1.082   .     S
C969   N978    1.367   .     A
C970   H974    1.082   .     S
C970   N977    1.367   .     A
C970   C1169   1.417   .     S
C971   N978    1.367   .     A
C971   H975    1.082   .     S
C972   N977    1.367   .     A
C972   H976    1.082   .     S
C972   C1167   1.417   .     S
N979   O980    1.301   .     A
N979   O981    1.301   .     A
N982   O984    1.301   .     A
N982   O983    1.301   .     A
N985   O986    1.301   .     A
N985   O987    1.301   .     A
N988   O989    1.301   .     A
N988   O990    1.301   .     A
O991   C995    1.291   .     A
O991   Cu1003  1.963   .     S
O992   C996    1.291   .     A
O992   Cu1004  1.963   .     S
O993   Cu1003  1.963   .     S
O993   C996    1.291   .     A
O994   Cu1004  1.963   .     S
O994   C995    1.291   .     A
C995   C1034   1.449   .     S
C996   C1033   1.449   .     S
O997   C1001   1.289   .     A
O997   Cu1003  1.962   .     S
O998   C1002   1.289   .     A
O998   Cu1004  1.962   .     S
O999   C1002   1.289   .     A
O999   Cu1003  1.961   .     S
O1000  C1001   1.289   .     A
O1000  Cu1004  1.961   .     S
C1001  C1008   1.448   .     S
C1002  C1007   1.448   .     S
Cu1003 Cu1004  2.679   .     S
Cu1003 N1043   2.013   .     S
Cu1004 N1044   2.013   .     S
C1005  N1045   1.437   .     S
C1005  C1007   1.404   .     A
C1005  C1015   1.405   .     A
C1006  N1048   1.437   .     S
C1006  C1008   1.404   .     A
C1006  C1016   1.405   .     A
C1007  C1009   1.404   .     A
C1008  C1010   1.404   .     A
C1009  C1011   1.405   .     A
C1009  N1051   1.437   .     S
C1010  N1054   1.437   .     S
C1010  C1012   1.405   .     A
C1011  C1017   1.404   .     A
C1011  C1013   1.416   .     A
C1012  C1018   1.404   .     A
C1012  C1014   1.416   .     A
C1013  C1015   1.416   .     A
C1013  C420    1.413   1_556 S
C1014  C1016   1.416   .     A
C1015  C1020   1.404   .     A
C1016  C1019   1.404   .     A
C1017  H1021   1.082   .     S
C1017  C425    1.388   1_556 S
C1018  H1022   1.082   .     S
C1019  H1023   1.082   .     S
C1020  H1024   1.082   .     S
C1020  C424    1.388   1_556 S
C1025  H1029   1.083   .     S
C1025  C1034   1.401   .     A
C1025  C1159   1.383   1_455 S
C1026  H1030   1.083   .     S
C1026  C1033   1.401   .     A
C1026  C1094   1.383   .     S
C1027  C1033   1.401   .     A
C1027  H1031   1.083   .     S
C1027  C1091   1.383   .     S
C1028  C1034   1.401   .     A
C1028  H1032   1.083   .     S
C1028  C1158   1.383   1_455 S
C1035  H1039   1.082   .     S
C1035  N1044   1.367   .     A
C1036  H1040   1.082   .     S
C1036  N1043   1.367   .     A
C1036  C641    1.417   1_565 S
C1037  N1044   1.367   .     A
C1037  H1041   1.082   .     S
C1038  N1043   1.367   .     A
C1038  H1042   1.082   .     S
C1038  C639    1.417   1_565 S
N1045  O1046   1.301   .     A
N1045  O1047   1.301   .     A
N1048  O1050   1.301   .     A
N1048  O1049   1.301   .     A
N1051  O1052   1.301   .     A
N1051  O1053   1.301   .     A
N1054  O1055   1.301   .     A
N1054  O1056   1.301   .     A
O1057  C1061   1.291   .     A
O1057  Cu1069  1.963   .     S
O1058  C1062   1.291   .     A
O1058  Cu1070  1.963   .     S
O1059  Cu1069  1.963   .     S
O1059  C1062   1.291   .     A
O1060  Cu1070  1.963   .     S
O1060  C1061   1.291   .     A
C1061  C1100   1.449   .     S
C1062  C1099   1.449   .     S
O1063  C1067   1.289   .     A
O1063  Cu1069  1.962   .     S
O1064  C1068   1.289   .     A
O1064  Cu1070  1.962   .     S
O1065  C1068   1.289   .     A
O1065  Cu1069  1.961   .     S
O1066  C1067   1.289   .     A
O1066  Cu1070  1.961   .     S
C1067  C1074   1.448   .     S
C1068  C1073   1.448   .     S
Cu1069 Cu1070  2.679   .     S
Cu1069 N1109   2.013   .     S
Cu1070 N1110   2.013   .     S
C1071  N1111   1.437   .     S
C1071  C1073   1.404   .     A
C1071  C1081   1.405   .     A
C1072  N1114   1.437   .     S
C1072  C1074   1.404   .     A
C1072  C1082   1.405   .     A
C1073  C1075   1.404   .     A
C1074  C1076   1.404   .     A
C1075  C1077   1.405   .     A
C1075  N1117   1.437   .     S
C1076  N1120   1.437   .     S
C1076  C1078   1.405   .     A
C1077  C1083   1.404   .     A
C1077  C1079   1.416   .     A
C1078  C1084   1.404   .     A
C1078  C1080   1.416   .     A
C1079  C1081   1.416   .     A
C1079  C486    1.413   1_556 S
C1080  C1082   1.416   .     A
C1081  C1086   1.404   .     A
C1082  C1085   1.404   .     A
C1083  H1087   1.082   .     S
C1083  C491    1.388   1_556 S
C1084  H1088   1.082   .     S
C1085  H1089   1.082   .     S
C1086  H1090   1.082   .     S
C1086  C490    1.388   1_556 S
C1091  H1095   1.083   .     S
C1091  C1100   1.401   .     A
C1092  H1096   1.083   .     S
C1092  C1099   1.401   .     A
C1092  C1160   1.383   .     S
C1093  C1099   1.401   .     A
C1093  H1097   1.083   .     S
C1093  C1157   1.383   .     S
C1094  C1100   1.401   .     A
C1094  H1098   1.083   .     S
C1101  H1105   1.082   .     S
C1101  N1110   1.367   .     A
C1102  H1106   1.082   .     S
C1102  N1109   1.367   .     A
C1102  C707    1.417   1_565 S
C1103  N1110   1.367   .     A
C1103  H1107   1.082   .     S
C1104  N1109   1.367   .     A
C1104  H1108   1.082   .     S
C1104  C705    1.417   1_565 S
N1111  O1112   1.301   .     A
N1111  O1113   1.301   .     A
N1114  O1116   1.301   .     A
N1114  O1115   1.301   .     A
N1117  O1118   1.301   .     A
N1117  O1119   1.301   .     A
N1120  O1121   1.301   .     A
N1120  O1122   1.301   .     A
O1123  C1127   1.291   .     A
O1123  Cu1135  1.963   .     S
O1124  C1128   1.291   .     A
O1124  Cu1136  1.963   .     S
O1125  Cu1135  1.963   .     S
O1125  C1128   1.291   .     A
O1126  Cu1136  1.963   .     S
O1126  C1127   1.291   .     A
C1127  C1166   1.449   .     S
C1128  C1165   1.449   .     S
O1129  C1133   1.289   .     A
O1129  Cu1135  1.962   .     S
O1130  C1134   1.289   .     A
O1130  Cu1136  1.962   .     S
O1131  C1134   1.289   .     A
O1131  Cu1135  1.961   .     S
O1132  C1133   1.289   .     A
O1132  Cu1136  1.961   .     S
C1133  C1140   1.448   .     S
C1134  C1139   1.448   .     S
Cu1135 Cu1136  2.679   .     S
Cu1135 N1175   2.013   .     S
Cu1136 N1176   2.013   .     S
C1137  N1177   1.437   .     S
C1137  C1139   1.404   .     A
C1137  C1147   1.405   .     A
C1138  N1180   1.437   .     S
C1138  C1140   1.404   .     A
C1138  C1148   1.405   .     A
C1139  C1141   1.404   .     A
C1140  C1142   1.404   .     A
C1141  C1143   1.405   .     A
C1141  N1183   1.437   .     S
C1142  N1186   1.437   .     S
C1142  C1144   1.405   .     A
C1143  C1149   1.404   .     A
C1143  C1145   1.416   .     A
C1144  C1150   1.404   .     A
C1144  C1146   1.416   .     A
C1145  C1147   1.416   .     A
C1145  C552    1.413   1_556 S
C1146  C1148   1.416   .     A
C1147  C1152   1.404   .     A
C1148  C1151   1.404   .     A
C1149  H1153   1.082   .     S
C1149  C557    1.388   1_556 S
C1150  H1154   1.082   .     S
C1151  H1155   1.082   .     S
C1152  H1156   1.082   .     S
C1152  C556    1.388   1_556 S
C1157  H1161   1.083   .     S
C1157  C1166   1.401   .     A
C1158  H1162   1.083   .     S
C1158  C1165   1.401   .     A
C1158  C1028   1.383   1_655 S
C1159  C1165   1.401   .     A
C1159  H1163   1.083   .     S
C1159  C1025   1.383   1_655 S
C1160  C1166   1.401   .     A
C1160  H1164   1.083   .     S
C1167  H1171   1.082   .     S
C1167  N1176   1.367   .     A
C1168  H1172   1.082   .     S
C1168  N1175   1.367   .     A
C1168  C773    1.417   1_565 S
C1169  N1176   1.367   .     A
C1169  H1173   1.082   .     S
C1170  N1175   1.367   .     A
C1170  H1174   1.082   .     S
C1170  C771    1.417   1_565 S
N1177  O1178   1.301   .     A
N1177  O1179   1.301   .     A
N1180  O1182   1.301   .     A
N1180  O1181   1.301   .     A
N1183  O1184   1.301   .     A
N1183  O1185   1.301   .     A
N1186  O1187   1.301   .     A
N1186  O1188   1.301   .     A
