data_str_m1_o1_o2_pcu_sym.36
_audit_creation_date              2020-01-03
_audit_creation_method            'Materials Studio'
_symmetry_space_group_name_H-M    'P1'
_symmetry_Int_Tables_number       1
_symmetry_cell_setting            triclinic
loop_
_symmetry_equiv_pos_as_xyz
  x,y,z
_cell_length_a                    36.6655
_cell_length_b                    36.6655
_cell_length_c                    34.6030
_cell_angle_alpha                 90.0002
_cell_angle_beta                  90.0008
_cell_angle_gamma                 90.0003
loop_
_atom_site_label
_atom_site_type_symbol
_atom_site_fract_x
_atom_site_fract_y
_atom_site_fract_z
_atom_site_U_iso_or_equiv
_atom_site_adp_type
_atom_site_occupancy
C1     C     0.22075   0.48457   0.04124   0.00000  Uiso   1.00
C2     C     0.02953   0.23521   0.45885   0.00000  Uiso   1.00
C3     C     0.34813   0.40187   0.75000   0.00000  Uiso   1.00
C4     C     0.40187   0.15186   0.25000   0.00000  Uiso   1.00
C5     C     0.09814   0.34813   0.75000   0.00000  Uiso   1.00
C6     C     0.34813   0.40186   0.25000   0.00000  Uiso   1.00
C7     C     0.15187   0.09813   0.75000   0.00000  Uiso   1.00
C8     C     0.09814   0.15186   0.75000   0.00000  Uiso   1.00
C9     C     0.40186   0.34813   0.24999   0.00000  Uiso   1.00
C10    C     0.15187   0.40186   0.75000   0.00000  Uiso   1.00
C11    C     0.34814   0.09813   0.25000   0.00000  Uiso   1.00
C12    C     0.40186   0.34814   0.75000   0.00000  Uiso   1.00
C13    C     0.26373   0.47003   0.54117   0.00000  Uiso   1.00
C14    C     0.09813   0.15186   0.25000   0.00000  Uiso   1.00
C15    C     0.34814   0.09813   0.75000   0.00000  Uiso   1.00
C16    C     0.15187   0.40186   0.24999   0.00000  Uiso   1.00
C17    C     0.24999   0.49976   0.10220   0.00000  Uiso   1.00
C18    C     0.25001   0.00005   0.89787   0.00000  Uiso   1.00
C19    C     0.49970   0.25001   0.10216   0.00000  Uiso   1.00
C20    C     0.00029   0.25001   0.89784   0.00000  Uiso   1.00
C21    C     0.49998   0.24981   0.60216   0.00000  Uiso   1.00
C22    C     0.00002   0.24981   0.39784   0.00000  Uiso   1.00
C23    C     0.24995   0.49999   0.60213   0.00000  Uiso   1.00
C24    C     0.26543   0.02925   0.45876   0.00000  Uiso   1.00
C25    C     0.25024   0.00001   0.39780   0.00000  Uiso   1.00
C26    C     0.02942   0.26489   0.54128   0.00000  Uiso   1.00
C27    C     0.47057   0.26487   0.45872   0.00000  Uiso   1.00
C28    C     0.23608   0.02995   0.54119   0.00000  Uiso   1.00
C29    C     0.23470   0.47083   0.45866   0.00000  Uiso   1.00
C30    C     0.22058   0.48386   0.08165   0.00000  Uiso   1.00
C31    C     0.28015   0.48582   0.91850   0.00000  Uiso   1.00
C32    C     0.01504   0.22039   0.08157   0.00000  Uiso   1.00
C33    C     0.27997   0.48627   0.95883   0.00000  Uiso   1.00
C34    C     0.01570   0.27969   0.91841   0.00000  Uiso   1.00
C35    C     0.27933   0.01561   0.08165   0.00000  Uiso   1.00
C36    C     0.21987   0.01433   0.91848   0.00000  Uiso   1.00
C37    C     0.48427   0.27968   0.08159   0.00000  Uiso   1.00
C38    C     0.48498   0.22038   0.91843   0.00000  Uiso   1.00
C39    C     0.47030   0.23443   0.58157   0.00000  Uiso   1.00
C40    C     0.02971   0.23445   0.41843   0.00000  Uiso   1.00
C41    C     0.26418   0.46985   0.58150   0.00000  Uiso   1.00
C42    C     0.26614   0.02942   0.41835   0.00000  Uiso   1.00
C43    C     0.02958   0.26519   0.58159   0.00000  Uiso   1.00
C44    C     0.01468   0.22055   0.04126   0.00000  Uiso   1.00
C45    C     0.47040   0.26517   0.41841   0.00000  Uiso   1.00
C46    C     0.23568   0.03014   0.58152   0.00000  Uiso   1.00
C47    C     0.23439   0.47067   0.41835   0.00000  Uiso   1.00
C48    C     0.24996   0.00003   0.02118   0.00000  Uiso   1.00
C49    C     0.25000   0.00010   0.97894   0.00000  Uiso   1.00
C50    C     0.49992   0.25003   0.02112   0.00000  Uiso   1.00
C51    C     0.00007   0.25003   0.97888   0.00000  Uiso   1.00
C52    C     0.49996   0.25014   0.52112   0.00000  Uiso   1.00
C53    C     0.00004   0.25014   0.47888   0.00000  Uiso   1.00
C54    C     0.24990  -0.00000   0.52106   0.00000  Uiso   1.00
C55    C     0.01500   0.27951   0.95883   0.00000  Uiso   1.00
C56    C     0.24998   0.00004   0.47881   0.00000  Uiso   1.00
C57    C     0.25006   0.00000   0.35525   0.00000  Uiso   1.00
C58    C     0.24999  -0.00000   0.64472   0.00000  Uiso   1.00
C59    C     0.00000   0.24995   0.35527   0.00000  Uiso   1.00
C60    C    -0.00000   0.24995   0.64473   0.00000  Uiso   1.00
C61    C     0.00007   0.25000   0.85527   0.00000  Uiso   1.00
C62    C     0.49993   0.25000   0.14473   0.00000  Uiso   1.00
C63    C     0.25000   0.00001   0.85528   0.00000  Uiso   1.00
C64    C     0.25000   0.49994   0.14475   0.00000  Uiso   1.00
C65    C     0.17993   0.07007   0.25000   0.00000  Uiso   1.00
C66    C     0.27917   0.01530   0.04134   0.00000  Uiso   1.00
C67    C     0.32007   0.42993   0.75000   0.00000  Uiso   1.00
C68    C     0.42993   0.17993   0.25000   0.00000  Uiso   1.00
C69    C     0.07007   0.32007   0.75000   0.00000  Uiso   1.00
C70    C     0.32007   0.42993   0.25000   0.00000  Uiso   1.00
C71    C     0.17993   0.07007   0.75000   0.00000  Uiso   1.00
C72    C     0.07007   0.32007   0.25000   0.00000  Uiso   1.00
C73    C     0.42993   0.17993   0.75000   0.00000  Uiso   1.00
C74    C     0.17993   0.42993   0.75000   0.00000  Uiso   1.00
C75    C     0.32007   0.07007   0.25000   0.00000  Uiso   1.00
C76    C     0.42993   0.32007   0.75000   0.00000  Uiso   1.00
C77    C     0.22005   0.01392   0.95881   0.00000  Uiso   1.00
C78    C     0.07007   0.17993   0.25000   0.00000  Uiso   1.00
C79    C     0.32007   0.07007   0.75000   0.00000  Uiso   1.00
C80    C     0.17993   0.42993   0.25000   0.00000  Uiso   1.00
C81    C     0.07007   0.17993   0.75000   0.00000  Uiso   1.00
C82    C     0.42993   0.32007   0.25000   0.00000  Uiso   1.00
C83    C     0.12204   0.40470   0.22484   0.00000  Uiso   1.00
C84    C     0.37797   0.09530   0.77515   0.00000  Uiso   1.00
C85    C     0.09529   0.12203   0.22486   0.00000  Uiso   1.00
C86    C     0.40472   0.37800   0.77511   0.00000  Uiso   1.00
C87    C     0.37796   0.09530   0.22485   0.00000  Uiso   1.00
C88    C     0.48498   0.27950   0.04118   0.00000  Uiso   1.00
C89    C     0.12204   0.40469   0.77516   0.00000  Uiso   1.00
C90    C     0.40469   0.37796   0.22484   0.00000  Uiso   1.00
C91    C     0.09528   0.12201   0.77512   0.00000  Uiso   1.00
C92    C     0.12202   0.09528   0.77513   0.00000  Uiso   1.00
C93    C     0.37797   0.40469   0.22484   0.00000  Uiso   1.00
C94    C     0.09531   0.37796   0.77517   0.00000  Uiso   1.00
C95    C     0.40470   0.12203   0.22485   0.00000  Uiso   1.00
C96    C     0.37799   0.40472   0.77512   0.00000  Uiso   1.00
C97    C     0.12202   0.09529   0.22486   0.00000  Uiso   1.00
C98    C     0.40470   0.12204   0.77515   0.00000  Uiso   1.00
C99    C     0.48533   0.22055   0.95874   0.00000  Uiso   1.00
C100   C     0.09530   0.37797   0.22485   0.00000  Uiso   1.00
C101   C     0.37204   0.15469   0.72483   0.00000  Uiso   1.00
C102   C     0.12798   0.34530   0.27514   0.00000  Uiso   1.00
C103   C     0.34528   0.37201   0.72488   0.00000  Uiso   1.00
C104   C     0.15470   0.12797   0.27515   0.00000  Uiso   1.00
C105   C     0.12796   0.34530   0.72485   0.00000  Uiso   1.00
C106   C     0.37204   0.15469   0.27516   0.00000  Uiso   1.00
C107   C     0.15472   0.12798   0.72487   0.00000  Uiso   1.00
C108   C     0.34530   0.37203   0.27515   0.00000  Uiso   1.00
C109   C     0.37203   0.34530   0.27515   0.00000  Uiso   1.00
C110   C     0.47048   0.23519   0.54115   0.00000  Uiso   1.00
C111   C     0.12799   0.15472   0.72488   0.00000  Uiso   1.00
C112   C     0.34531   0.12796   0.27517   0.00000  Uiso   1.00
C113   C     0.15470   0.37203   0.72485   0.00000  Uiso   1.00
C114   C     0.12797   0.15470   0.27515   0.00000  Uiso   1.00
C115   C     0.37200   0.34528   0.72489   0.00000  Uiso   1.00
C116   C     0.15470   0.37203   0.27514   0.00000  Uiso   1.00
C117   C     0.34531   0.12796   0.72484   0.00000  Uiso   1.00
C118   C     0.09814   0.34813   0.25000   0.00000  Uiso   1.00
C119   C     0.40187   0.15186   0.74999   0.00000  Uiso   1.00
C120   C     0.15186   0.09813   0.25000   0.00000  Uiso   1.00
H121   H     0.19846   0.47231   0.02527   0.00000  Uiso   1.00
H122   H     0.05203   0.22337   0.47483   0.00000  Uiso   1.00
H123   H     0.27485   0.44697   0.52551   0.00000  Uiso   1.00
H124   H     0.27769   0.05154   0.47473   0.00000  Uiso   1.00
H125   H     0.05210   0.27683   0.52566   0.00000  Uiso   1.00
H126   H     0.44788   0.27679   0.47434   0.00000  Uiso   1.00
H127   H     0.22496   0.05303   0.52554   0.00000  Uiso   1.00
H128   H     0.22236   0.44836   0.47428   0.00000  Uiso   1.00
H129   H     0.11932   0.42751   0.20516   0.00000  Uiso   1.00
H130   H     0.38069   0.07249   0.79483   0.00000  Uiso   1.00
H131   H     0.07248   0.11931   0.20518   0.00000  Uiso   1.00
H132   H     0.30303   0.47515   0.97449   0.00000  Uiso   1.00
H133   H     0.42756   0.38074   0.79476   0.00000  Uiso   1.00
H134   H     0.38067   0.07250   0.20516   0.00000  Uiso   1.00
H135   H     0.11932   0.42750   0.79484   0.00000  Uiso   1.00
H136   H     0.42750   0.38067   0.20515   0.00000  Uiso   1.00
H137   H     0.07246   0.11928   0.79478   0.00000  Uiso   1.00
H138   H     0.11929   0.07246   0.79479   0.00000  Uiso   1.00
H139   H     0.38068   0.42750   0.20516   0.00000  Uiso   1.00
H140   H     0.07250   0.38067   0.79485   0.00000  Uiso   1.00
H141   H     0.42750   0.11931   0.20517   0.00000  Uiso   1.00
H142   H     0.38073   0.42755   0.79477   0.00000  Uiso   1.00
H143   H     0.02662   0.19788   0.02562   0.00000  Uiso   1.00
H144   H     0.11930   0.07248   0.20519   0.00000  Uiso   1.00
H145   H     0.42751   0.11932   0.79484   0.00000  Uiso   1.00
H146   H     0.07249   0.38069   0.20517   0.00000  Uiso   1.00
H147   H     0.36933   0.17750   0.70515   0.00000  Uiso   1.00
H148   H     0.13070   0.32248   0.29482   0.00000  Uiso   1.00
H149   H     0.32244   0.36927   0.70523   0.00000  Uiso   1.00
H150   H     0.17752   0.13070   0.29482   0.00000  Uiso   1.00
H151   H     0.13068   0.32249   0.70516   0.00000  Uiso   1.00
H152   H     0.36932   0.17750   0.29484   0.00000  Uiso   1.00
H153   H     0.17754   0.13071   0.70521   0.00000  Uiso   1.00
H154   H     0.02683   0.30202   0.97480   0.00000  Uiso   1.00
H155   H     0.32249   0.36931   0.29482   0.00000  Uiso   1.00
H156   H     0.36932   0.32249   0.29483   0.00000  Uiso   1.00
H157   H     0.13072   0.17754   0.70522   0.00000  Uiso   1.00
H158   H     0.32250   0.13067   0.29485   0.00000  Uiso   1.00
H159   H     0.17751   0.36931   0.70517   0.00000  Uiso   1.00
H160   H     0.13068   0.17751   0.29483   0.00000  Uiso   1.00
H161   H     0.36926   0.32244   0.70524   0.00000  Uiso   1.00
H162   H     0.17752   0.36931   0.29482   0.00000  Uiso   1.00
H163   H     0.32250   0.13068   0.70516   0.00000  Uiso   1.00
H164   H     0.20146   0.44238   0.11405   0.00000  Uiso   1.00
H165   H     0.30164   0.02764   0.02572   0.00000  Uiso   1.00
H166   H     0.17063   0.45832   0.08250   0.00000  Uiso   1.00
H167   H     0.33416   0.48416   0.90706   0.00000  Uiso   1.00
H168   H     0.31339   0.44300   0.90790   0.00000  Uiso   1.00
H169   H     0.01862   0.16648   0.09306   0.00000  Uiso   1.00
H170   H     0.05901   0.18873   0.09232   0.00000  Uiso   1.00
H171   H     0.05689   0.29954   0.88608   0.00000  Uiso   1.00
H172   H     0.04033   0.33009   0.91757   0.00000  Uiso   1.00
H173   H     0.31024   0.06010   0.09248   0.00000  Uiso   1.00
H174   H     0.33317   0.02009   0.09317   0.00000  Uiso   1.00
H175   H     0.16586   0.01597   0.90703   0.00000  Uiso   1.00
H176   H     0.19697   0.02504   0.97446   0.00000  Uiso   1.00
H177   H     0.18664   0.05714   0.90780   0.00000  Uiso   1.00
H178   H     0.44308   0.29949   0.11394   0.00000  Uiso   1.00
H179   H     0.45960   0.33006   0.08243   0.00000  Uiso   1.00
H180   H     0.48142   0.16647   0.90694   0.00000  Uiso   1.00
H181   H     0.44103   0.18870   0.90767   0.00000  Uiso   1.00
H182   H     0.45048   0.19318   0.61382   0.00000  Uiso   1.00
H183   H     0.41991   0.20977   0.58237   0.00000  Uiso   1.00
H184   H     0.04956   0.19321   0.38618   0.00000  Uiso   1.00
H185   H     0.08012   0.20983   0.41763   0.00000  Uiso   1.00
H186   H     0.30700   0.43661   0.59210   0.00000  Uiso   1.00
H187   H     0.47313   0.30200   0.02521   0.00000  Uiso   1.00
H188   H     0.26583   0.41584   0.59294   0.00000  Uiso   1.00
H189   H     0.30762   0.04854   0.38594   0.00000  Uiso   1.00
H190   H     0.29168   0.07937   0.41750   0.00000  Uiso   1.00
H191   H     0.08349   0.26876   0.59309   0.00000  Uiso   1.00
H192   H     0.06124   0.30914   0.59242   0.00000  Uiso   1.00
H193   H     0.41649   0.26870   0.40691   0.00000  Uiso   1.00
H194   H     0.43871   0.30910   0.40758   0.00000  Uiso   1.00
H195   H     0.23403   0.08414   0.59296   0.00000  Uiso   1.00
H196   H     0.19287   0.06337   0.59219   0.00000  Uiso   1.00
H197   H     0.22991   0.41683   0.40683   0.00000  Uiso   1.00
H198   H     0.47341   0.19787   0.97437   0.00000  Uiso   1.00
H199   H     0.18991   0.43976   0.40752   0.00000  Uiso   1.00
H200   H     0.44799   0.22334   0.52517   0.00000  Uiso   1.00
N201   N     0.19110   0.46629   0.10179   0.00000  Uiso   1.00
N202   N     0.05949   0.21735   0.39834   0.00000  Uiso   1.00
N203   N     0.27996   0.43933   0.60127   0.00000  Uiso   1.00
N204   N     0.28371   0.05890   0.39821   0.00000  Uiso   1.00
N205   N     0.05949   0.28199   0.60146   0.00000  Uiso   1.00
N206   N     0.44048   0.28195   0.39854   0.00000  Uiso   1.00
N207   N     0.21992   0.06065   0.60131   0.00000  Uiso   1.00
N208   N     0.21709   0.44105   0.39847   0.00000  Uiso   1.00
N209   N     0.31067   0.47004   0.89873   0.00000  Uiso   1.00
N210   N     0.03186   0.19048   0.10141   0.00000  Uiso   1.00
N211   N     0.03277   0.30947   0.89829   0.00000  Uiso   1.00
N212   N     0.30895   0.03292   0.10153   0.00000  Uiso   1.00
N213   N     0.18935   0.03008   0.89868   0.00000  Uiso   1.00
N214   N     0.46719   0.30945   0.10172   0.00000  Uiso   1.00
N215   N     0.46817   0.19046   0.89859   0.00000  Uiso   1.00
N216   N     0.44053   0.21731   0.60166   0.00000  Uiso   1.00
O217   O     0.25000  -0.00000   0.25000   0.00000  Uiso   1.00
O218   O     0.25000   0.46964   0.66317   0.00000  Uiso   1.00
O219   O     0.46964   0.25000   0.33683   0.00000  Uiso   1.00
O220   O     0.03036   0.25000   0.66317   0.00000  Uiso   1.00
O221   O    -0.00000   0.21964   0.83683   0.00000  Uiso   1.00
O222   O    -0.00000   0.28036   0.16317   0.00000  Uiso   1.00
O223   O     0.28036  -0.00000   0.83683   0.00000  Uiso   1.00
O224   O     0.21964  -0.00000   0.16317   0.00000  Uiso   1.00
O225   O     0.00000   0.28036   0.83683   0.00000  Uiso   1.00
O226   O    -0.00000   0.21964   0.16317   0.00000  Uiso   1.00
O227   O     0.21964  -0.00000   0.83683   0.00000  Uiso   1.00
O228   O     0.25000  -0.00000   0.75000   0.00000  Uiso   1.00
O229   O     0.28036  -0.00000   0.16317   0.00000  Uiso   1.00
O230   O     0.20725   0.07307   0.27282   0.00000  Uiso   1.00
O231   O     0.29274   0.42693   0.72718   0.00000  Uiso   1.00
O232   O     0.42693   0.20725   0.27282   0.00000  Uiso   1.00
O233   O     0.07307   0.29274   0.72718   0.00000  Uiso   1.00
O234   O     0.29274   0.42693   0.27282   0.00000  Uiso   1.00
O235   O     0.20725   0.07307   0.72718   0.00000  Uiso   1.00
O236   O     0.07307   0.29274   0.27282   0.00000  Uiso   1.00
O237   O     0.42693   0.20725   0.72718   0.00000  Uiso   1.00
O238   O     0.20725   0.42693   0.72718   0.00000  Uiso   1.00
O239   O     0.00000   0.25000   0.25000   0.00000  Uiso   1.00
O240   O     0.29274   0.07307   0.27282   0.00000  Uiso   1.00
O241   O     0.42693   0.29274   0.72718   0.00000  Uiso   1.00
O242   O     0.07307   0.20725   0.27282   0.00000  Uiso   1.00
O243   O     0.29274   0.07307   0.72718   0.00000  Uiso   1.00
O244   O     0.20725   0.42693   0.27282   0.00000  Uiso   1.00
O245   O     0.07307   0.20725   0.72718   0.00000  Uiso   1.00
O246   O     0.42693   0.29274   0.27282   0.00000  Uiso   1.00
O247   O     0.45725   0.32307   0.77282   0.00000  Uiso   1.00
O248   O     0.04274   0.17693   0.22718   0.00000  Uiso   1.00
O249   O     0.17693   0.45725   0.77282   0.00000  Uiso   1.00
O250   O     0.00000   0.25000   0.75000   0.00000  Uiso   1.00
O251   O     0.32307   0.04274   0.22718   0.00000  Uiso   1.00
O252   O     0.04274   0.17693   0.77282   0.00000  Uiso   1.00
O253   O     0.45725   0.32307   0.22718   0.00000  Uiso   1.00
O254   O     0.32307   0.04274   0.77282   0.00000  Uiso   1.00
O255   O     0.17693   0.45725   0.22718   0.00000  Uiso   1.00
O256   O     0.45725   0.17693   0.22718   0.00000  Uiso   1.00
O257   O     0.04274   0.32307   0.77282   0.00000  Uiso   1.00
O258   O     0.17693   0.04274   0.22718   0.00000  Uiso   1.00
O259   O     0.32307   0.45725   0.77282   0.00000  Uiso   1.00
O260   O     0.04274   0.32307   0.22718   0.00000  Uiso   1.00
O261   O     0.25000   0.46964   0.33683   0.00000  Uiso   1.00
O262   O     0.45725   0.17693   0.77282   0.00000  Uiso   1.00
O263   O     0.32307   0.45725   0.22718   0.00000  Uiso   1.00
O264   O     0.17693   0.04274   0.77282   0.00000  Uiso   1.00
O265   O     0.25000   0.03036   0.66317   0.00000  Uiso   1.00
O266   O     0.03036   0.25000   0.33683   0.00000  Uiso   1.00
O267   O     0.46964   0.25000   0.66317   0.00000  Uiso   1.00
O268   O     0.25000   0.03036   0.33683   0.00000  Uiso   1.00
Zn269  Zn    0.20660  -0.00000   0.21760   0.00000  Uiso   1.00
Zn270  Zn    0.04340   0.25000   0.28240   0.00000  Uiso   1.00
Zn271  Zn    0.25000   0.45660   0.71760   0.00000  Uiso   1.00
Zn272  Zn    0.25000   0.04340   0.28240   0.00000  Uiso   1.00
Zn273  Zn    0.04340   0.25000   0.71760   0.00000  Uiso   1.00
Zn274  Zn    0.45660   0.25000   0.28240   0.00000  Uiso   1.00
Zn275  Zn    0.25000   0.04340   0.71760   0.00000  Uiso   1.00
Zn276  Zn    0.25000   0.45660   0.28240   0.00000  Uiso   1.00
Zn277  Zn    0.29340  -0.00000   0.78240   0.00000  Uiso   1.00
Zn278  Zn   -0.00000   0.20660   0.21760   0.00000  Uiso   1.00
Zn279  Zn    0.00000   0.29340   0.78240   0.00000  Uiso   1.00
Zn280  Zn    0.29340  -0.00000   0.21760   0.00000  Uiso   1.00
Zn281  Zn    0.20660  -0.00000   0.78240   0.00000  Uiso   1.00
Zn282  Zn   -0.00000   0.29340   0.21760   0.00000  Uiso   1.00
Zn283  Zn    0.00000   0.20660   0.78240   0.00000  Uiso   1.00
Zn284  Zn    0.45660   0.25000   0.71760   0.00000  Uiso   1.00
C285   C     0.72075   0.48457   0.04124   0.00000  Uiso   1.00
C286   C     0.52953   0.23521   0.45885   0.00000  Uiso   1.00
C287   C     0.84813   0.40187   0.75000   0.00000  Uiso   1.00
C288   C     0.90187   0.15186   0.25000   0.00000  Uiso   1.00
C289   C     0.59814   0.34813   0.75000   0.00000  Uiso   1.00
C290   C     0.84813   0.40186   0.25000   0.00000  Uiso   1.00
C291   C     0.65187   0.09813   0.75000   0.00000  Uiso   1.00
C292   C     0.59814   0.15186   0.75000   0.00000  Uiso   1.00
C293   C     0.90186   0.34813   0.24999   0.00000  Uiso   1.00
C294   C     0.65187   0.40186   0.75000   0.00000  Uiso   1.00
C295   C     0.84814   0.09813   0.25000   0.00000  Uiso   1.00
C296   C     0.90186   0.34814   0.75000   0.00000  Uiso   1.00
C297   C     0.76373   0.47003   0.54117   0.00000  Uiso   1.00
C298   C     0.59813   0.15186   0.25000   0.00000  Uiso   1.00
C299   C     0.84814   0.09813   0.75000   0.00000  Uiso   1.00
C300   C     0.65187   0.40186   0.24999   0.00000  Uiso   1.00
C301   C     0.74999   0.49976   0.10220   0.00000  Uiso   1.00
C302   C     0.75001   0.00005   0.89787   0.00000  Uiso   1.00
C303   C     0.99970   0.25001   0.10216   0.00000  Uiso   1.00
C304   C     0.50029   0.25001   0.89784   0.00000  Uiso   1.00
C305   C     0.99998   0.24981   0.60216   0.00000  Uiso   1.00
C306   C     0.50002   0.24981   0.39784   0.00000  Uiso   1.00
C307   C     0.74995   0.49999   0.60213   0.00000  Uiso   1.00
C308   C     0.76543   0.02925   0.45876   0.00000  Uiso   1.00
C309   C     0.75024   0.00001   0.39780   0.00000  Uiso   1.00
C310   C     0.52942   0.26489   0.54128   0.00000  Uiso   1.00
C311   C     0.97057   0.26487   0.45872   0.00000  Uiso   1.00
C312   C     0.73608   0.02995   0.54119   0.00000  Uiso   1.00
C313   C     0.73470   0.47083   0.45866   0.00000  Uiso   1.00
C314   C     0.72058   0.48386   0.08165   0.00000  Uiso   1.00
C315   C     0.78015   0.48582   0.91850   0.00000  Uiso   1.00
C316   C     0.51504   0.22039   0.08157   0.00000  Uiso   1.00
C317   C     0.77997   0.48627   0.95883   0.00000  Uiso   1.00
C318   C     0.51570   0.27969   0.91841   0.00000  Uiso   1.00
C319   C     0.77933   0.01561   0.08165   0.00000  Uiso   1.00
C320   C     0.71987   0.01433   0.91848   0.00000  Uiso   1.00
C321   C     0.98427   0.27968   0.08159   0.00000  Uiso   1.00
C322   C     0.98498   0.22038   0.91843   0.00000  Uiso   1.00
C323   C     0.97030   0.23443   0.58157   0.00000  Uiso   1.00
C324   C     0.52971   0.23445   0.41843   0.00000  Uiso   1.00
C325   C     0.76418   0.46985   0.58150   0.00000  Uiso   1.00
C326   C     0.76614   0.02942   0.41835   0.00000  Uiso   1.00
C327   C     0.52958   0.26519   0.58159   0.00000  Uiso   1.00
C328   C     0.51468   0.22055   0.04126   0.00000  Uiso   1.00
C329   C     0.97040   0.26517   0.41841   0.00000  Uiso   1.00
C330   C     0.73568   0.03014   0.58152   0.00000  Uiso   1.00
C331   C     0.73439   0.47067   0.41835   0.00000  Uiso   1.00
C332   C     0.74996   0.00003   0.02118   0.00000  Uiso   1.00
C333   C     0.75000   0.00010   0.97894   0.00000  Uiso   1.00
C334   C     0.99992   0.25003   0.02112   0.00000  Uiso   1.00
C335   C     0.50007   0.25003   0.97888   0.00000  Uiso   1.00
C336   C     0.99996   0.25014   0.52112   0.00000  Uiso   1.00
C337   C     0.50004   0.25014   0.47888   0.00000  Uiso   1.00
C338   C     0.74990  -0.00000   0.52106   0.00000  Uiso   1.00
C339   C     0.51500   0.27951   0.95883   0.00000  Uiso   1.00
C340   C     0.74998   0.00004   0.47881   0.00000  Uiso   1.00
C341   C     0.75006   0.00000   0.35525   0.00000  Uiso   1.00
C342   C     0.74999  -0.00000   0.64472   0.00000  Uiso   1.00
C343   C     0.50000   0.24995   0.35527   0.00000  Uiso   1.00
C344   C     0.50000   0.24995   0.64473   0.00000  Uiso   1.00
C345   C     0.50007   0.25000   0.85527   0.00000  Uiso   1.00
C346   C     0.99993   0.25000   0.14473   0.00000  Uiso   1.00
C347   C     0.75000   0.00001   0.85528   0.00000  Uiso   1.00
C348   C     0.75000   0.49994   0.14475   0.00000  Uiso   1.00
C349   C     0.67993   0.07007   0.25000   0.00000  Uiso   1.00
C350   C     0.77917   0.01530   0.04134   0.00000  Uiso   1.00
C351   C     0.82007   0.42993   0.75000   0.00000  Uiso   1.00
C352   C     0.92993   0.17993   0.25000   0.00000  Uiso   1.00
C353   C     0.57007   0.32007   0.75000   0.00000  Uiso   1.00
C354   C     0.82007   0.42993   0.25000   0.00000  Uiso   1.00
C355   C     0.67993   0.07007   0.75000   0.00000  Uiso   1.00
C356   C     0.57007   0.32007   0.25000   0.00000  Uiso   1.00
C357   C     0.92993   0.17993   0.75000   0.00000  Uiso   1.00
C358   C     0.67993   0.42993   0.75000   0.00000  Uiso   1.00
C359   C     0.82007   0.07007   0.25000   0.00000  Uiso   1.00
C360   C     0.92993   0.32007   0.75000   0.00000  Uiso   1.00
C361   C     0.72005   0.01392   0.95881   0.00000  Uiso   1.00
C362   C     0.57007   0.17993   0.25000   0.00000  Uiso   1.00
C363   C     0.82007   0.07007   0.75000   0.00000  Uiso   1.00
C364   C     0.67993   0.42993   0.25000   0.00000  Uiso   1.00
C365   C     0.57007   0.17993   0.75000   0.00000  Uiso   1.00
C366   C     0.92993   0.32007   0.25000   0.00000  Uiso   1.00
C367   C     0.62204   0.40470   0.22484   0.00000  Uiso   1.00
C368   C     0.87797   0.09530   0.77515   0.00000  Uiso   1.00
C369   C     0.59529   0.12203   0.22486   0.00000  Uiso   1.00
C370   C     0.90472   0.37800   0.77511   0.00000  Uiso   1.00
C371   C     0.87796   0.09530   0.22485   0.00000  Uiso   1.00
C372   C     0.98498   0.27950   0.04118   0.00000  Uiso   1.00
C373   C     0.62204   0.40469   0.77516   0.00000  Uiso   1.00
C374   C     0.90469   0.37796   0.22484   0.00000  Uiso   1.00
C375   C     0.59528   0.12201   0.77512   0.00000  Uiso   1.00
C376   C     0.62202   0.09528   0.77513   0.00000  Uiso   1.00
C377   C     0.87797   0.40469   0.22484   0.00000  Uiso   1.00
C378   C     0.59531   0.37796   0.77517   0.00000  Uiso   1.00
C379   C     0.90470   0.12203   0.22485   0.00000  Uiso   1.00
C380   C     0.87799   0.40472   0.77512   0.00000  Uiso   1.00
C381   C     0.62202   0.09529   0.22486   0.00000  Uiso   1.00
C382   C     0.90470   0.12204   0.77515   0.00000  Uiso   1.00
C383   C     0.98533   0.22055   0.95874   0.00000  Uiso   1.00
C384   C     0.59530   0.37797   0.22485   0.00000  Uiso   1.00
C385   C     0.87204   0.15469   0.72483   0.00000  Uiso   1.00
C386   C     0.62798   0.34530   0.27514   0.00000  Uiso   1.00
C387   C     0.84528   0.37201   0.72488   0.00000  Uiso   1.00
C388   C     0.65470   0.12797   0.27515   0.00000  Uiso   1.00
C389   C     0.62796   0.34530   0.72485   0.00000  Uiso   1.00
C390   C     0.87204   0.15469   0.27516   0.00000  Uiso   1.00
C391   C     0.65472   0.12798   0.72487   0.00000  Uiso   1.00
C392   C     0.84530   0.37203   0.27515   0.00000  Uiso   1.00
C393   C     0.87203   0.34530   0.27515   0.00000  Uiso   1.00
C394   C     0.97048   0.23519   0.54115   0.00000  Uiso   1.00
C395   C     0.62799   0.15472   0.72488   0.00000  Uiso   1.00
C396   C     0.84531   0.12796   0.27517   0.00000  Uiso   1.00
C397   C     0.65470   0.37203   0.72485   0.00000  Uiso   1.00
C398   C     0.62797   0.15470   0.27515   0.00000  Uiso   1.00
C399   C     0.87200   0.34528   0.72489   0.00000  Uiso   1.00
C400   C     0.65470   0.37203   0.27514   0.00000  Uiso   1.00
C401   C     0.84531   0.12796   0.72484   0.00000  Uiso   1.00
C402   C     0.59814   0.34813   0.25000   0.00000  Uiso   1.00
C403   C     0.90187   0.15186   0.74999   0.00000  Uiso   1.00
C404   C     0.65186   0.09813   0.25000   0.00000  Uiso   1.00
H405   H     0.69846   0.47231   0.02527   0.00000  Uiso   1.00
H406   H     0.55203   0.22337   0.47483   0.00000  Uiso   1.00
H407   H     0.77485   0.44697   0.52551   0.00000  Uiso   1.00
H408   H     0.77769   0.05154   0.47473   0.00000  Uiso   1.00
H409   H     0.55210   0.27683   0.52566   0.00000  Uiso   1.00
H410   H     0.94788   0.27679   0.47434   0.00000  Uiso   1.00
H411   H     0.72496   0.05303   0.52554   0.00000  Uiso   1.00
H412   H     0.72236   0.44836   0.47428   0.00000  Uiso   1.00
H413   H     0.61932   0.42751   0.20516   0.00000  Uiso   1.00
H414   H     0.88069   0.07249   0.79483   0.00000  Uiso   1.00
H415   H     0.57248   0.11931   0.20518   0.00000  Uiso   1.00
H416   H     0.80303   0.47515   0.97449   0.00000  Uiso   1.00
H417   H     0.92756   0.38074   0.79476   0.00000  Uiso   1.00
H418   H     0.88067   0.07250   0.20516   0.00000  Uiso   1.00
H419   H     0.61932   0.42750   0.79484   0.00000  Uiso   1.00
H420   H     0.92750   0.38067   0.20515   0.00000  Uiso   1.00
H421   H     0.57246   0.11928   0.79478   0.00000  Uiso   1.00
H422   H     0.61929   0.07246   0.79479   0.00000  Uiso   1.00
H423   H     0.88068   0.42750   0.20516   0.00000  Uiso   1.00
H424   H     0.57250   0.38067   0.79485   0.00000  Uiso   1.00
H425   H     0.92750   0.11931   0.20517   0.00000  Uiso   1.00
H426   H     0.88073   0.42755   0.79477   0.00000  Uiso   1.00
H427   H     0.52662   0.19788   0.02562   0.00000  Uiso   1.00
H428   H     0.61930   0.07248   0.20519   0.00000  Uiso   1.00
H429   H     0.92751   0.11932   0.79484   0.00000  Uiso   1.00
H430   H     0.57249   0.38069   0.20517   0.00000  Uiso   1.00
H431   H     0.86933   0.17750   0.70515   0.00000  Uiso   1.00
H432   H     0.63070   0.32248   0.29482   0.00000  Uiso   1.00
H433   H     0.82244   0.36927   0.70523   0.00000  Uiso   1.00
H434   H     0.67752   0.13070   0.29482   0.00000  Uiso   1.00
H435   H     0.63068   0.32249   0.70516   0.00000  Uiso   1.00
H436   H     0.86932   0.17750   0.29484   0.00000  Uiso   1.00
H437   H     0.67754   0.13071   0.70521   0.00000  Uiso   1.00
H438   H     0.52683   0.30202   0.97480   0.00000  Uiso   1.00
H439   H     0.82249   0.36931   0.29482   0.00000  Uiso   1.00
H440   H     0.86932   0.32249   0.29483   0.00000  Uiso   1.00
H441   H     0.63072   0.17754   0.70522   0.00000  Uiso   1.00
H442   H     0.82250   0.13067   0.29485   0.00000  Uiso   1.00
H443   H     0.67751   0.36931   0.70517   0.00000  Uiso   1.00
H444   H     0.63068   0.17751   0.29483   0.00000  Uiso   1.00
H445   H     0.86926   0.32244   0.70524   0.00000  Uiso   1.00
H446   H     0.67752   0.36931   0.29482   0.00000  Uiso   1.00
H447   H     0.82250   0.13068   0.70516   0.00000  Uiso   1.00
H448   H     0.70146   0.44238   0.11405   0.00000  Uiso   1.00
H449   H     0.80164   0.02764   0.02572   0.00000  Uiso   1.00
H450   H     0.67063   0.45832   0.08250   0.00000  Uiso   1.00
H451   H     0.83416   0.48416   0.90706   0.00000  Uiso   1.00
H452   H     0.81339   0.44300   0.90790   0.00000  Uiso   1.00
H453   H     0.51862   0.16648   0.09306   0.00000  Uiso   1.00
H454   H     0.55901   0.18873   0.09232   0.00000  Uiso   1.00
H455   H     0.55689   0.29954   0.88608   0.00000  Uiso   1.00
H456   H     0.54033   0.33009   0.91757   0.00000  Uiso   1.00
H457   H     0.81024   0.06010   0.09248   0.00000  Uiso   1.00
H458   H     0.83317   0.02009   0.09317   0.00000  Uiso   1.00
H459   H     0.66586   0.01597   0.90703   0.00000  Uiso   1.00
H460   H     0.69697   0.02504   0.97446   0.00000  Uiso   1.00
H461   H     0.68664   0.05714   0.90780   0.00000  Uiso   1.00
H462   H     0.94308   0.29949   0.11394   0.00000  Uiso   1.00
H463   H     0.95960   0.33006   0.08243   0.00000  Uiso   1.00
H464   H     0.98142   0.16647   0.90694   0.00000  Uiso   1.00
H465   H     0.94103   0.18870   0.90767   0.00000  Uiso   1.00
H466   H     0.95048   0.19318   0.61382   0.00000  Uiso   1.00
H467   H     0.91991   0.20977   0.58237   0.00000  Uiso   1.00
H468   H     0.54956   0.19321   0.38618   0.00000  Uiso   1.00
H469   H     0.58012   0.20983   0.41763   0.00000  Uiso   1.00
H470   H     0.80700   0.43661   0.59210   0.00000  Uiso   1.00
H471   H     0.97313   0.30200   0.02521   0.00000  Uiso   1.00
H472   H     0.76583   0.41584   0.59294   0.00000  Uiso   1.00
H473   H     0.80762   0.04854   0.38594   0.00000  Uiso   1.00
H474   H     0.79168   0.07937   0.41750   0.00000  Uiso   1.00
H475   H     0.58349   0.26876   0.59309   0.00000  Uiso   1.00
H476   H     0.56124   0.30914   0.59242   0.00000  Uiso   1.00
H477   H     0.91649   0.26870   0.40691   0.00000  Uiso   1.00
H478   H     0.93871   0.30910   0.40758   0.00000  Uiso   1.00
H479   H     0.73403   0.08414   0.59296   0.00000  Uiso   1.00
H480   H     0.69287   0.06337   0.59219   0.00000  Uiso   1.00
H481   H     0.72991   0.41683   0.40683   0.00000  Uiso   1.00
H482   H     0.97341   0.19787   0.97437   0.00000  Uiso   1.00
H483   H     0.68991   0.43976   0.40752   0.00000  Uiso   1.00
H484   H     0.94799   0.22334   0.52517   0.00000  Uiso   1.00
N485   N     0.69110   0.46629   0.10179   0.00000  Uiso   1.00
N486   N     0.55949   0.21735   0.39834   0.00000  Uiso   1.00
N487   N     0.77996   0.43933   0.60127   0.00000  Uiso   1.00
N488   N     0.78371   0.05890   0.39821   0.00000  Uiso   1.00
N489   N     0.55949   0.28199   0.60146   0.00000  Uiso   1.00
N490   N     0.94048   0.28195   0.39854   0.00000  Uiso   1.00
N491   N     0.71992   0.06065   0.60131   0.00000  Uiso   1.00
N492   N     0.71709   0.44105   0.39847   0.00000  Uiso   1.00
N493   N     0.81067   0.47004   0.89873   0.00000  Uiso   1.00
N494   N     0.53186   0.19048   0.10141   0.00000  Uiso   1.00
N495   N     0.53277   0.30947   0.89829   0.00000  Uiso   1.00
N496   N     0.80895   0.03292   0.10153   0.00000  Uiso   1.00
N497   N     0.68935   0.03008   0.89868   0.00000  Uiso   1.00
N498   N     0.96719   0.30945   0.10172   0.00000  Uiso   1.00
N499   N     0.96817   0.19046   0.89859   0.00000  Uiso   1.00
N500   N     0.94053   0.21731   0.60166   0.00000  Uiso   1.00
O501   O     0.75000  -0.00000   0.25000   0.00000  Uiso   1.00
O502   O     0.75000   0.46964   0.66317   0.00000  Uiso   1.00
O503   O     0.96964   0.25000   0.33683   0.00000  Uiso   1.00
O504   O     0.53036   0.25000   0.66317   0.00000  Uiso   1.00
O505   O     0.50000   0.21964   0.83683   0.00000  Uiso   1.00
O506   O     0.50000   0.28036   0.16317   0.00000  Uiso   1.00
O507   O     0.78036  -0.00000   0.83683   0.00000  Uiso   1.00
O508   O     0.71964  -0.00000   0.16317   0.00000  Uiso   1.00
O509   O     0.50000   0.28036   0.83683   0.00000  Uiso   1.00
O510   O     0.50000   0.21964   0.16317   0.00000  Uiso   1.00
O511   O     0.71964  -0.00000   0.83683   0.00000  Uiso   1.00
O512   O     0.75000  -0.00000   0.75000   0.00000  Uiso   1.00
O513   O     0.78036  -0.00000   0.16317   0.00000  Uiso   1.00
O514   O     0.70725   0.07307   0.27282   0.00000  Uiso   1.00
O515   O     0.79274   0.42693   0.72718   0.00000  Uiso   1.00
O516   O     0.92693   0.20725   0.27282   0.00000  Uiso   1.00
O517   O     0.57307   0.29274   0.72718   0.00000  Uiso   1.00
O518   O     0.79274   0.42693   0.27282   0.00000  Uiso   1.00
O519   O     0.70725   0.07307   0.72718   0.00000  Uiso   1.00
O520   O     0.57307   0.29274   0.27282   0.00000  Uiso   1.00
O521   O     0.92693   0.20725   0.72718   0.00000  Uiso   1.00
O522   O     0.70725   0.42693   0.72718   0.00000  Uiso   1.00
O523   O     0.50000   0.25000   0.25000   0.00000  Uiso   1.00
O524   O     0.79274   0.07307   0.27282   0.00000  Uiso   1.00
O525   O     0.92693   0.29274   0.72718   0.00000  Uiso   1.00
O526   O     0.57307   0.20725   0.27282   0.00000  Uiso   1.00
O527   O     0.79274   0.07307   0.72718   0.00000  Uiso   1.00
O528   O     0.70725   0.42693   0.27282   0.00000  Uiso   1.00
O529   O     0.57307   0.20725   0.72718   0.00000  Uiso   1.00
O530   O     0.92693   0.29274   0.27282   0.00000  Uiso   1.00
O531   O     0.95725   0.32307   0.77282   0.00000  Uiso   1.00
O532   O     0.54274   0.17693   0.22718   0.00000  Uiso   1.00
O533   O     0.67693   0.45725   0.77282   0.00000  Uiso   1.00
O534   O     0.50000   0.25000   0.75000   0.00000  Uiso   1.00
O535   O     0.82307   0.04274   0.22718   0.00000  Uiso   1.00
O536   O     0.54274   0.17693   0.77282   0.00000  Uiso   1.00
O537   O     0.95725   0.32307   0.22718   0.00000  Uiso   1.00
O538   O     0.82307   0.04274   0.77282   0.00000  Uiso   1.00
O539   O     0.67693   0.45725   0.22718   0.00000  Uiso   1.00
O540   O     0.95725   0.17693   0.22718   0.00000  Uiso   1.00
O541   O     0.54274   0.32307   0.77282   0.00000  Uiso   1.00
O542   O     0.67693   0.04274   0.22718   0.00000  Uiso   1.00
O543   O     0.82307   0.45725   0.77282   0.00000  Uiso   1.00
O544   O     0.54274   0.32307   0.22718   0.00000  Uiso   1.00
O545   O     0.75000   0.46964   0.33683   0.00000  Uiso   1.00
O546   O     0.95725   0.17693   0.77282   0.00000  Uiso   1.00
O547   O     0.82307   0.45725   0.22718   0.00000  Uiso   1.00
O548   O     0.67693   0.04274   0.77282   0.00000  Uiso   1.00
O549   O     0.75000   0.03036   0.66317   0.00000  Uiso   1.00
O550   O     0.53036   0.25000   0.33683   0.00000  Uiso   1.00
O551   O     0.96964   0.25000   0.66317   0.00000  Uiso   1.00
O552   O     0.75000   0.03036   0.33683   0.00000  Uiso   1.00
Zn553  Zn    0.70660  -0.00000   0.21760   0.00000  Uiso   1.00
Zn554  Zn    0.54340   0.25000   0.28240   0.00000  Uiso   1.00
Zn555  Zn    0.75000   0.45660   0.71760   0.00000  Uiso   1.00
Zn556  Zn    0.75000   0.04340   0.28240   0.00000  Uiso   1.00
Zn557  Zn    0.54340   0.25000   0.71760   0.00000  Uiso   1.00
Zn558  Zn    0.95660   0.25000   0.28240   0.00000  Uiso   1.00
Zn559  Zn    0.75000   0.04340   0.71760   0.00000  Uiso   1.00
Zn560  Zn    0.75000   0.45660   0.28240   0.00000  Uiso   1.00
Zn561  Zn    0.79340  -0.00000   0.78240   0.00000  Uiso   1.00
Zn562  Zn    0.50000   0.20660   0.21760   0.00000  Uiso   1.00
Zn563  Zn    0.50000   0.29340   0.78240   0.00000  Uiso   1.00
Zn564  Zn    0.79340  -0.00000   0.21760   0.00000  Uiso   1.00
Zn565  Zn    0.70660  -0.00000   0.78240   0.00000  Uiso   1.00
Zn566  Zn    0.50000   0.29340   0.21760   0.00000  Uiso   1.00
Zn567  Zn    0.50000   0.20660   0.78240   0.00000  Uiso   1.00
Zn568  Zn    0.95660   0.25000   0.71760   0.00000  Uiso   1.00
C569   C     0.22075   0.98457   0.04124   0.00000  Uiso   1.00
C570   C     0.02953   0.73521   0.45885   0.00000  Uiso   1.00
C571   C     0.34813   0.90187   0.75000   0.00000  Uiso   1.00
C572   C     0.40187   0.65186   0.25000   0.00000  Uiso   1.00
C573   C     0.09814   0.84813   0.75000   0.00000  Uiso   1.00
C574   C     0.34813   0.90186   0.25000   0.00000  Uiso   1.00
C575   C     0.15187   0.59813   0.75000   0.00000  Uiso   1.00
C576   C     0.09814   0.65186   0.75000   0.00000  Uiso   1.00
C577   C     0.40186   0.84813   0.24999   0.00000  Uiso   1.00
C578   C     0.15187   0.90186   0.75000   0.00000  Uiso   1.00
C579   C     0.34814   0.59813   0.25000   0.00000  Uiso   1.00
C580   C     0.40186   0.84814   0.75000   0.00000  Uiso   1.00
C581   C     0.26373   0.97003   0.54117   0.00000  Uiso   1.00
C582   C     0.09813   0.65186   0.25000   0.00000  Uiso   1.00
C583   C     0.34814   0.59813   0.75000   0.00000  Uiso   1.00
C584   C     0.15187   0.90186   0.24999   0.00000  Uiso   1.00
C585   C     0.24999   0.99976   0.10220   0.00000  Uiso   1.00
C586   C     0.25001   0.50005   0.89787   0.00000  Uiso   1.00
C587   C     0.49970   0.75001   0.10216   0.00000  Uiso   1.00
C588   C     0.00029   0.75001   0.89784   0.00000  Uiso   1.00
C589   C     0.49998   0.74981   0.60216   0.00000  Uiso   1.00
C590   C     0.00002   0.74981   0.39784   0.00000  Uiso   1.00
C591   C     0.24995   0.99999   0.60213   0.00000  Uiso   1.00
C592   C     0.26543   0.52925   0.45876   0.00000  Uiso   1.00
C593   C     0.25024   0.50001   0.39780   0.00000  Uiso   1.00
C594   C     0.02942   0.76489   0.54128   0.00000  Uiso   1.00
C595   C     0.47057   0.76487   0.45872   0.00000  Uiso   1.00
C596   C     0.23608   0.52995   0.54119   0.00000  Uiso   1.00
C597   C     0.23470   0.97083   0.45866   0.00000  Uiso   1.00
C598   C     0.22058   0.98386   0.08165   0.00000  Uiso   1.00
C599   C     0.28015   0.98582   0.91850   0.00000  Uiso   1.00
C600   C     0.01504   0.72039   0.08157   0.00000  Uiso   1.00
C601   C     0.27997   0.98627   0.95883   0.00000  Uiso   1.00
C602   C     0.01570   0.77969   0.91841   0.00000  Uiso   1.00
C603   C     0.27933   0.51561   0.08165   0.00000  Uiso   1.00
C604   C     0.21987   0.51433   0.91848   0.00000  Uiso   1.00
C605   C     0.48427   0.77968   0.08159   0.00000  Uiso   1.00
C606   C     0.48498   0.72038   0.91843   0.00000  Uiso   1.00
C607   C     0.47030   0.73443   0.58157   0.00000  Uiso   1.00
C608   C     0.02971   0.73445   0.41843   0.00000  Uiso   1.00
C609   C     0.26418   0.96985   0.58150   0.00000  Uiso   1.00
C610   C     0.26614   0.52942   0.41835   0.00000  Uiso   1.00
C611   C     0.02958   0.76519   0.58159   0.00000  Uiso   1.00
C612   C     0.01468   0.72055   0.04126   0.00000  Uiso   1.00
C613   C     0.47040   0.76517   0.41841   0.00000  Uiso   1.00
C614   C     0.23568   0.53014   0.58152   0.00000  Uiso   1.00
C615   C     0.23439   0.97067   0.41835   0.00000  Uiso   1.00
C616   C     0.24996   0.50003   0.02118   0.00000  Uiso   1.00
C617   C     0.25000   0.50010   0.97894   0.00000  Uiso   1.00
C618   C     0.49992   0.75003   0.02112   0.00000  Uiso   1.00
C619   C     0.00007   0.75003   0.97888   0.00000  Uiso   1.00
C620   C     0.49996   0.75014   0.52112   0.00000  Uiso   1.00
C621   C     0.00004   0.75014   0.47888   0.00000  Uiso   1.00
C622   C     0.24990   0.50000   0.52106   0.00000  Uiso   1.00
C623   C     0.01500   0.77951   0.95883   0.00000  Uiso   1.00
C624   C     0.24998   0.50004   0.47881   0.00000  Uiso   1.00
C625   C     0.25006   0.50000   0.35525   0.00000  Uiso   1.00
C626   C     0.24999   0.50000   0.64472   0.00000  Uiso   1.00
C627   C     0.00000   0.74995   0.35527   0.00000  Uiso   1.00
C628   C    -0.00000   0.74995   0.64473   0.00000  Uiso   1.00
C629   C     0.00007   0.75000   0.85527   0.00000  Uiso   1.00
C630   C     0.49993   0.75000   0.14473   0.00000  Uiso   1.00
C631   C     0.25000   0.50001   0.85528   0.00000  Uiso   1.00
C632   C     0.25000   0.99994   0.14475   0.00000  Uiso   1.00
C633   C     0.17993   0.57007   0.25000   0.00000  Uiso   1.00
C634   C     0.27917   0.51530   0.04134   0.00000  Uiso   1.00
C635   C     0.32007   0.92993   0.75000   0.00000  Uiso   1.00
C636   C     0.42993   0.67993   0.25000   0.00000  Uiso   1.00
C637   C     0.07007   0.82007   0.75000   0.00000  Uiso   1.00
C638   C     0.32007   0.92993   0.25000   0.00000  Uiso   1.00
C639   C     0.17993   0.57007   0.75000   0.00000  Uiso   1.00
C640   C     0.07007   0.82007   0.25000   0.00000  Uiso   1.00
C641   C     0.42993   0.67993   0.75000   0.00000  Uiso   1.00
C642   C     0.17993   0.92993   0.75000   0.00000  Uiso   1.00
C643   C     0.32007   0.57007   0.25000   0.00000  Uiso   1.00
C644   C     0.42993   0.82007   0.75000   0.00000  Uiso   1.00
C645   C     0.22005   0.51392   0.95881   0.00000  Uiso   1.00
C646   C     0.07007   0.67993   0.25000   0.00000  Uiso   1.00
C647   C     0.32007   0.57007   0.75000   0.00000  Uiso   1.00
C648   C     0.17993   0.92993   0.25000   0.00000  Uiso   1.00
C649   C     0.07007   0.67993   0.75000   0.00000  Uiso   1.00
C650   C     0.42993   0.82007   0.25000   0.00000  Uiso   1.00
C651   C     0.12204   0.90470   0.22484   0.00000  Uiso   1.00
C652   C     0.37797   0.59530   0.77515   0.00000  Uiso   1.00
C653   C     0.09529   0.62203   0.22486   0.00000  Uiso   1.00
C654   C     0.40472   0.87800   0.77511   0.00000  Uiso   1.00
C655   C     0.37796   0.59530   0.22485   0.00000  Uiso   1.00
C656   C     0.48498   0.77950   0.04118   0.00000  Uiso   1.00
C657   C     0.12204   0.90469   0.77516   0.00000  Uiso   1.00
C658   C     0.40469   0.87796   0.22484   0.00000  Uiso   1.00
C659   C     0.09528   0.62201   0.77512   0.00000  Uiso   1.00
C660   C     0.12202   0.59528   0.77513   0.00000  Uiso   1.00
C661   C     0.37797   0.90469   0.22484   0.00000  Uiso   1.00
C662   C     0.09531   0.87796   0.77517   0.00000  Uiso   1.00
C663   C     0.40470   0.62203   0.22485   0.00000  Uiso   1.00
C664   C     0.37799   0.90472   0.77512   0.00000  Uiso   1.00
C665   C     0.12202   0.59529   0.22486   0.00000  Uiso   1.00
C666   C     0.40470   0.62204   0.77515   0.00000  Uiso   1.00
C667   C     0.48533   0.72055   0.95874   0.00000  Uiso   1.00
C668   C     0.09530   0.87797   0.22485   0.00000  Uiso   1.00
C669   C     0.37204   0.65469   0.72483   0.00000  Uiso   1.00
C670   C     0.12798   0.84530   0.27514   0.00000  Uiso   1.00
C671   C     0.34528   0.87201   0.72488   0.00000  Uiso   1.00
C672   C     0.15470   0.62797   0.27515   0.00000  Uiso   1.00
C673   C     0.12796   0.84530   0.72485   0.00000  Uiso   1.00
C674   C     0.37204   0.65469   0.27516   0.00000  Uiso   1.00
C675   C     0.15472   0.62798   0.72487   0.00000  Uiso   1.00
C676   C     0.34530   0.87203   0.27515   0.00000  Uiso   1.00
C677   C     0.37203   0.84530   0.27515   0.00000  Uiso   1.00
C678   C     0.47048   0.73519   0.54115   0.00000  Uiso   1.00
C679   C     0.12799   0.65472   0.72488   0.00000  Uiso   1.00
C680   C     0.34531   0.62796   0.27517   0.00000  Uiso   1.00
C681   C     0.15470   0.87203   0.72485   0.00000  Uiso   1.00
C682   C     0.12797   0.65470   0.27515   0.00000  Uiso   1.00
C683   C     0.37200   0.84528   0.72489   0.00000  Uiso   1.00
C684   C     0.15470   0.87203   0.27514   0.00000  Uiso   1.00
C685   C     0.34531   0.62796   0.72484   0.00000  Uiso   1.00
C686   C     0.09814   0.84813   0.25000   0.00000  Uiso   1.00
C687   C     0.40187   0.65186   0.74999   0.00000  Uiso   1.00
C688   C     0.15186   0.59813   0.25000   0.00000  Uiso   1.00
H689   H     0.19846   0.97231   0.02527   0.00000  Uiso   1.00
H690   H     0.05203   0.72337   0.47483   0.00000  Uiso   1.00
H691   H     0.27485   0.94697   0.52551   0.00000  Uiso   1.00
H692   H     0.27769   0.55154   0.47473   0.00000  Uiso   1.00
H693   H     0.05210   0.77683   0.52566   0.00000  Uiso   1.00
H694   H     0.44788   0.77679   0.47434   0.00000  Uiso   1.00
H695   H     0.22496   0.55303   0.52554   0.00000  Uiso   1.00
H696   H     0.22236   0.94836   0.47428   0.00000  Uiso   1.00
H697   H     0.11932   0.92751   0.20516   0.00000  Uiso   1.00
H698   H     0.38069   0.57249   0.79483   0.00000  Uiso   1.00
H699   H     0.07248   0.61931   0.20518   0.00000  Uiso   1.00
H700   H     0.30303   0.97515   0.97449   0.00000  Uiso   1.00
H701   H     0.42756   0.88074   0.79476   0.00000  Uiso   1.00
H702   H     0.38067   0.57250   0.20516   0.00000  Uiso   1.00
H703   H     0.11932   0.92750   0.79484   0.00000  Uiso   1.00
H704   H     0.42750   0.88067   0.20515   0.00000  Uiso   1.00
H705   H     0.07246   0.61928   0.79478   0.00000  Uiso   1.00
H706   H     0.11929   0.57246   0.79479   0.00000  Uiso   1.00
H707   H     0.38068   0.92750   0.20516   0.00000  Uiso   1.00
H708   H     0.07250   0.88067   0.79485   0.00000  Uiso   1.00
H709   H     0.42750   0.61931   0.20517   0.00000  Uiso   1.00
H710   H     0.38073   0.92755   0.79477   0.00000  Uiso   1.00
H711   H     0.02662   0.69788   0.02562   0.00000  Uiso   1.00
H712   H     0.11930   0.57248   0.20519   0.00000  Uiso   1.00
H713   H     0.42751   0.61932   0.79484   0.00000  Uiso   1.00
H714   H     0.07249   0.88069   0.20517   0.00000  Uiso   1.00
H715   H     0.36933   0.67750   0.70515   0.00000  Uiso   1.00
H716   H     0.13070   0.82248   0.29482   0.00000  Uiso   1.00
H717   H     0.32244   0.86927   0.70523   0.00000  Uiso   1.00
H718   H     0.17752   0.63070   0.29482   0.00000  Uiso   1.00
H719   H     0.13068   0.82249   0.70516   0.00000  Uiso   1.00
H720   H     0.36932   0.67750   0.29484   0.00000  Uiso   1.00
H721   H     0.17754   0.63071   0.70521   0.00000  Uiso   1.00
H722   H     0.02683   0.80202   0.97480   0.00000  Uiso   1.00
H723   H     0.32249   0.86931   0.29482   0.00000  Uiso   1.00
H724   H     0.36932   0.82249   0.29483   0.00000  Uiso   1.00
H725   H     0.13072   0.67754   0.70522   0.00000  Uiso   1.00
H726   H     0.32250   0.63067   0.29485   0.00000  Uiso   1.00
H727   H     0.17751   0.86931   0.70517   0.00000  Uiso   1.00
H728   H     0.13068   0.67751   0.29483   0.00000  Uiso   1.00
H729   H     0.36926   0.82244   0.70524   0.00000  Uiso   1.00
H730   H     0.17752   0.86931   0.29482   0.00000  Uiso   1.00
H731   H     0.32250   0.63068   0.70516   0.00000  Uiso   1.00
H732   H     0.20146   0.94238   0.11405   0.00000  Uiso   1.00
H733   H     0.30164   0.52764   0.02572   0.00000  Uiso   1.00
H734   H     0.17063   0.95832   0.08250   0.00000  Uiso   1.00
H735   H     0.33416   0.98416   0.90706   0.00000  Uiso   1.00
H736   H     0.31339   0.94300   0.90790   0.00000  Uiso   1.00
H737   H     0.01862   0.66648   0.09306   0.00000  Uiso   1.00
H738   H     0.05901   0.68873   0.09232   0.00000  Uiso   1.00
H739   H     0.05689   0.79954   0.88608   0.00000  Uiso   1.00
H740   H     0.04033   0.83009   0.91757   0.00000  Uiso   1.00
H741   H     0.31024   0.56010   0.09248   0.00000  Uiso   1.00
H742   H     0.33317   0.52009   0.09317   0.00000  Uiso   1.00
H743   H     0.16586   0.51597   0.90703   0.00000  Uiso   1.00
H744   H     0.19697   0.52504   0.97446   0.00000  Uiso   1.00
H745   H     0.18664   0.55714   0.90780   0.00000  Uiso   1.00
H746   H     0.44308   0.79949   0.11394   0.00000  Uiso   1.00
H747   H     0.45960   0.83006   0.08243   0.00000  Uiso   1.00
H748   H     0.48142   0.66647   0.90694   0.00000  Uiso   1.00
H749   H     0.44103   0.68870   0.90767   0.00000  Uiso   1.00
H750   H     0.45048   0.69318   0.61382   0.00000  Uiso   1.00
H751   H     0.41991   0.70977   0.58237   0.00000  Uiso   1.00
H752   H     0.04956   0.69321   0.38618   0.00000  Uiso   1.00
H753   H     0.08012   0.70983   0.41763   0.00000  Uiso   1.00
H754   H     0.30700   0.93661   0.59210   0.00000  Uiso   1.00
H755   H     0.47313   0.80200   0.02521   0.00000  Uiso   1.00
H756   H     0.26583   0.91584   0.59294   0.00000  Uiso   1.00
H757   H     0.30762   0.54854   0.38594   0.00000  Uiso   1.00
H758   H     0.29168   0.57937   0.41750   0.00000  Uiso   1.00
H759   H     0.08349   0.76876   0.59309   0.00000  Uiso   1.00
H760   H     0.06124   0.80914   0.59242   0.00000  Uiso   1.00
H761   H     0.41649   0.76870   0.40691   0.00000  Uiso   1.00
H762   H     0.43871   0.80910   0.40758   0.00000  Uiso   1.00
H763   H     0.23403   0.58414   0.59296   0.00000  Uiso   1.00
H764   H     0.19287   0.56337   0.59219   0.00000  Uiso   1.00
H765   H     0.22991   0.91683   0.40683   0.00000  Uiso   1.00
H766   H     0.47341   0.69787   0.97437   0.00000  Uiso   1.00
H767   H     0.18991   0.93976   0.40752   0.00000  Uiso   1.00
H768   H     0.44799   0.72334   0.52517   0.00000  Uiso   1.00
N769   N     0.19110   0.96629   0.10179   0.00000  Uiso   1.00
N770   N     0.05949   0.71735   0.39834   0.00000  Uiso   1.00
N771   N     0.27996   0.93933   0.60127   0.00000  Uiso   1.00
N772   N     0.28371   0.55890   0.39821   0.00000  Uiso   1.00
N773   N     0.05949   0.78199   0.60146   0.00000  Uiso   1.00
N774   N     0.44048   0.78195   0.39854   0.00000  Uiso   1.00
N775   N     0.21992   0.56065   0.60131   0.00000  Uiso   1.00
N776   N     0.21709   0.94105   0.39847   0.00000  Uiso   1.00
N777   N     0.31067   0.97004   0.89873   0.00000  Uiso   1.00
N778   N     0.03186   0.69048   0.10141   0.00000  Uiso   1.00
N779   N     0.03277   0.80947   0.89829   0.00000  Uiso   1.00
N780   N     0.30895   0.53292   0.10153   0.00000  Uiso   1.00
N781   N     0.18935   0.53008   0.89868   0.00000  Uiso   1.00
N782   N     0.46719   0.80945   0.10172   0.00000  Uiso   1.00
N783   N     0.46817   0.69046   0.89859   0.00000  Uiso   1.00
N784   N     0.44053   0.71731   0.60166   0.00000  Uiso   1.00
O785   O     0.25000   0.50000   0.25000   0.00000  Uiso   1.00
O786   O     0.25000   0.96964   0.66317   0.00000  Uiso   1.00
O787   O     0.46964   0.75000   0.33683   0.00000  Uiso   1.00
O788   O     0.03036   0.75000   0.66317   0.00000  Uiso   1.00
O789   O    -0.00000   0.71964   0.83683   0.00000  Uiso   1.00
O790   O    -0.00000   0.78036   0.16317   0.00000  Uiso   1.00
O791   O     0.28036   0.50000   0.83683   0.00000  Uiso   1.00
O792   O     0.21964   0.50000   0.16317   0.00000  Uiso   1.00
O793   O     0.00000   0.78036   0.83683   0.00000  Uiso   1.00
O794   O    -0.00000   0.71964   0.16317   0.00000  Uiso   1.00
O795   O     0.21964   0.50000   0.83683   0.00000  Uiso   1.00
O796   O     0.25000   0.50000   0.75000   0.00000  Uiso   1.00
O797   O     0.28036   0.50000   0.16317   0.00000  Uiso   1.00
O798   O     0.20725   0.57307   0.27282   0.00000  Uiso   1.00
O799   O     0.29274   0.92693   0.72718   0.00000  Uiso   1.00
O800   O     0.42693   0.70725   0.27282   0.00000  Uiso   1.00
O801   O     0.07307   0.79274   0.72718   0.00000  Uiso   1.00
O802   O     0.29274   0.92693   0.27282   0.00000  Uiso   1.00
O803   O     0.20725   0.57307   0.72718   0.00000  Uiso   1.00
O804   O     0.07307   0.79274   0.27282   0.00000  Uiso   1.00
O805   O     0.42693   0.70725   0.72718   0.00000  Uiso   1.00
O806   O     0.20725   0.92693   0.72718   0.00000  Uiso   1.00
O807   O     0.00000   0.75000   0.25000   0.00000  Uiso   1.00
O808   O     0.29274   0.57307   0.27282   0.00000  Uiso   1.00
O809   O     0.42693   0.79274   0.72718   0.00000  Uiso   1.00
O810   O     0.07307   0.70725   0.27282   0.00000  Uiso   1.00
O811   O     0.29274   0.57307   0.72718   0.00000  Uiso   1.00
O812   O     0.20725   0.92693   0.27282   0.00000  Uiso   1.00
O813   O     0.07307   0.70725   0.72718   0.00000  Uiso   1.00
O814   O     0.42693   0.79274   0.27282   0.00000  Uiso   1.00
O815   O     0.45725   0.82307   0.77282   0.00000  Uiso   1.00
O816   O     0.04274   0.67693   0.22718   0.00000  Uiso   1.00
O817   O     0.17693   0.95725   0.77282   0.00000  Uiso   1.00
O818   O     0.00000   0.75000   0.75000   0.00000  Uiso   1.00
O819   O     0.32307   0.54274   0.22718   0.00000  Uiso   1.00
O820   O     0.04274   0.67693   0.77282   0.00000  Uiso   1.00
O821   O     0.45725   0.82307   0.22718   0.00000  Uiso   1.00
O822   O     0.32307   0.54274   0.77282   0.00000  Uiso   1.00
O823   O     0.17693   0.95725   0.22718   0.00000  Uiso   1.00
O824   O     0.45725   0.67693   0.22718   0.00000  Uiso   1.00
O825   O     0.04274   0.82307   0.77282   0.00000  Uiso   1.00
O826   O     0.17693   0.54274   0.22718   0.00000  Uiso   1.00
O827   O     0.32307   0.95725   0.77282   0.00000  Uiso   1.00
O828   O     0.04274   0.82307   0.22718   0.00000  Uiso   1.00
O829   O     0.25000   0.96964   0.33683   0.00000  Uiso   1.00
O830   O     0.45725   0.67693   0.77282   0.00000  Uiso   1.00
O831   O     0.32307   0.95725   0.22718   0.00000  Uiso   1.00
O832   O     0.17693   0.54274   0.77282   0.00000  Uiso   1.00
O833   O     0.25000   0.53036   0.66317   0.00000  Uiso   1.00
O834   O     0.03036   0.75000   0.33683   0.00000  Uiso   1.00
O835   O     0.46964   0.75000   0.66317   0.00000  Uiso   1.00
O836   O     0.25000   0.53036   0.33683   0.00000  Uiso   1.00
Zn837  Zn    0.20660   0.50000   0.21760   0.00000  Uiso   1.00
Zn838  Zn    0.04340   0.75000   0.28240   0.00000  Uiso   1.00
Zn839  Zn    0.25000   0.95660   0.71760   0.00000  Uiso   1.00
Zn840  Zn    0.25000   0.54340   0.28240   0.00000  Uiso   1.00
Zn841  Zn    0.04340   0.75000   0.71760   0.00000  Uiso   1.00
Zn842  Zn    0.45660   0.75000   0.28240   0.00000  Uiso   1.00
Zn843  Zn    0.25000   0.54340   0.71760   0.00000  Uiso   1.00
Zn844  Zn    0.25000   0.95660   0.28240   0.00000  Uiso   1.00
Zn845  Zn    0.29340   0.50000   0.78240   0.00000  Uiso   1.00
Zn846  Zn   -0.00000   0.70660   0.21760   0.00000  Uiso   1.00
Zn847  Zn    0.00000   0.79340   0.78240   0.00000  Uiso   1.00
Zn848  Zn    0.29340   0.50000   0.21760   0.00000  Uiso   1.00
Zn849  Zn    0.20660   0.50000   0.78240   0.00000  Uiso   1.00
Zn850  Zn   -0.00000   0.79340   0.21760   0.00000  Uiso   1.00
Zn851  Zn    0.00000   0.70660   0.78240   0.00000  Uiso   1.00
Zn852  Zn    0.45660   0.75000   0.71760   0.00000  Uiso   1.00
C853   C     0.72075   0.98457   0.04124   0.00000  Uiso   1.00
C854   C     0.52953   0.73521   0.45885   0.00000  Uiso   1.00
C855   C     0.84813   0.90187   0.75000   0.00000  Uiso   1.00
C856   C     0.90187   0.65186   0.25000   0.00000  Uiso   1.00
C857   C     0.59814   0.84813   0.75000   0.00000  Uiso   1.00
C858   C     0.84813   0.90186   0.25000   0.00000  Uiso   1.00
C859   C     0.65187   0.59813   0.75000   0.00000  Uiso   1.00
C860   C     0.59814   0.65186   0.75000   0.00000  Uiso   1.00
C861   C     0.90186   0.84813   0.24999   0.00000  Uiso   1.00
C862   C     0.65187   0.90186   0.75000   0.00000  Uiso   1.00
C863   C     0.84814   0.59813   0.25000   0.00000  Uiso   1.00
C864   C     0.90186   0.84814   0.75000   0.00000  Uiso   1.00
C865   C     0.76373   0.97003   0.54117   0.00000  Uiso   1.00
C866   C     0.59813   0.65186   0.25000   0.00000  Uiso   1.00
C867   C     0.84814   0.59813   0.75000   0.00000  Uiso   1.00
C868   C     0.65187   0.90186   0.24999   0.00000  Uiso   1.00
C869   C     0.74999   0.99976   0.10220   0.00000  Uiso   1.00
C870   C     0.75001   0.50005   0.89787   0.00000  Uiso   1.00
C871   C     0.99970   0.75001   0.10216   0.00000  Uiso   1.00
C872   C     0.50029   0.75001   0.89784   0.00000  Uiso   1.00
C873   C     0.99998   0.74981   0.60216   0.00000  Uiso   1.00
C874   C     0.50002   0.74981   0.39784   0.00000  Uiso   1.00
C875   C     0.74995   0.99999   0.60213   0.00000  Uiso   1.00
C876   C     0.76543   0.52925   0.45876   0.00000  Uiso   1.00
C877   C     0.75024   0.50001   0.39780   0.00000  Uiso   1.00
C878   C     0.52942   0.76489   0.54128   0.00000  Uiso   1.00
C879   C     0.97057   0.76487   0.45872   0.00000  Uiso   1.00
C880   C     0.73608   0.52995   0.54119   0.00000  Uiso   1.00
C881   C     0.73470   0.97083   0.45866   0.00000  Uiso   1.00
C882   C     0.72058   0.98386   0.08165   0.00000  Uiso   1.00
C883   C     0.78015   0.98582   0.91850   0.00000  Uiso   1.00
C884   C     0.51504   0.72039   0.08157   0.00000  Uiso   1.00
C885   C     0.77997   0.98627   0.95883   0.00000  Uiso   1.00
C886   C     0.51570   0.77969   0.91841   0.00000  Uiso   1.00
C887   C     0.77933   0.51561   0.08165   0.00000  Uiso   1.00
C888   C     0.71987   0.51433   0.91848   0.00000  Uiso   1.00
C889   C     0.98427   0.77968   0.08159   0.00000  Uiso   1.00
C890   C     0.98498   0.72038   0.91843   0.00000  Uiso   1.00
C891   C     0.97030   0.73443   0.58157   0.00000  Uiso   1.00
C892   C     0.52971   0.73445   0.41843   0.00000  Uiso   1.00
C893   C     0.76418   0.96985   0.58150   0.00000  Uiso   1.00
C894   C     0.76614   0.52942   0.41835   0.00000  Uiso   1.00
C895   C     0.52958   0.76519   0.58159   0.00000  Uiso   1.00
C896   C     0.51468   0.72055   0.04126   0.00000  Uiso   1.00
C897   C     0.97040   0.76517   0.41841   0.00000  Uiso   1.00
C898   C     0.73568   0.53014   0.58152   0.00000  Uiso   1.00
C899   C     0.73439   0.97067   0.41835   0.00000  Uiso   1.00
C900   C     0.74996   0.50003   0.02118   0.00000  Uiso   1.00
C901   C     0.75000   0.50010   0.97894   0.00000  Uiso   1.00
C902   C     0.99992   0.75003   0.02112   0.00000  Uiso   1.00
C903   C     0.50007   0.75003   0.97888   0.00000  Uiso   1.00
C904   C     0.99996   0.75014   0.52112   0.00000  Uiso   1.00
C905   C     0.50004   0.75014   0.47888   0.00000  Uiso   1.00
C906   C     0.74990   0.50000   0.52106   0.00000  Uiso   1.00
C907   C     0.51500   0.77951   0.95883   0.00000  Uiso   1.00
C908   C     0.74998   0.50004   0.47881   0.00000  Uiso   1.00
C909   C     0.75006   0.50000   0.35525   0.00000  Uiso   1.00
C910   C     0.74999   0.50000   0.64472   0.00000  Uiso   1.00
C911   C     0.50000   0.74995   0.35527   0.00000  Uiso   1.00
C912   C     0.50000   0.74995   0.64473   0.00000  Uiso   1.00
C913   C     0.50007   0.75000   0.85527   0.00000  Uiso   1.00
C914   C     0.99993   0.75000   0.14473   0.00000  Uiso   1.00
C915   C     0.75000   0.50001   0.85528   0.00000  Uiso   1.00
C916   C     0.75000   0.99994   0.14475   0.00000  Uiso   1.00
C917   C     0.67993   0.57007   0.25000   0.00000  Uiso   1.00
C918   C     0.77917   0.51530   0.04134   0.00000  Uiso   1.00
C919   C     0.82007   0.92993   0.75000   0.00000  Uiso   1.00
C920   C     0.92993   0.67993   0.25000   0.00000  Uiso   1.00
C921   C     0.57007   0.82007   0.75000   0.00000  Uiso   1.00
C922   C     0.82007   0.92993   0.25000   0.00000  Uiso   1.00
C923   C     0.67993   0.57007   0.75000   0.00000  Uiso   1.00
C924   C     0.57007   0.82007   0.25000   0.00000  Uiso   1.00
C925   C     0.92993   0.67993   0.75000   0.00000  Uiso   1.00
C926   C     0.67993   0.92993   0.75000   0.00000  Uiso   1.00
C927   C     0.82007   0.57007   0.25000   0.00000  Uiso   1.00
C928   C     0.92993   0.82007   0.75000   0.00000  Uiso   1.00
C929   C     0.72005   0.51392   0.95881   0.00000  Uiso   1.00
C930   C     0.57007   0.67993   0.25000   0.00000  Uiso   1.00
C931   C     0.82007   0.57007   0.75000   0.00000  Uiso   1.00
C932   C     0.67993   0.92993   0.25000   0.00000  Uiso   1.00
C933   C     0.57007   0.67993   0.75000   0.00000  Uiso   1.00
C934   C     0.92993   0.82007   0.25000   0.00000  Uiso   1.00
C935   C     0.62204   0.90470   0.22484   0.00000  Uiso   1.00
C936   C     0.87797   0.59530   0.77515   0.00000  Uiso   1.00
C937   C     0.59529   0.62203   0.22486   0.00000  Uiso   1.00
C938   C     0.90472   0.87800   0.77511   0.00000  Uiso   1.00
C939   C     0.87796   0.59530   0.22485   0.00000  Uiso   1.00
C940   C     0.98498   0.77950   0.04118   0.00000  Uiso   1.00
C941   C     0.62204   0.90469   0.77516   0.00000  Uiso   1.00
C942   C     0.90469   0.87796   0.22484   0.00000  Uiso   1.00
C943   C     0.59528   0.62201   0.77512   0.00000  Uiso   1.00
C944   C     0.62202   0.59528   0.77513   0.00000  Uiso   1.00
C945   C     0.87797   0.90469   0.22484   0.00000  Uiso   1.00
C946   C     0.59531   0.87796   0.77517   0.00000  Uiso   1.00
C947   C     0.90470   0.62203   0.22485   0.00000  Uiso   1.00
C948   C     0.87799   0.90472   0.77512   0.00000  Uiso   1.00
C949   C     0.62202   0.59529   0.22486   0.00000  Uiso   1.00
C950   C     0.90470   0.62204   0.77515   0.00000  Uiso   1.00
C951   C     0.98533   0.72055   0.95874   0.00000  Uiso   1.00
C952   C     0.59530   0.87797   0.22485   0.00000  Uiso   1.00
C953   C     0.87204   0.65469   0.72483   0.00000  Uiso   1.00
C954   C     0.62798   0.84530   0.27514   0.00000  Uiso   1.00
C955   C     0.84528   0.87201   0.72488   0.00000  Uiso   1.00
C956   C     0.65470   0.62797   0.27515   0.00000  Uiso   1.00
C957   C     0.62796   0.84530   0.72485   0.00000  Uiso   1.00
C958   C     0.87204   0.65469   0.27516   0.00000  Uiso   1.00
C959   C     0.65472   0.62798   0.72487   0.00000  Uiso   1.00
C960   C     0.84530   0.87203   0.27515   0.00000  Uiso   1.00
C961   C     0.87203   0.84530   0.27515   0.00000  Uiso   1.00
C962   C     0.97048   0.73519   0.54115   0.00000  Uiso   1.00
C963   C     0.62799   0.65472   0.72488   0.00000  Uiso   1.00
C964   C     0.84531   0.62796   0.27517   0.00000  Uiso   1.00
C965   C     0.65470   0.87203   0.72485   0.00000  Uiso   1.00
C966   C     0.62797   0.65470   0.27515   0.00000  Uiso   1.00
C967   C     0.87200   0.84528   0.72489   0.00000  Uiso   1.00
C968   C     0.65470   0.87203   0.27514   0.00000  Uiso   1.00
C969   C     0.84531   0.62796   0.72484   0.00000  Uiso   1.00
C970   C     0.59814   0.84813   0.25000   0.00000  Uiso   1.00
C971   C     0.90187   0.65186   0.74999   0.00000  Uiso   1.00
C972   C     0.65186   0.59813   0.25000   0.00000  Uiso   1.00
H973   H     0.69846   0.97231   0.02527   0.00000  Uiso   1.00
H974   H     0.55203   0.72337   0.47483   0.00000  Uiso   1.00
H975   H     0.77485   0.94697   0.52551   0.00000  Uiso   1.00
H976   H     0.77769   0.55154   0.47473   0.00000  Uiso   1.00
H977   H     0.55210   0.77683   0.52566   0.00000  Uiso   1.00
H978   H     0.94788   0.77679   0.47434   0.00000  Uiso   1.00
H979   H     0.72496   0.55303   0.52554   0.00000  Uiso   1.00
H980   H     0.72236   0.94836   0.47428   0.00000  Uiso   1.00
H981   H     0.61932   0.92751   0.20516   0.00000  Uiso   1.00
H982   H     0.88069   0.57249   0.79483   0.00000  Uiso   1.00
H983   H     0.57248   0.61931   0.20518   0.00000  Uiso   1.00
H984   H     0.80303   0.97515   0.97449   0.00000  Uiso   1.00
H985   H     0.92756   0.88074   0.79476   0.00000  Uiso   1.00
H986   H     0.88067   0.57250   0.20516   0.00000  Uiso   1.00
H987   H     0.61932   0.92750   0.79484   0.00000  Uiso   1.00
H988   H     0.92750   0.88067   0.20515   0.00000  Uiso   1.00
H989   H     0.57246   0.61928   0.79478   0.00000  Uiso   1.00
H990   H     0.61929   0.57246   0.79479   0.00000  Uiso   1.00
H991   H     0.88068   0.92750   0.20516   0.00000  Uiso   1.00
H992   H     0.57250   0.88067   0.79485   0.00000  Uiso   1.00
H993   H     0.92750   0.61931   0.20517   0.00000  Uiso   1.00
H994   H     0.88073   0.92755   0.79477   0.00000  Uiso   1.00
H995   H     0.52662   0.69788   0.02562   0.00000  Uiso   1.00
H996   H     0.61930   0.57248   0.20519   0.00000  Uiso   1.00
H997   H     0.92751   0.61932   0.79484   0.00000  Uiso   1.00
H998   H     0.57249   0.88069   0.20517   0.00000  Uiso   1.00
H999   H     0.86933   0.67750   0.70515   0.00000  Uiso   1.00
H1000  H     0.63070   0.82248   0.29482   0.00000  Uiso   1.00
H1001  H     0.82244   0.86927   0.70523   0.00000  Uiso   1.00
H1002  H     0.67752   0.63070   0.29482   0.00000  Uiso   1.00
H1003  H     0.63068   0.82249   0.70516   0.00000  Uiso   1.00
H1004  H     0.86932   0.67750   0.29484   0.00000  Uiso   1.00
H1005  H     0.67754   0.63071   0.70521   0.00000  Uiso   1.00
H1006  H     0.52683   0.80202   0.97480   0.00000  Uiso   1.00
H1007  H     0.82249   0.86931   0.29482   0.00000  Uiso   1.00
H1008  H     0.86932   0.82249   0.29483   0.00000  Uiso   1.00
H1009  H     0.63072   0.67754   0.70522   0.00000  Uiso   1.00
H1010  H     0.82250   0.63067   0.29485   0.00000  Uiso   1.00
H1011  H     0.67751   0.86931   0.70517   0.00000  Uiso   1.00
H1012  H     0.63068   0.67751   0.29483   0.00000  Uiso   1.00
H1013  H     0.86926   0.82244   0.70524   0.00000  Uiso   1.00
H1014  H     0.67752   0.86931   0.29482   0.00000  Uiso   1.00
H1015  H     0.82250   0.63068   0.70516   0.00000  Uiso   1.00
H1016  H     0.70146   0.94238   0.11405   0.00000  Uiso   1.00
H1017  H     0.80164   0.52764   0.02572   0.00000  Uiso   1.00
H1018  H     0.67063   0.95832   0.08250   0.00000  Uiso   1.00
H1019  H     0.83416   0.98416   0.90706   0.00000  Uiso   1.00
H1020  H     0.81339   0.94300   0.90790   0.00000  Uiso   1.00
H1021  H     0.51862   0.66648   0.09306   0.00000  Uiso   1.00
H1022  H     0.55901   0.68873   0.09232   0.00000  Uiso   1.00
H1023  H     0.55689   0.79954   0.88608   0.00000  Uiso   1.00
H1024  H     0.54033   0.83009   0.91757   0.00000  Uiso   1.00
H1025  H     0.81024   0.56010   0.09248   0.00000  Uiso   1.00
H1026  H     0.83317   0.52009   0.09317   0.00000  Uiso   1.00
H1027  H     0.66586   0.51597   0.90703   0.00000  Uiso   1.00
H1028  H     0.69697   0.52504   0.97446   0.00000  Uiso   1.00
H1029  H     0.68664   0.55714   0.90780   0.00000  Uiso   1.00
H1030  H     0.94308   0.79949   0.11394   0.00000  Uiso   1.00
H1031  H     0.95960   0.83006   0.08243   0.00000  Uiso   1.00
H1032  H     0.98142   0.66647   0.90694   0.00000  Uiso   1.00
H1033  H     0.94103   0.68870   0.90767   0.00000  Uiso   1.00
H1034  H     0.95048   0.69318   0.61382   0.00000  Uiso   1.00
H1035  H     0.91991   0.70977   0.58237   0.00000  Uiso   1.00
H1036  H     0.54956   0.69321   0.38618   0.00000  Uiso   1.00
H1037  H     0.58012   0.70983   0.41763   0.00000  Uiso   1.00
H1038  H     0.80700   0.93661   0.59210   0.00000  Uiso   1.00
H1039  H     0.97313   0.80200   0.02521   0.00000  Uiso   1.00
H1040  H     0.76583   0.91584   0.59294   0.00000  Uiso   1.00
H1041  H     0.80762   0.54854   0.38594   0.00000  Uiso   1.00
H1042  H     0.79168   0.57937   0.41750   0.00000  Uiso   1.00
H1043  H     0.58349   0.76876   0.59309   0.00000  Uiso   1.00
H1044  H     0.56124   0.80914   0.59242   0.00000  Uiso   1.00
H1045  H     0.91649   0.76870   0.40691   0.00000  Uiso   1.00
H1046  H     0.93871   0.80910   0.40758   0.00000  Uiso   1.00
H1047  H     0.73403   0.58414   0.59296   0.00000  Uiso   1.00
H1048  H     0.69287   0.56337   0.59219   0.00000  Uiso   1.00
H1049  H     0.72991   0.91683   0.40683   0.00000  Uiso   1.00
H1050  H     0.97341   0.69787   0.97437   0.00000  Uiso   1.00
H1051  H     0.68991   0.93976   0.40752   0.00000  Uiso   1.00
H1052  H     0.94799   0.72334   0.52517   0.00000  Uiso   1.00
N1053  N     0.69110   0.96629   0.10179   0.00000  Uiso   1.00
N1054  N     0.55949   0.71735   0.39834   0.00000  Uiso   1.00
N1055  N     0.77996   0.93933   0.60127   0.00000  Uiso   1.00
N1056  N     0.78371   0.55890   0.39821   0.00000  Uiso   1.00
N1057  N     0.55949   0.78199   0.60146   0.00000  Uiso   1.00
N1058  N     0.94048   0.78195   0.39854   0.00000  Uiso   1.00
N1059  N     0.71992   0.56065   0.60131   0.00000  Uiso   1.00
N1060  N     0.71709   0.94105   0.39847   0.00000  Uiso   1.00
N1061  N     0.81067   0.97004   0.89873   0.00000  Uiso   1.00
N1062  N     0.53186   0.69048   0.10141   0.00000  Uiso   1.00
N1063  N     0.53277   0.80947   0.89829   0.00000  Uiso   1.00
N1064  N     0.80895   0.53292   0.10153   0.00000  Uiso   1.00
N1065  N     0.68935   0.53008   0.89868   0.00000  Uiso   1.00
N1066  N     0.96719   0.80945   0.10172   0.00000  Uiso   1.00
N1067  N     0.96817   0.69046   0.89859   0.00000  Uiso   1.00
N1068  N     0.94053   0.71731   0.60166   0.00000  Uiso   1.00
O1069  O     0.75000   0.50000   0.25000   0.00000  Uiso   1.00
O1070  O     0.75000   0.96964   0.66317   0.00000  Uiso   1.00
O1071  O     0.96964   0.75000   0.33683   0.00000  Uiso   1.00
O1072  O     0.53036   0.75000   0.66317   0.00000  Uiso   1.00
O1073  O     0.50000   0.71964   0.83683   0.00000  Uiso   1.00
O1074  O     0.50000   0.78036   0.16317   0.00000  Uiso   1.00
O1075  O     0.78036   0.50000   0.83683   0.00000  Uiso   1.00
O1076  O     0.71964   0.50000   0.16317   0.00000  Uiso   1.00
O1077  O     0.50000   0.78036   0.83683   0.00000  Uiso   1.00
O1078  O     0.50000   0.71964   0.16317   0.00000  Uiso   1.00
O1079  O     0.71964   0.50000   0.83683   0.00000  Uiso   1.00
O1080  O     0.75000   0.50000   0.75000   0.00000  Uiso   1.00
O1081  O     0.78036   0.50000   0.16317   0.00000  Uiso   1.00
O1082  O     0.70725   0.57307   0.27282   0.00000  Uiso   1.00
O1083  O     0.79274   0.92693   0.72718   0.00000  Uiso   1.00
O1084  O     0.92693   0.70725   0.27282   0.00000  Uiso   1.00
O1085  O     0.57307   0.79274   0.72718   0.00000  Uiso   1.00
O1086  O     0.79274   0.92693   0.27282   0.00000  Uiso   1.00
O1087  O     0.70725   0.57307   0.72718   0.00000  Uiso   1.00
O1088  O     0.57307   0.79274   0.27282   0.00000  Uiso   1.00
O1089  O     0.92693   0.70725   0.72718   0.00000  Uiso   1.00
O1090  O     0.70725   0.92693   0.72718   0.00000  Uiso   1.00
O1091  O     0.50000   0.75000   0.25000   0.00000  Uiso   1.00
O1092  O     0.79274   0.57307   0.27282   0.00000  Uiso   1.00
O1093  O     0.92693   0.79274   0.72718   0.00000  Uiso   1.00
O1094  O     0.57307   0.70725   0.27282   0.00000  Uiso   1.00
O1095  O     0.79274   0.57307   0.72718   0.00000  Uiso   1.00
O1096  O     0.70725   0.92693   0.27282   0.00000  Uiso   1.00
O1097  O     0.57307   0.70725   0.72718   0.00000  Uiso   1.00
O1098  O     0.92693   0.79274   0.27282   0.00000  Uiso   1.00
O1099  O     0.95725   0.82307   0.77282   0.00000  Uiso   1.00
O1100  O     0.54274   0.67693   0.22718   0.00000  Uiso   1.00
O1101  O     0.67693   0.95725   0.77282   0.00000  Uiso   1.00
O1102  O     0.50000   0.75000   0.75000   0.00000  Uiso   1.00
O1103  O     0.82307   0.54274   0.22718   0.00000  Uiso   1.00
O1104  O     0.54274   0.67693   0.77282   0.00000  Uiso   1.00
O1105  O     0.95725   0.82307   0.22718   0.00000  Uiso   1.00
O1106  O     0.82307   0.54274   0.77282   0.00000  Uiso   1.00
O1107  O     0.67693   0.95725   0.22718   0.00000  Uiso   1.00
O1108  O     0.95725   0.67693   0.22718   0.00000  Uiso   1.00
O1109  O     0.54274   0.82307   0.77282   0.00000  Uiso   1.00
O1110  O     0.67693   0.54274   0.22718   0.00000  Uiso   1.00
O1111  O     0.82307   0.95725   0.77282   0.00000  Uiso   1.00
O1112  O     0.54274   0.82307   0.22718   0.00000  Uiso   1.00
O1113  O     0.75000   0.96964   0.33683   0.00000  Uiso   1.00
O1114  O     0.95725   0.67693   0.77282   0.00000  Uiso   1.00
O1115  O     0.82307   0.95725   0.22718   0.00000  Uiso   1.00
O1116  O     0.67693   0.54274   0.77282   0.00000  Uiso   1.00
O1117  O     0.75000   0.53036   0.66317   0.00000  Uiso   1.00
O1118  O     0.53036   0.75000   0.33683   0.00000  Uiso   1.00
O1119  O     0.96964   0.75000   0.66317   0.00000  Uiso   1.00
O1120  O     0.75000   0.53036   0.33683   0.00000  Uiso   1.00
Zn1121 Zn    0.70660   0.50000   0.21760   0.00000  Uiso   1.00
Zn1122 Zn    0.54340   0.75000   0.28240   0.00000  Uiso   1.00
Zn1123 Zn    0.75000   0.95660   0.71760   0.00000  Uiso   1.00
Zn1124 Zn    0.75000   0.54340   0.28240   0.00000  Uiso   1.00
Zn1125 Zn    0.54340   0.75000   0.71760   0.00000  Uiso   1.00
Zn1126 Zn    0.95660   0.75000   0.28240   0.00000  Uiso   1.00
Zn1127 Zn    0.75000   0.54340   0.71760   0.00000  Uiso   1.00
Zn1128 Zn    0.75000   0.95660   0.28240   0.00000  Uiso   1.00
Zn1129 Zn    0.79340   0.50000   0.78240   0.00000  Uiso   1.00
Zn1130 Zn    0.50000   0.70660   0.21760   0.00000  Uiso   1.00
Zn1131 Zn    0.50000   0.79340   0.78240   0.00000  Uiso   1.00
Zn1132 Zn    0.79340   0.50000   0.21760   0.00000  Uiso   1.00
Zn1133 Zn    0.70660   0.50000   0.78240   0.00000  Uiso   1.00
Zn1134 Zn    0.50000   0.79340   0.21760   0.00000  Uiso   1.00
Zn1135 Zn    0.50000   0.70660   0.78240   0.00000  Uiso   1.00
Zn1136 Zn    0.95660   0.75000   0.71760   0.00000  Uiso   1.00
loop_
_geom_bond_atom_site_label_1
_geom_bond_atom_site_label_2
_geom_bond_distance
_geom_bond_site_symmetry_2
_ccdc_geom_bond_type
C1     H121    1.084   .     S
C1     C30     1.399   .     A
C1     C616    1.396   .     S
C2     H122    1.084   .     S
C2     C53     1.396   .     A
C2     C40     1.399   .     A
C3     C103    1.402   .     A
C3     C96     1.402   .     A
C3     C67     1.455   .     S
C4     C68     1.455   .     S
C4     C95     1.402   .     A
C4     C106    1.402   .     A
C5     C94     1.402   .     A
C5     C69     1.455   .     S
C5     C105    1.402   .     A
C6     C93     1.402   .     A
C6     C70     1.455   .     S
C6     C108    1.402   .     A
C7     C71     1.455   .     S
C7     C92     1.402   .     A
C7     C107    1.402   .     A
C8     C81     1.455   .     S
C8     C111    1.402   .     A
C8     C91     1.402   .     A
C9     C82     1.455   .     S
C9     C109    1.402   .     A
C9     C90     1.402   .     A
C10    C89     1.402   .     A
C10    C113    1.402   .     A
C10    C74     1.455   .     S
C11    C87     1.402   .     A
C11    C75     1.455   .     S
C11    C112    1.402   .     A
C12    C115    1.402   .     A
C12    C76     1.455   .     S
C12    C86     1.402   .     A
C13    C41     1.396   .     A
C13    H123    1.084   .     S
C13    C622    1.396   .     A
C14    C85     1.402   .     A
C14    C114    1.402   .     A
C14    C78     1.455   .     S
C15    C79     1.455   .     S
C15    C84     1.402   .     A
C15    C117    1.402   .     A
C16    C116    1.402   .     A
C16    C83     1.402   .     A
C16    C80     1.455   .     S
C17    C64     1.472   .     S
C17    C30     1.417   .     A
C17    C603    1.415   .     S
C18    C36     1.416   .     A
C18    C63     1.474   .     S
C18    C599    1.416   1_545 S
C19    C62     1.473   .     S
C19    C37     1.418   .     A
C19    C316    1.415   .     S
C20    C34     1.418   .     A
C20    C61     1.473   .     S
C20    C322    1.415   1_455 S
C21    C39     1.418   .     A
C21    C344    1.473   .     S
C21    C327    1.415   .     S
C22    C40     1.418   .     A
C22    C59     1.473   .     S
C22    C329    1.415   1_455 S
C23    C41     1.416   .     A
C23    C626    1.474   .     S
C23    C614    1.416   .     S
C24    C42     1.399   .     A
C24    H124    1.084   .     S
C24    C56     1.396   .     A
C25    C57     1.472   .     S
C25    C42     1.417   .     A
C25    C615    1.415   1_545 S
C26    H125    1.084   .     S
C26    C43     1.395   .     A
C26    C336    1.395   1_455 S
C27    H126    1.084   .     S
C27    C45     1.395   .     A
C27    C337    1.395   .     S
C28    C46     1.396   .     A
C28    H127    1.084   .     S
C28    C54     1.396   .     S
C29    C47     1.395   .     A
C29    H128    1.084   .     S
C29    C624    1.395   .     S
C30    N201    1.438   .     S
C31    C33     1.396   .     A
C31    N209    1.433   .     S
C31    C586    1.416   .     S
C32    N210    1.433   .     S
C32    C44     1.395   .     A
C32    C303    1.415   1_455 S
C33    H132    1.084   .     S
C33    C617    1.396   .     S
C34    C55     1.399   .     A
C34    N211    1.438   .     S
C35    C66     1.395   .     A
C35    N212    1.433   .     S
C35    C585    1.415   1_545 S
C36    C77     1.396   .     A
C36    N213    1.433   .     S
C37    C88     1.399   .     A
C37    N214    1.438   .     S
C38    N215    1.433   .     S
C38    C99     1.395   .     A
C38    C304    1.415   .     S
C39    C110    1.399   .     A
C39    N216    1.438   .     S
C40    N202    1.438   .     S
C41    N203    1.433   .     S
C42    N204    1.438   .     S
C43    N205    1.433   .     S
C43    C305    1.415   1_455 S
C44    H143    1.084   .     S
C44    C334    1.395   1_455 S
C45    N206    1.433   .     S
C45    C306    1.415   .     S
C46    N207    1.433   .     S
C46    C591    1.416   1_545 S
C47    N208    1.433   .     S
C47    C593    1.415   .     S
C48    C66     1.395   .     A
C48    C569    1.396   1_545 S
C48    C49     1.462   1_554 S
C49    C77     1.396   .     A
C49    C48     1.462   1_556 S
C49    C601    1.396   1_545 S
C50    C88     1.396   .     A
C50    C328    1.395   .     S
C50    C335    1.462   1_554 S
C51    C55     1.396   .     A
C51    C334    1.462   1_456 S
C51    C383    1.395   1_455 S
C52    C110    1.396   .     A
C52    C310    1.395   .     S
C52    C337    1.462   .     S
C53    C311    1.395   1_455 S
C53    C336    1.462   1_455 S
C54    C581    1.396   1_545 A
C54    C56     1.462   .     S
C55    H154    1.084   .     S
C56    C597    1.395   1_545 S
C57    O268    1.283   .     A
C57    O829    1.283   1_545 S
C58    O786    1.283   1_545 A
C58    C591    1.474   1_545 S
C58    O265    1.283   .     S
C59    O266    1.283   .     A
C59    O503    1.283   1_455 S
C60    C305    1.473   1_455 S
C60    O551    1.283   1_455 A
C60    O220    1.283   .     S
C61    O225    1.283   .     A
C61    O221    1.283   .     S
C62    O506    1.283   .     A
C62    O510    1.283   .     A
C63    O223    1.283   .     A
C63    O227    1.283   .     A
C64    O792    1.283   .     S
C64    O797    1.283   .     S
C65    O230    1.280   .     A
C65    O258    1.280   .     A
C65    C120    1.455   .     S
C66    H165    1.084   .     S
C67    O231    1.280   .     A
C67    O259    1.280   .     A
C68    O256    1.280   .     A
C68    O232    1.280   .     A
C69    O233    1.280   .     A
C69    O257    1.280   .     A
C70    O234    1.280   .     A
C70    O263    1.280   .     A
C71    O235    1.280   .     A
C71    O264    1.280   .     A
C72    O260    1.280   .     A
C72    O236    1.280   .     A
C72    C118    1.455   .     S
C73    C119    1.455   .     S
C73    O237    1.280   .     A
C73    O262    1.280   .     A
C74    O238    1.280   .     A
C74    O249    1.280   .     A
C75    O240    1.280   .     A
C75    O251    1.280   .     A
C76    O241    1.280   .     A
C76    O247    1.280   .     A
C77    H176    1.084   .     S
C78    O242    1.280   .     A
C78    O248    1.280   .     A
C79    O243    1.280   .     A
C79    O254    1.280   .     A
C80    O255    1.280   .     A
C80    O244    1.280   .     A
C81    O245    1.280   .     A
C81    O252    1.280   .     A
C82    O253    1.280   .     A
C82    O246    1.280   .     A
C83    H129    1.083   .     S
C83    C100    1.386   .     A
C84    C98     1.386   .     A
C84    H130    1.083   .     S
C85    H131    1.083   .     S
C85    C97     1.386   .     A
C86    C96     1.386   .     A
C86    H133    1.083   .     S
C87    H134    1.083   .     S
C87    C95     1.386   .     A
C88    H187    1.084   .     S
C89    H135    1.083   .     S
C89    C94     1.386   .     A
C90    H136    1.083   .     S
C90    C93     1.386   .     A
C91    H137    1.083   .     S
C91    C92     1.386   .     A
C92    H138    1.083   .     S
C93    H139    1.083   .     S
C94    H140    1.083   .     S
C95    H141    1.083   .     S
C96    H142    1.083   .     S
C97    H144    1.083   .     S
C97    C120    1.402   .     A
C98    C119    1.402   .     A
C98    H145    1.083   .     S
C99    H198    1.084   .     S
C99    C335    1.395   .     S
C100   H146    1.083   .     S
C100   C118    1.402   .     A
C101   C119    1.402   .     A
C101   H147    1.083   .     S
C101   C117    1.386   .     A
C102   H148    1.083   .     S
C102   C118    1.402   .     A
C102   C116    1.386   .     A
C103   C115    1.386   .     A
C103   H149    1.083   .     S
C104   H150    1.083   .     S
C104   C114    1.386   .     A
C104   C120    1.402   .     A
C105   C113    1.386   .     A
C105   H151    1.083   .     S
C106   C112    1.386   .     A
C106   H152    1.083   .     S
C107   H153    1.083   .     S
C107   C111    1.386   .     A
C108   C109    1.386   .     A
C108   H155    1.083   .     S
C109   H156    1.083   .     S
C110   H200    1.084   .     S
C111   H157    1.083   .     S
C112   H158    1.083   .     S
C113   H159    1.083   .     S
C114   H160    1.083   .     S
C115   H161    1.083   .     S
C116   H162    1.083   .     S
C117   H163    1.083   .     S
H164   N201    1.046   .     S
H166   N201    1.046   .     S
H167   N209    1.046   .     S
H168   N209    1.046   .     S
H169   N210    1.046   .     S
H170   N210    1.046   .     S
H171   N211    1.046   .     S
H172   N211    1.046   .     S
H173   N212    1.046   .     S
H174   N212    1.046   .     S
H175   N213    1.046   .     S
H177   N213    1.046   .     S
H178   N214    1.046   .     S
H179   N214    1.046   .     S
H180   N215    1.046   .     S
H181   N215    1.046   .     S
H182   N216    1.046   .     S
H183   N216    1.046   .     S
H184   N202    1.046   .     S
H185   N202    1.046   .     S
H186   N203    1.046   .     S
H188   N203    1.046   .     S
H189   N204    1.046   .     S
H190   N204    1.046   .     S
H191   N205    1.046   .     S
H192   N205    1.046   .     S
H193   N206    1.046   .     S
H194   N206    1.046   .     S
H195   N207    1.046   .     S
H196   N207    1.046   .     S
H197   N208    1.046   .     S
H199   N208    1.046   .     S
O217   Zn272   1.947   .     S
O217   Zn269   1.947   .     S
O217   Zn844   1.947   1_545 S
O217   Zn280   1.947   .     S
O218   C626    1.283   .     A
O218   Zn271   1.943   .     S
O219   Zn274   1.943   .     S
O219   C343    1.283   .     S
O220   Zn273   1.943   .     S
O221   Zn283   1.943   .     S
O222   Zn282   1.943   .     S
O222   C346    1.283   1_455 A
O223   Zn277   1.943   .     S
O224   C632    1.283   1_545 S
O224   Zn269   1.943   .     S
O225   Zn279   1.943   .     S
O226   Zn278   1.943   .     S
O226   C346    1.283   1_455 A
O227   Zn281   1.943   .     S
O228   Zn281   1.947   .     S
O228   Zn839   1.947   1_545 S
O228   Zn277   1.947   .     S
O228   Zn275   1.947   .     S
O229   C632    1.283   1_545 S
O229   Zn280   1.943   .     S
O230   Zn272   1.936   .     S
O231   Zn271   1.936   .     S
O232   Zn274   1.936   .     S
O233   Zn273   1.936   .     S
O234   Zn276   1.936   .     S
O235   Zn275   1.936   .     S
O236   Zn270   1.936   .     S
O237   Zn284   1.936   .     S
O238   Zn271   1.936   .     S
O239   Zn270   1.947   .     S
O239   Zn558   1.947   1_455 S
O239   Zn278   1.947   .     S
O239   Zn282   1.947   .     S
O240   Zn272   1.936   .     S
O241   Zn284   1.936   .     S
O242   Zn270   1.936   .     S
O243   Zn275   1.936   .     S
O244   Zn276   1.936   .     S
O245   Zn273   1.936   .     S
O246   Zn274   1.936   .     S
O247   Zn563   1.936   .     S
O248   Zn278   1.936   .     S
O249   Zn849   1.936   .     S
O250   Zn273   1.947   .     S
O250   Zn279   1.947   .     S
O250   Zn283   1.947   .     S
O250   Zn568   1.947   1_455 S
O251   Zn280   1.936   .     S
O252   Zn283   1.936   .     S
O253   Zn566   1.936   .     S
O254   Zn277   1.936   .     S
O255   Zn837   1.936   .     S
O256   Zn562   1.936   .     S
O257   Zn279   1.936   .     S
O258   Zn269   1.936   .     S
O259   Zn845   1.936   .     S
O260   Zn282   1.936   .     S
O261   Zn276   1.943   .     S
O261   C625    1.283   .     S
O262   Zn567   1.936   .     S
O263   Zn848   1.936   .     S
O264   Zn281   1.936   .     S
O265   Zn275   1.943   .     S
O266   Zn270   1.943   .     S
O267   C344    1.283   .     A
O267   Zn284   1.943   .     S
O268   Zn272   1.943   .     S
Zn269  O823    1.936   1_545 S
Zn271  O796    1.947   .     S
Zn274  O523    1.947   .     S
Zn276  O785    1.947   .     S
Zn277  O827    1.936   1_545 S
Zn278  O540    1.936   1_455 S
Zn279  O531    1.936   1_455 S
Zn280  O831    1.936   1_545 S
Zn281  O817    1.936   1_545 S
Zn282  O537    1.936   1_455 S
Zn283  O546    1.936   1_455 S
Zn284  O534    1.947   .     S
C285   H405    1.084   .     S
C285   C314    1.399   .     A
C285   C900    1.396   .     S
C286   H406    1.084   .     S
C286   C337    1.396   .     A
C286   C324    1.399   .     A
C287   C387    1.402   .     A
C287   C380    1.402   .     A
C287   C351    1.455   .     S
C288   C352    1.455   .     S
C288   C379    1.402   .     A
C288   C390    1.402   .     A
C289   C378    1.402   .     A
C289   C353    1.455   .     S
C289   C389    1.402   .     A
C290   C377    1.402   .     A
C290   C354    1.455   .     S
C290   C392    1.402   .     A
C291   C355    1.455   .     S
C291   C376    1.402   .     A
C291   C391    1.402   .     A
C292   C365    1.455   .     S
C292   C395    1.402   .     A
C292   C375    1.402   .     A
C293   C366    1.455   .     S
C293   C393    1.402   .     A
C293   C374    1.402   .     A
C294   C373    1.402   .     A
C294   C397    1.402   .     A
C294   C358    1.455   .     S
C295   C371    1.402   .     A
C295   C359    1.455   .     S
C295   C396    1.402   .     A
C296   C399    1.402   .     A
C296   C360    1.455   .     S
C296   C370    1.402   .     A
C297   C325    1.396   .     A
C297   H407    1.084   .     S
C297   C906    1.396   .     A
C298   C369    1.402   .     A
C298   C398    1.402   .     A
C298   C362    1.455   .     S
C299   C363    1.455   .     S
C299   C368    1.402   .     A
C299   C401    1.402   .     A
C300   C400    1.402   .     A
C300   C367    1.402   .     A
C300   C364    1.455   .     S
C301   C348    1.472   .     S
C301   C314    1.417   .     A
C301   C887    1.415   .     S
C302   C320    1.416   .     A
C302   C347    1.474   .     S
C302   C883    1.416   1_545 S
C303   C346    1.473   .     S
C303   C321    1.418   .     A
C303   C32     1.415   1_655 S
C304   C318    1.418   .     A
C304   C345    1.473   .     S
C305   C323    1.418   .     A
C305   C60     1.473   1_655 S
C305   C43     1.415   1_655 S
C306   C324    1.418   .     A
C306   C343    1.473   .     S
C307   C325    1.416   .     A
C307   C910    1.474   .     S
C307   C898    1.416   .     S
C308   C326    1.399   .     A
C308   H408    1.084   .     S
C308   C340    1.396   .     A
C309   C341    1.472   .     S
C309   C326    1.417   .     A
C309   C899    1.415   1_545 S
C310   H409    1.084   .     S
C310   C327    1.395   .     A
C311   H410    1.084   .     S
C311   C329    1.395   .     A
C311   C53     1.395   1_655 S
C312   C330    1.396   .     A
C312   H411    1.084   .     S
C312   C338    1.396   .     S
C313   C331    1.395   .     A
C313   H412    1.084   .     S
C313   C908    1.395   .     S
C314   N485    1.438   .     S
C315   C317    1.396   .     A
C315   N493    1.433   .     S
C315   C870    1.416   .     S
C316   N494    1.433   .     S
C316   C328    1.395   .     A
C317   H416    1.084   .     S
C317   C901    1.396   .     S
C318   C339    1.399   .     A
C318   N495    1.438   .     S
C319   C350    1.395   .     A
C319   N496    1.433   .     S
C319   C869    1.415   1_545 S
C320   C361    1.396   .     A
C320   N497    1.433   .     S
C321   C372    1.399   .     A
C321   N498    1.438   .     S
C322   N499    1.433   .     S
C322   C383    1.395   .     A
C322   C20     1.415   1_655 S
C323   C394    1.399   .     A
C323   N500    1.438   .     S
C324   N486    1.438   .     S
C325   N487    1.433   .     S
C326   N488    1.438   .     S
C327   N489    1.433   .     S
C328   H427    1.084   .     S
C329   N490    1.433   .     S
C329   C22     1.415   1_655 S
C330   N491    1.433   .     S
C330   C875    1.416   1_545 S
C331   N492    1.433   .     S
C331   C877    1.415   .     S
C332   C350    1.395   .     A
C332   C853    1.396   1_545 S
C332   C333    1.462   1_554 S
C333   C361    1.396   .     A
C333   C332    1.462   1_556 S
C333   C885    1.396   1_545 S
C334   C372    1.396   .     A
C334   C44     1.395   1_655 S
C334   C51     1.462   1_654 S
C335   C339    1.396   .     A
C335   C50     1.462   1_556 S
C336   C394    1.396   .     A
C336   C26     1.395   1_655 S
C336   C53     1.462   1_655 S
C338   C865    1.396   1_545 A
C338   C340    1.462   .     S
C339   H438    1.084   .     S
C340   C881    1.395   1_545 S
C341   O552    1.283   .     A
C341   O1113   1.283   1_545 S
C342   O1070   1.283   1_545 A
C342   C875    1.474   1_545 S
C342   O549    1.283   .     S
C343   O550    1.283   .     A
C344   O504    1.283   .     S
C345   O509    1.283   .     A
C345   O505    1.283   .     S
C346   O222    1.283   1_655 A
C346   O226    1.283   1_655 A
C347   O507    1.283   .     A
C347   O511    1.283   .     A
C348   O1076   1.283   .     S
C348   O1081   1.283   .     S
C349   O514    1.280   .     A
C349   O542    1.280   .     A
C349   C404    1.455   .     S
C350   H449    1.084   .     S
C351   O515    1.280   .     A
C351   O543    1.280   .     A
C352   O540    1.280   .     A
C352   O516    1.280   .     A
C353   O517    1.280   .     A
C353   O541    1.280   .     A
C354   O518    1.280   .     A
C354   O547    1.280   .     A
C355   O519    1.280   .     A
C355   O548    1.280   .     A
C356   O544    1.280   .     A
C356   O520    1.280   .     A
C356   C402    1.455   .     S
C357   C403    1.455   .     S
C357   O521    1.280   .     A
C357   O546    1.280   .     A
C358   O522    1.280   .     A
C358   O533    1.280   .     A
C359   O524    1.280   .     A
C359   O535    1.280   .     A
C360   O525    1.280   .     A
C360   O531    1.280   .     A
C361   H460    1.084   .     S
C362   O526    1.280   .     A
C362   O532    1.280   .     A
C363   O527    1.280   .     A
C363   O538    1.280   .     A
C364   O539    1.280   .     A
C364   O528    1.280   .     A
C365   O529    1.280   .     A
C365   O536    1.280   .     A
C366   O537    1.280   .     A
C366   O530    1.280   .     A
C367   H413    1.083   .     S
C367   C384    1.386   .     A
C368   C382    1.386   .     A
C368   H414    1.083   .     S
C369   H415    1.083   .     S
C369   C381    1.386   .     A
C370   C380    1.386   .     A
C370   H417    1.083   .     S
C371   H418    1.083   .     S
C371   C379    1.386   .     A
C372   H471    1.084   .     S
C373   H419    1.083   .     S
C373   C378    1.386   .     A
C374   H420    1.083   .     S
C374   C377    1.386   .     A
C375   H421    1.083   .     S
C375   C376    1.386   .     A
C376   H422    1.083   .     S
C377   H423    1.083   .     S
C378   H424    1.083   .     S
C379   H425    1.083   .     S
C380   H426    1.083   .     S
C381   H428    1.083   .     S
C381   C404    1.402   .     A
C382   C403    1.402   .     A
C382   H429    1.083   .     S
C383   H482    1.084   .     S
C383   C51     1.395   1_655 S
C384   H430    1.083   .     S
C384   C402    1.402   .     A
C385   C403    1.402   .     A
C385   H431    1.083   .     S
C385   C401    1.386   .     A
C386   H432    1.083   .     S
C386   C402    1.402   .     A
C386   C400    1.386   .     A
C387   C399    1.386   .     A
C387   H433    1.083   .     S
C388   H434    1.083   .     S
C388   C398    1.386   .     A
C388   C404    1.402   .     A
C389   C397    1.386   .     A
C389   H435    1.083   .     S
C390   C396    1.386   .     A
C390   H436    1.083   .     S
C391   H437    1.083   .     S
C391   C395    1.386   .     A
C392   C393    1.386   .     A
C392   H439    1.083   .     S
C393   H440    1.083   .     S
C394   H484    1.084   .     S
C395   H441    1.083   .     S
C396   H442    1.083   .     S
C397   H443    1.083   .     S
C398   H444    1.083   .     S
C399   H445    1.083   .     S
C400   H446    1.083   .     S
C401   H447    1.083   .     S
H448   N485    1.046   .     S
H450   N485    1.046   .     S
H451   N493    1.046   .     S
H452   N493    1.046   .     S
H453   N494    1.046   .     S
H454   N494    1.046   .     S
H455   N495    1.046   .     S
H456   N495    1.046   .     S
H457   N496    1.046   .     S
H458   N496    1.046   .     S
H459   N497    1.046   .     S
H461   N497    1.046   .     S
H462   N498    1.046   .     S
H463   N498    1.046   .     S
H464   N499    1.046   .     S
H465   N499    1.046   .     S
H466   N500    1.046   .     S
H467   N500    1.046   .     S
H468   N486    1.046   .     S
H469   N486    1.046   .     S
H470   N487    1.046   .     S
H472   N487    1.046   .     S
H473   N488    1.046   .     S
H474   N488    1.046   .     S
H475   N489    1.046   .     S
H476   N489    1.046   .     S
H477   N490    1.046   .     S
H478   N490    1.046   .     S
H479   N491    1.046   .     S
H480   N491    1.046   .     S
H481   N492    1.046   .     S
H483   N492    1.046   .     S
O501   Zn556   1.947   .     S
O501   Zn553   1.947   .     S
O501   Zn1128  1.947   1_545 S
O501   Zn564   1.947   .     S
O502   C910    1.283   .     A
O502   Zn555   1.943   .     S
O503   Zn558   1.943   .     S
O503   C59     1.283   1_655 S
O504   Zn557   1.943   .     S
O505   Zn567   1.943   .     S
O506   Zn566   1.943   .     S
O507   Zn561   1.943   .     S
O508   C916    1.283   1_545 S
O508   Zn553   1.943   .     S
O509   Zn563   1.943   .     S
O510   Zn562   1.943   .     S
O511   Zn565   1.943   .     S
O512   Zn565   1.947   .     S
O512   Zn1123  1.947   1_545 S
O512   Zn561   1.947   .     S
O512   Zn559   1.947   .     S
O513   C916    1.283   1_545 S
O513   Zn564   1.943   .     S
O514   Zn556   1.936   .     S
O515   Zn555   1.936   .     S
O516   Zn558   1.936   .     S
O517   Zn557   1.936   .     S
O518   Zn560   1.936   .     S
O519   Zn559   1.936   .     S
O520   Zn554   1.936   .     S
O521   Zn568   1.936   .     S
O522   Zn555   1.936   .     S
O523   Zn554   1.947   .     S
O523   Zn562   1.947   .     S
O523   Zn566   1.947   .     S
O524   Zn556   1.936   .     S
O525   Zn568   1.936   .     S
O526   Zn554   1.936   .     S
O527   Zn559   1.936   .     S
O528   Zn560   1.936   .     S
O529   Zn557   1.936   .     S
O530   Zn558   1.936   .     S
O531   Zn279   1.936   1_655 S
O532   Zn562   1.936   .     S
O533   Zn1133  1.936   .     S
O534   Zn557   1.947   .     S
O534   Zn563   1.947   .     S
O534   Zn567   1.947   .     S
O535   Zn564   1.936   .     S
O536   Zn567   1.936   .     S
O537   Zn282   1.936   1_655 S
O538   Zn561   1.936   .     S
O539   Zn1121  1.936   .     S
O540   Zn278   1.936   1_655 S
O541   Zn563   1.936   .     S
O542   Zn553   1.936   .     S
O543   Zn1129  1.936   .     S
O544   Zn566   1.936   .     S
O545   Zn560   1.943   .     S
O545   C909    1.283   .     S
O546   Zn283   1.936   1_655 S
O547   Zn1132  1.936   .     S
O548   Zn565   1.936   .     S
O549   Zn559   1.943   .     S
O550   Zn554   1.943   .     S
O551   C60     1.283   1_655 A
O551   Zn568   1.943   .     S
O552   Zn556   1.943   .     S
Zn553  O1107   1.936   1_545 S
Zn555  O1080   1.947   .     S
Zn558  O239    1.947   1_655 S
Zn560  O1069   1.947   .     S
Zn561  O1111   1.936   1_545 S
Zn564  O1115   1.936   1_545 S
Zn565  O1101   1.936   1_545 S
Zn568  O250    1.947   1_655 S
C569   H689    1.084   .     S
C569   C598    1.399   .     A
C569   C48     1.396   1_565 S
C570   H690    1.084   .     S
C570   C621    1.396   .     A
C570   C608    1.399   .     A
C571   C671    1.402   .     A
C571   C664    1.402   .     A
C571   C635    1.455   .     S
C572   C636    1.455   .     S
C572   C663    1.402   .     A
C572   C674    1.402   .     A
C573   C662    1.402   .     A
C573   C637    1.455   .     S
C573   C673    1.402   .     A
C574   C661    1.402   .     A
C574   C638    1.455   .     S
C574   C676    1.402   .     A
C575   C639    1.455   .     S
C575   C660    1.402   .     A
C575   C675    1.402   .     A
C576   C649    1.455   .     S
C576   C679    1.402   .     A
C576   C659    1.402   .     A
C577   C650    1.455   .     S
C577   C677    1.402   .     A
C577   C658    1.402   .     A
C578   C657    1.402   .     A
C578   C681    1.402   .     A
C578   C642    1.455   .     S
C579   C655    1.402   .     A
C579   C643    1.455   .     S
C579   C680    1.402   .     A
C580   C683    1.402   .     A
C580   C644    1.455   .     S
C580   C654    1.402   .     A
C581   C609    1.396   .     A
C581   H691    1.084   .     S
C581   C54     1.396   1_565 A
C582   C653    1.402   .     A
C582   C682    1.402   .     A
C582   C646    1.455   .     S
C583   C647    1.455   .     S
C583   C652    1.402   .     A
C583   C685    1.402   .     A
C584   C684    1.402   .     A
C584   C651    1.402   .     A
C584   C648    1.455   .     S
C585   C632    1.472   .     S
C585   C598    1.417   .     A
C585   C35     1.415   1_565 S
C586   C604    1.416   .     A
C586   C631    1.474   .     S
C587   C630    1.473   .     S
C587   C605    1.418   .     A
C587   C884    1.415   .     S
C588   C602    1.418   .     A
C588   C629    1.473   .     S
C588   C890    1.415   1_455 S
C589   C607    1.418   .     A
C589   C912    1.473   .     S
C589   C895    1.415   .     S
C590   C608    1.418   .     A
C590   C627    1.473   .     S
C590   C897    1.415   1_455 S
C591   C609    1.416   .     A
C591   C58     1.474   1_565 S
C591   C46     1.416   1_565 S
C592   C610    1.399   .     A
C592   H692    1.084   .     S
C592   C624    1.396   .     A
C593   C625    1.472   .     S
C593   C610    1.417   .     A
C594   H693    1.084   .     S
C594   C611    1.395   .     A
C594   C904    1.395   1_455 S
C595   H694    1.084   .     S
C595   C613    1.395   .     A
C595   C905    1.395   .     S
C596   C614    1.396   .     A
C596   H695    1.084   .     S
C596   C622    1.396   .     S
C597   C615    1.395   .     A
C597   H696    1.084   .     S
C597   C56     1.395   1_565 S
C598   N769    1.438   .     S
C599   C601    1.396   .     A
C599   N777    1.433   .     S
C599   C18     1.416   1_565 S
C600   N778    1.433   .     S
C600   C612    1.395   .     A
C600   C871    1.415   1_455 S
C601   H700    1.084   .     S
C601   C49     1.396   1_565 S
C602   C623    1.399   .     A
C602   N779    1.438   .     S
C603   C634    1.395   .     A
C603   N780    1.433   .     S
C604   C645    1.396   .     A
C604   N781    1.433   .     S
C605   C656    1.399   .     A
C605   N782    1.438   .     S
C606   N783    1.433   .     S
C606   C667    1.395   .     A
C606   C872    1.415   .     S
C607   C678    1.399   .     A
C607   N784    1.438   .     S
C608   N770    1.438   .     S
C609   N771    1.433   .     S
C610   N772    1.438   .     S
C611   N773    1.433   .     S
C611   C873    1.415   1_455 S
C612   H711    1.084   .     S
C612   C902    1.395   1_455 S
C613   N774    1.433   .     S
C613   C874    1.415   .     S
C614   N775    1.433   .     S
C615   N776    1.433   .     S
C615   C25     1.415   1_565 S
C616   C634    1.395   .     A
C616   C617    1.462   1_554 S
C617   C645    1.396   .     A
C617   C616    1.462   1_556 S
C618   C656    1.396   .     A
C618   C896    1.395   .     S
C618   C903    1.462   1_554 S
C619   C623    1.396   .     A
C619   C902    1.462   1_456 S
C619   C951    1.395   1_455 S
C620   C678    1.396   .     A
C620   C878    1.395   .     S
C620   C905    1.462   .     S
C621   C879    1.395   1_455 S
C621   C904    1.462   1_455 S
C622   C624    1.462   .     S
C623   H722    1.084   .     S
C625   O836    1.283   .     A
C626   O833    1.283   .     S
C627   O834    1.283   .     A
C627   O1071   1.283   1_455 S
C628   C873    1.473   1_455 S
C628   O1119   1.283   1_455 A
C628   O788    1.283   .     S
C629   O793    1.283   .     A
C629   O789    1.283   .     S
C630   O1074   1.283   .     A
C630   O1078   1.283   .     A
C631   O791    1.283   .     A
C631   O795    1.283   .     A
C632   O224    1.283   1_565 S
C632   O229    1.283   1_565 S
C633   O798    1.280   .     A
C633   O826    1.280   .     A
C633   C688    1.455   .     S
C634   H733    1.084   .     S
C635   O799    1.280   .     A
C635   O827    1.280   .     A
C636   O824    1.280   .     A
C636   O800    1.280   .     A
C637   O801    1.280   .     A
C637   O825    1.280   .     A
C638   O802    1.280   .     A
C638   O831    1.280   .     A
C639   O803    1.280   .     A
C639   O832    1.280   .     A
C640   O828    1.280   .     A
C640   O804    1.280   .     A
C640   C686    1.455   .     S
C641   C687    1.455   .     S
C641   O805    1.280   .     A
C641   O830    1.280   .     A
C642   O806    1.280   .     A
C642   O817    1.280   .     A
C643   O808    1.280   .     A
C643   O819    1.280   .     A
C644   O809    1.280   .     A
C644   O815    1.280   .     A
C645   H744    1.084   .     S
C646   O810    1.280   .     A
C646   O816    1.280   .     A
C647   O811    1.280   .     A
C647   O822    1.280   .     A
C648   O823    1.280   .     A
C648   O812    1.280   .     A
C649   O813    1.280   .     A
C649   O820    1.280   .     A
C650   O821    1.280   .     A
C650   O814    1.280   .     A
C651   H697    1.083   .     S
C651   C668    1.386   .     A
C652   C666    1.386   .     A
C652   H698    1.083   .     S
C653   H699    1.083   .     S
C653   C665    1.386   .     A
C654   C664    1.386   .     A
C654   H701    1.083   .     S
C655   H702    1.083   .     S
C655   C663    1.386   .     A
C656   H755    1.084   .     S
C657   H703    1.083   .     S
C657   C662    1.386   .     A
C658   H704    1.083   .     S
C658   C661    1.386   .     A
C659   H705    1.083   .     S
C659   C660    1.386   .     A
C660   H706    1.083   .     S
C661   H707    1.083   .     S
C662   H708    1.083   .     S
C663   H709    1.083   .     S
C664   H710    1.083   .     S
C665   H712    1.083   .     S
C665   C688    1.402   .     A
C666   C687    1.402   .     A
C666   H713    1.083   .     S
C667   H766    1.084   .     S
C667   C903    1.395   .     S
C668   H714    1.083   .     S
C668   C686    1.402   .     A
C669   C687    1.402   .     A
C669   H715    1.083   .     S
C669   C685    1.386   .     A
C670   H716    1.083   .     S
C670   C686    1.402   .     A
C670   C684    1.386   .     A
C671   C683    1.386   .     A
C671   H717    1.083   .     S
C672   H718    1.083   .     S
C672   C682    1.386   .     A
C672   C688    1.402   .     A
C673   C681    1.386   .     A
C673   H719    1.083   .     S
C674   C680    1.386   .     A
C674   H720    1.083   .     S
C675   H721    1.083   .     S
C675   C679    1.386   .     A
C676   C677    1.386   .     A
C676   H723    1.083   .     S
C677   H724    1.083   .     S
C678   H768    1.084   .     S
C679   H725    1.083   .     S
C680   H726    1.083   .     S
C681   H727    1.083   .     S
C682   H728    1.083   .     S
C683   H729    1.083   .     S
C684   H730    1.083   .     S
C685   H731    1.083   .     S
H732   N769    1.046   .     S
H734   N769    1.046   .     S
H735   N777    1.046   .     S
H736   N777    1.046   .     S
H737   N778    1.046   .     S
H738   N778    1.046   .     S
H739   N779    1.046   .     S
H740   N779    1.046   .     S
H741   N780    1.046   .     S
H742   N780    1.046   .     S
H743   N781    1.046   .     S
H745   N781    1.046   .     S
H746   N782    1.046   .     S
H747   N782    1.046   .     S
H748   N783    1.046   .     S
H749   N783    1.046   .     S
H750   N784    1.046   .     S
H751   N784    1.046   .     S
H752   N770    1.046   .     S
H753   N770    1.046   .     S
H754   N771    1.046   .     S
H756   N771    1.046   .     S
H757   N772    1.046   .     S
H758   N772    1.046   .     S
H759   N773    1.046   .     S
H760   N773    1.046   .     S
H761   N774    1.046   .     S
H762   N774    1.046   .     S
H763   N775    1.046   .     S
H764   N775    1.046   .     S
H765   N776    1.046   .     S
H767   N776    1.046   .     S
O785   Zn840   1.947   .     S
O785   Zn837   1.947   .     S
O785   Zn848   1.947   .     S
O786   C58     1.283   1_565 A
O786   Zn839   1.943   .     S
O787   Zn842   1.943   .     S
O787   C911    1.283   .     S
O788   Zn841   1.943   .     S
O789   Zn851   1.943   .     S
O790   Zn850   1.943   .     S
O790   C914    1.283   1_455 A
O791   Zn845   1.943   .     S
O792   Zn837   1.943   .     S
O793   Zn847   1.943   .     S
O794   Zn846   1.943   .     S
O794   C914    1.283   1_455 A
O795   Zn849   1.943   .     S
O796   Zn849   1.947   .     S
O796   Zn845   1.947   .     S
O796   Zn843   1.947   .     S
O797   Zn848   1.943   .     S
O798   Zn840   1.936   .     S
O799   Zn839   1.936   .     S
O800   Zn842   1.936   .     S
O801   Zn841   1.936   .     S
O802   Zn844   1.936   .     S
O803   Zn843   1.936   .     S
O804   Zn838   1.936   .     S
O805   Zn852   1.936   .     S
O806   Zn839   1.936   .     S
O807   Zn838   1.947   .     S
O807   Zn1126  1.947   1_455 S
O807   Zn846   1.947   .     S
O807   Zn850   1.947   .     S
O808   Zn840   1.936   .     S
O809   Zn852   1.936   .     S
O810   Zn838   1.936   .     S
O811   Zn843   1.936   .     S
O812   Zn844   1.936   .     S
O813   Zn841   1.936   .     S
O814   Zn842   1.936   .     S
O815   Zn1131  1.936   .     S
O816   Zn846   1.936   .     S
O817   Zn281   1.936   1_565 S
O818   Zn841   1.947   .     S
O818   Zn847   1.947   .     S
O818   Zn851   1.947   .     S
O818   Zn1136  1.947   1_455 S
O819   Zn848   1.936   .     S
O820   Zn851   1.936   .     S
O821   Zn1134  1.936   .     S
O822   Zn845   1.936   .     S
O823   Zn269   1.936   1_565 S
O824   Zn1130  1.936   .     S
O825   Zn847   1.936   .     S
O826   Zn837   1.936   .     S
O827   Zn277   1.936   1_565 S
O828   Zn850   1.936   .     S
O829   Zn844   1.943   .     S
O829   C57     1.283   1_565 S
O830   Zn1135  1.936   .     S
O831   Zn280   1.936   1_565 S
O832   Zn849   1.936   .     S
O833   Zn843   1.943   .     S
O834   Zn838   1.943   .     S
O835   C912    1.283   .     A
O835   Zn852   1.943   .     S
O836   Zn840   1.943   .     S
Zn839  O228    1.947   1_565 S
Zn842  O1091   1.947   .     S
Zn844  O217    1.947   1_565 S
Zn846  O1108   1.936   1_455 S
Zn847  O1099   1.936   1_455 S
Zn850  O1105   1.936   1_455 S
Zn851  O1114   1.936   1_455 S
Zn852  O1102   1.947   .     S
C853   H973    1.084   .     S
C853   C882    1.399   .     A
C853   C332    1.396   1_565 S
C854   H974    1.084   .     S
C854   C905    1.396   .     A
C854   C892    1.399   .     A
C855   C955    1.402   .     A
C855   C948    1.402   .     A
C855   C919    1.455   .     S
C856   C920    1.455   .     S
C856   C947    1.402   .     A
C856   C958    1.402   .     A
C857   C946    1.402   .     A
C857   C921    1.455   .     S
C857   C957    1.402   .     A
C858   C945    1.402   .     A
C858   C922    1.455   .     S
C858   C960    1.402   .     A
C859   C923    1.455   .     S
C859   C944    1.402   .     A
C859   C959    1.402   .     A
C860   C933    1.455   .     S
C860   C963    1.402   .     A
C860   C943    1.402   .     A
C861   C934    1.455   .     S
C861   C961    1.402   .     A
C861   C942    1.402   .     A
C862   C941    1.402   .     A
C862   C965    1.402   .     A
C862   C926    1.455   .     S
C863   C939    1.402   .     A
C863   C927    1.455   .     S
C863   C964    1.402   .     A
C864   C967    1.402   .     A
C864   C928    1.455   .     S
C864   C938    1.402   .     A
C865   C893    1.396   .     A
C865   H975    1.084   .     S
C865   C338    1.396   1_565 A
C866   C937    1.402   .     A
C866   C966    1.402   .     A
C866   C930    1.455   .     S
C867   C931    1.455   .     S
C867   C936    1.402   .     A
C867   C969    1.402   .     A
C868   C968    1.402   .     A
C868   C935    1.402   .     A
C868   C932    1.455   .     S
C869   C916    1.472   .     S
C869   C882    1.417   .     A
C869   C319    1.415   1_565 S
C870   C888    1.416   .     A
C870   C915    1.474   .     S
C871   C914    1.473   .     S
C871   C889    1.418   .     A
C871   C600    1.415   1_655 S
C872   C886    1.418   .     A
C872   C913    1.473   .     S
C873   C891    1.418   .     A
C873   C628    1.473   1_655 S
C873   C611    1.415   1_655 S
C874   C892    1.418   .     A
C874   C911    1.473   .     S
C875   C893    1.416   .     A
C875   C342    1.474   1_565 S
C875   C330    1.416   1_565 S
C876   C894    1.399   .     A
C876   H976    1.084   .     S
C876   C908    1.396   .     A
C877   C909    1.472   .     S
C877   C894    1.417   .     A
C878   H977    1.084   .     S
C878   C895    1.395   .     A
C879   H978    1.084   .     S
C879   C897    1.395   .     A
C879   C621    1.395   1_655 S
C880   C898    1.396   .     A
C880   H979    1.084   .     S
C880   C906    1.396   .     S
C881   C899    1.395   .     A
C881   H980    1.084   .     S
C881   C340    1.395   1_565 S
C882   N1053   1.438   .     S
C883   C885    1.396   .     A
C883   N1061   1.433   .     S
C883   C302    1.416   1_565 S
C884   N1062   1.433   .     S
C884   C896    1.395   .     A
C885   H984    1.084   .     S
C885   C333    1.396   1_565 S
C886   C907    1.399   .     A
C886   N1063   1.438   .     S
C887   C918    1.395   .     A
C887   N1064   1.433   .     S
C888   C929    1.396   .     A
C888   N1065   1.433   .     S
C889   C940    1.399   .     A
C889   N1066   1.438   .     S
C890   N1067   1.433   .     S
C890   C951    1.395   .     A
C890   C588    1.415   1_655 S
C891   C962    1.399   .     A
C891   N1068   1.438   .     S
C892   N1054   1.438   .     S
C893   N1055   1.433   .     S
C894   N1056   1.438   .     S
C895   N1057   1.433   .     S
C896   H995    1.084   .     S
C897   N1058   1.433   .     S
C897   C590    1.415   1_655 S
C898   N1059   1.433   .     S
C899   N1060   1.433   .     S
C899   C309    1.415   1_565 S
C900   C918    1.395   .     A
C900   C901    1.462   1_554 S
C901   C929    1.396   .     A
C901   C900    1.462   1_556 S
C902   C940    1.396   .     A
C902   C612    1.395   1_655 S
C902   C619    1.462   1_654 S
C903   C907    1.396   .     A
C903   C618    1.462   1_556 S
C904   C962    1.396   .     A
C904   C594    1.395   1_655 S
C904   C621    1.462   1_655 S
C906   C908    1.462   .     S
C907   H1006   1.084   .     S
C909   O1120   1.283   .     A
C910   O1117   1.283   .     S
C911   O1118   1.283   .     A
C912   O1072   1.283   .     S
C913   O1077   1.283   .     A
C913   O1073   1.283   .     S
C914   O790    1.283   1_655 A
C914   O794    1.283   1_655 A
C915   O1075   1.283   .     A
C915   O1079   1.283   .     A
C916   O508    1.283   1_565 S
C916   O513    1.283   1_565 S
C917   O1082   1.280   .     A
C917   O1110   1.280   .     A
C917   C972    1.455   .     S
C918   H1017   1.084   .     S
C919   O1083   1.280   .     A
C919   O1111   1.280   .     A
C920   O1108   1.280   .     A
C920   O1084   1.280   .     A
C921   O1085   1.280   .     A
C921   O1109   1.280   .     A
C922   O1086   1.280   .     A
C922   O1115   1.280   .     A
C923   O1087   1.280   .     A
C923   O1116   1.280   .     A
C924   O1112   1.280   .     A
C924   O1088   1.280   .     A
C924   C970    1.455   .     S
C925   C971    1.455   .     S
C925   O1089   1.280   .     A
C925   O1114   1.280   .     A
C926   O1090   1.280   .     A
C926   O1101   1.280   .     A
C927   O1092   1.280   .     A
C927   O1103   1.280   .     A
C928   O1093   1.280   .     A
C928   O1099   1.280   .     A
C929   H1028   1.084   .     S
C930   O1094   1.280   .     A
C930   O1100   1.280   .     A
C931   O1095   1.280   .     A
C931   O1106   1.280   .     A
C932   O1107   1.280   .     A
C932   O1096   1.280   .     A
C933   O1097   1.280   .     A
C933   O1104   1.280   .     A
C934   O1105   1.280   .     A
C934   O1098   1.280   .     A
C935   H981    1.083   .     S
C935   C952    1.386   .     A
C936   C950    1.386   .     A
C936   H982    1.083   .     S
C937   H983    1.083   .     S
C937   C949    1.386   .     A
C938   C948    1.386   .     A
C938   H985    1.083   .     S
C939   H986    1.083   .     S
C939   C947    1.386   .     A
C940   H1039   1.084   .     S
C941   H987    1.083   .     S
C941   C946    1.386   .     A
C942   H988    1.083   .     S
C942   C945    1.386   .     A
C943   H989    1.083   .     S
C943   C944    1.386   .     A
C944   H990    1.083   .     S
C945   H991    1.083   .     S
C946   H992    1.083   .     S
C947   H993    1.083   .     S
C948   H994    1.083   .     S
C949   H996    1.083   .     S
C949   C972    1.402   .     A
C950   C971    1.402   .     A
C950   H997    1.083   .     S
C951   H1050   1.084   .     S
C951   C619    1.395   1_655 S
C952   H998    1.083   .     S
C952   C970    1.402   .     A
C953   C971    1.402   .     A
C953   H999    1.083   .     S
C953   C969    1.386   .     A
C954   H1000   1.083   .     S
C954   C970    1.402   .     A
C954   C968    1.386   .     A
C955   C967    1.386   .     A
C955   H1001   1.083   .     S
C956   H1002   1.083   .     S
C956   C966    1.386   .     A
C956   C972    1.402   .     A
C957   C965    1.386   .     A
C957   H1003   1.083   .     S
C958   C964    1.386   .     A
C958   H1004   1.083   .     S
C959   H1005   1.083   .     S
C959   C963    1.386   .     A
C960   C961    1.386   .     A
C960   H1007   1.083   .     S
C961   H1008   1.083   .     S
C962   H1052   1.084   .     S
C963   H1009   1.083   .     S
C964   H1010   1.083   .     S
C965   H1011   1.083   .     S
C966   H1012   1.083   .     S
C967   H1013   1.083   .     S
C968   H1014   1.083   .     S
C969   H1015   1.083   .     S
H1016  N1053   1.046   .     S
H1018  N1053   1.046   .     S
H1019  N1061   1.046   .     S
H1020  N1061   1.046   .     S
H1021  N1062   1.046   .     S
H1022  N1062   1.046   .     S
H1023  N1063   1.046   .     S
H1024  N1063   1.046   .     S
H1025  N1064   1.046   .     S
H1026  N1064   1.046   .     S
H1027  N1065   1.046   .     S
H1029  N1065   1.046   .     S
H1030  N1066   1.046   .     S
H1031  N1066   1.046   .     S
H1032  N1067   1.046   .     S
H1033  N1067   1.046   .     S
H1034  N1068   1.046   .     S
H1035  N1068   1.046   .     S
H1036  N1054   1.046   .     S
H1037  N1054   1.046   .     S
H1038  N1055   1.046   .     S
H1040  N1055   1.046   .     S
H1041  N1056   1.046   .     S
H1042  N1056   1.046   .     S
H1043  N1057   1.046   .     S
H1044  N1057   1.046   .     S
H1045  N1058   1.046   .     S
H1046  N1058   1.046   .     S
H1047  N1059   1.046   .     S
H1048  N1059   1.046   .     S
H1049  N1060   1.046   .     S
H1051  N1060   1.046   .     S
O1069  Zn1124  1.947   .     S
O1069  Zn1121  1.947   .     S
O1069  Zn1132  1.947   .     S
O1070  C342    1.283   1_565 A
O1070  Zn1123  1.943   .     S
O1071  Zn1126  1.943   .     S
O1071  C627    1.283   1_655 S
O1072  Zn1125  1.943   .     S
O1073  Zn1135  1.943   .     S
O1074  Zn1134  1.943   .     S
O1075  Zn1129  1.943   .     S
O1076  Zn1121  1.943   .     S
O1077  Zn1131  1.943   .     S
O1078  Zn1130  1.943   .     S
O1079  Zn1133  1.943   .     S
O1080  Zn1133  1.947   .     S
O1080  Zn1129  1.947   .     S
O1080  Zn1127  1.947   .     S
O1081  Zn1132  1.943   .     S
O1082  Zn1124  1.936   .     S
O1083  Zn1123  1.936   .     S
O1084  Zn1126  1.936   .     S
O1085  Zn1125  1.936   .     S
O1086  Zn1128  1.936   .     S
O1087  Zn1127  1.936   .     S
O1088  Zn1122  1.936   .     S
O1089  Zn1136  1.936   .     S
O1090  Zn1123  1.936   .     S
O1091  Zn1122  1.947   .     S
O1091  Zn1130  1.947   .     S
O1091  Zn1134  1.947   .     S
O1092  Zn1124  1.936   .     S
O1093  Zn1136  1.936   .     S
O1094  Zn1122  1.936   .     S
O1095  Zn1127  1.936   .     S
O1096  Zn1128  1.936   .     S
O1097  Zn1125  1.936   .     S
O1098  Zn1126  1.936   .     S
O1099  Zn847   1.936   1_655 S
O1100  Zn1130  1.936   .     S
O1101  Zn565   1.936   1_565 S
O1102  Zn1125  1.947   .     S
O1102  Zn1131  1.947   .     S
O1102  Zn1135  1.947   .     S
O1103  Zn1132  1.936   .     S
O1104  Zn1135  1.936   .     S
O1105  Zn850   1.936   1_655 S
O1106  Zn1129  1.936   .     S
O1107  Zn553   1.936   1_565 S
O1108  Zn846   1.936   1_655 S
O1109  Zn1131  1.936   .     S
O1110  Zn1121  1.936   .     S
O1111  Zn561   1.936   1_565 S
O1112  Zn1134  1.936   .     S
O1113  Zn1128  1.943   .     S
O1113  C341    1.283   1_565 S
O1114  Zn851   1.936   1_655 S
O1115  Zn564   1.936   1_565 S
O1116  Zn1133  1.936   .     S
O1117  Zn1127  1.943   .     S
O1118  Zn1122  1.943   .     S
O1119  C628    1.283   1_655 A
O1119  Zn1136  1.943   .     S
O1120  Zn1124  1.943   .     S
Zn1123 O512    1.947   1_565 S
Zn1126 O807    1.947   1_655 S
Zn1128 O501    1.947   1_565 S
Zn1136 O818    1.947   1_655 S
