data_str_m2_o1_o10_pcu_sym.153
_audit_creation_date              2020-01-03
_audit_creation_method            'Materials Studio'
_symmetry_space_group_name_H-M    'P1'
_symmetry_Int_Tables_number       1
_symmetry_cell_setting            triclinic
loop_
_symmetry_equiv_pos_as_xyz
  x,y,z
_cell_length_a                    26.1834
_cell_length_b                    32.3340
_cell_length_c                    28.6015
_cell_angle_alpha                 89.9052
_cell_angle_beta                  97.9953
_cell_angle_gamma                 90.1471
loop_
_atom_site_label
_atom_site_type_symbol
_atom_site_fract_x
_atom_site_fract_y
_atom_site_fract_z
_atom_site_U_iso_or_equiv
_atom_site_adp_type
_atom_site_occupancy
C1     C     0.16639   0.08750   0.16666   0.00000  Uiso   1.00
C2     C     0.16666   0.24584   0.16661   0.00000  Uiso   1.00
C3     C     0.06792   0.16667   0.15457   0.00000  Uiso   1.00
C4     C     0.26542   0.16668   0.17877   0.00000  Uiso   1.00
C5     C     0.01262   0.16673   0.14792   0.00000  Uiso   1.00
C6     C     0.32072   0.16666   0.18541   0.00000  Uiso   1.00
C7     C     0.20662   0.02202   0.14934   0.00000  Uiso   1.00
C8     C     0.12478   0.31189   0.18260   0.00000  Uiso   1.00
C9     C     0.20683   0.31188   0.14974   0.00000  Uiso   1.00
C10    C     0.12586   0.02151   0.18356   0.00000  Uiso   1.00
C11    C     0.16587   0.29048   0.16618   0.00000  Uiso   1.00
C12    C     0.16629   0.04288   0.16673   0.00000  Uiso   1.00
C13    C     0.13270   0.14259   0.02049   0.00000  Uiso   1.00
C14    C     0.20063   0.19075   0.31284   0.00000  Uiso   1.00
C15    C     0.13271   0.14260   0.30426   0.00000  Uiso   1.00
C16    C     0.20062   0.19074   0.02908   0.00000  Uiso   1.00
Cu17   Cu    0.16667   0.16667   0.21355   0.00000  Uiso   1.00
Cu18   Cu    0.16667   0.16666   0.11978   0.00000  Uiso   1.00
H19    H     0.32592   0.16685   0.11197   0.00000  Uiso   1.00
H20    H     0.00742   0.16654   0.22136   0.00000  Uiso   1.00
H21    H     0.10553   0.12323   0.03570   0.00000  Uiso   1.00
H22    H     0.22780   0.21010   0.29763   0.00000  Uiso   1.00
H23    H     0.10553   0.12326   0.28218   0.00000  Uiso   1.00
H24    H     0.22780   0.21008   0.05115   0.00000  Uiso   1.00
N25    N     0.16668   0.16668   0.28403   0.00000  Uiso   1.00
N26    N     0.16665   0.16666   0.04931   0.00000  Uiso   1.00
O27    O     0.16666   0.10655   0.20625   0.00000  Uiso   1.00
O28    O     0.16667   0.22678   0.12709   0.00000  Uiso   1.00
O29    O     0.16666   0.10654   0.12706   0.00000  Uiso   1.00
O30    O     0.16667   0.22679   0.20628   0.00000  Uiso   1.00
O31    O     0.09161   0.16667   0.19712   0.00000  Uiso   1.00
O32    O     0.24172   0.16666   0.13621   0.00000  Uiso   1.00
O33    O     0.09161   0.16666   0.11793   0.00000  Uiso   1.00
O34    O     0.24172   0.16667   0.21540   0.00000  Uiso   1.00
O35    O     0.24543   0.04537   0.13383   0.00000  Uiso   1.00
H36    H     0.26922   0.02746   0.11916   0.00000  Uiso   1.00
O37    O     0.08275   0.29223   0.19732   0.00000  Uiso   1.00
H38    H     0.08047   0.26333   0.18597   0.00000  Uiso   1.00
Cl39   Cl    0.25942   0.28393   0.13250   0.00000  Uiso   1.00
Cl40   Cl    0.07394   0.04826   0.20322   0.00000  Uiso   1.00
C41    C     0.49973   0.08750   0.16666   0.00000  Uiso   1.00
C42    C     0.50000   0.24584   0.16661   0.00000  Uiso   1.00
C43    C     0.40125   0.16667   0.15457   0.00000  Uiso   1.00
C44    C     0.59875   0.16668   0.17877   0.00000  Uiso   1.00
C45    C     0.34595   0.16673   0.14792   0.00000  Uiso   1.00
C46    C     0.65405   0.16666   0.18541   0.00000  Uiso   1.00
C47    C     0.53996   0.02202   0.14934   0.00000  Uiso   1.00
C48    C     0.45811   0.31189   0.18260   0.00000  Uiso   1.00
C49    C     0.54017   0.31188   0.14974   0.00000  Uiso   1.00
C50    C     0.45919   0.02151   0.18356   0.00000  Uiso   1.00
C51    C     0.49920   0.29048   0.16618   0.00000  Uiso   1.00
C52    C     0.49962   0.04288   0.16673   0.00000  Uiso   1.00
C53    C     0.46603   0.14259   0.02049   0.00000  Uiso   1.00
C54    C     0.53396   0.19075   0.31284   0.00000  Uiso   1.00
C55    C     0.46604   0.14260   0.30426   0.00000  Uiso   1.00
C56    C     0.53395   0.19074   0.02908   0.00000  Uiso   1.00
Cu57   Cu    0.50000   0.16667   0.21355   0.00000  Uiso   1.00
Cu58   Cu    0.50000   0.16666   0.11978   0.00000  Uiso   1.00
H59    H     0.65925   0.16685   0.11197   0.00000  Uiso   1.00
H60    H     0.34075   0.16654   0.22136   0.00000  Uiso   1.00
H61    H     0.43886   0.12323   0.03570   0.00000  Uiso   1.00
H62    H     0.56114   0.21010   0.29763   0.00000  Uiso   1.00
H63    H     0.43886   0.12326   0.28218   0.00000  Uiso   1.00
H64    H     0.56113   0.21008   0.05115   0.00000  Uiso   1.00
N65    N     0.50001   0.16668   0.28403   0.00000  Uiso   1.00
N66    N     0.49999   0.16666   0.04931   0.00000  Uiso   1.00
O67    O     0.50000   0.10655   0.20625   0.00000  Uiso   1.00
O68    O     0.50000   0.22678   0.12709   0.00000  Uiso   1.00
O69    O     0.50000   0.10654   0.12706   0.00000  Uiso   1.00
O70    O     0.50000   0.22679   0.20628   0.00000  Uiso   1.00
O71    O     0.42495   0.16667   0.19712   0.00000  Uiso   1.00
O72    O     0.57505   0.16666   0.13621   0.00000  Uiso   1.00
O73    O     0.42494   0.16666   0.11793   0.00000  Uiso   1.00
O74    O     0.57506   0.16667   0.21540   0.00000  Uiso   1.00
O75    O     0.57876   0.04537   0.13383   0.00000  Uiso   1.00
H76    H     0.60255   0.02746   0.11916   0.00000  Uiso   1.00
O77    O     0.41608   0.29223   0.19732   0.00000  Uiso   1.00
H78    H     0.41381   0.26333   0.18597   0.00000  Uiso   1.00
Cl79   Cl    0.59276   0.28393   0.13250   0.00000  Uiso   1.00
Cl80   Cl    0.40728   0.04826   0.20322   0.00000  Uiso   1.00
C81    C     0.83306   0.08750   0.16666   0.00000  Uiso   1.00
C82    C     0.83333   0.24584   0.16661   0.00000  Uiso   1.00
C83    C     0.73459   0.16667   0.15457   0.00000  Uiso   1.00
C84    C     0.93208   0.16668   0.17877   0.00000  Uiso   1.00
C85    C     0.67928   0.16673   0.14792   0.00000  Uiso   1.00
C86    C     0.98739   0.16666   0.18541   0.00000  Uiso   1.00
C87    C     0.87329   0.02202   0.14934   0.00000  Uiso   1.00
C88    C     0.79144   0.31189   0.18260   0.00000  Uiso   1.00
C89    C     0.87350   0.31188   0.14974   0.00000  Uiso   1.00
C90    C     0.79252   0.02151   0.18356   0.00000  Uiso   1.00
C91    C     0.83254   0.29048   0.16618   0.00000  Uiso   1.00
C92    C     0.83296   0.04288   0.16673   0.00000  Uiso   1.00
C93    C     0.79937   0.14259   0.02049   0.00000  Uiso   1.00
C94    C     0.86730   0.19075   0.31284   0.00000  Uiso   1.00
C95    C     0.79938   0.14260   0.30426   0.00000  Uiso   1.00
C96    C     0.86729   0.19074   0.02908   0.00000  Uiso   1.00
Cu97   Cu    0.83333   0.16667   0.21355   0.00000  Uiso   1.00
Cu98   Cu    0.83333   0.16666   0.11978   0.00000  Uiso   1.00
H99    H     0.99258   0.16685   0.11197   0.00000  Uiso   1.00
H100   H     0.67409   0.16654   0.22136   0.00000  Uiso   1.00
H101   H     0.77219   0.12323   0.03570   0.00000  Uiso   1.00
H102   H     0.89447   0.21010   0.29763   0.00000  Uiso   1.00
H103   H     0.77220   0.12326   0.28218   0.00000  Uiso   1.00
H104   H     0.89446   0.21008   0.05115   0.00000  Uiso   1.00
N105   N     0.83335   0.16668   0.28403   0.00000  Uiso   1.00
N106   N     0.83332   0.16666   0.04931   0.00000  Uiso   1.00
O107   O     0.83333   0.10655   0.20625   0.00000  Uiso   1.00
O108   O     0.83334   0.22678   0.12709   0.00000  Uiso   1.00
O109   O     0.83333   0.10654   0.12706   0.00000  Uiso   1.00
O110   O     0.83334   0.22679   0.20628   0.00000  Uiso   1.00
O111   O     0.75828   0.16667   0.19712   0.00000  Uiso   1.00
O112   O     0.90839   0.16666   0.13621   0.00000  Uiso   1.00
O113   O     0.75828   0.16666   0.11793   0.00000  Uiso   1.00
O114   O     0.90839   0.16667   0.21540   0.00000  Uiso   1.00
O115   O     0.91209   0.04537   0.13383   0.00000  Uiso   1.00
H116   H     0.93589   0.02746   0.11916   0.00000  Uiso   1.00
O117   O     0.74941   0.29223   0.19732   0.00000  Uiso   1.00
H118   H     0.74714   0.26333   0.18597   0.00000  Uiso   1.00
Cl119  Cl    0.92609   0.28393   0.13250   0.00000  Uiso   1.00
Cl120  Cl    0.74061   0.04826   0.20322   0.00000  Uiso   1.00
C121   C     0.16639   0.42083   0.16666   0.00000  Uiso   1.00
C122   C     0.16666   0.57917   0.16661   0.00000  Uiso   1.00
C123   C     0.06792   0.50000   0.15457   0.00000  Uiso   1.00
C124   C     0.26542   0.50001   0.17877   0.00000  Uiso   1.00
C125   C     0.01262   0.50006   0.14792   0.00000  Uiso   1.00
C126   C     0.32072   0.49999   0.18541   0.00000  Uiso   1.00
C127   C     0.20662   0.35536   0.14934   0.00000  Uiso   1.00
C128   C     0.12478   0.64522   0.18260   0.00000  Uiso   1.00
C129   C     0.20683   0.64521   0.14974   0.00000  Uiso   1.00
C130   C     0.12586   0.35484   0.18356   0.00000  Uiso   1.00
C131   C     0.16587   0.62382   0.16618   0.00000  Uiso   1.00
C132   C     0.16629   0.37621   0.16673   0.00000  Uiso   1.00
C133   C     0.13270   0.47592   0.02049   0.00000  Uiso   1.00
C134   C     0.20063   0.52408   0.31284   0.00000  Uiso   1.00
C135   C     0.13271   0.47593   0.30426   0.00000  Uiso   1.00
C136   C     0.20062   0.52407   0.02908   0.00000  Uiso   1.00
Cu137  Cu    0.16667   0.50001   0.21355   0.00000  Uiso   1.00
Cu138  Cu    0.16667   0.49999   0.11978   0.00000  Uiso   1.00
H139   H     0.32592   0.50018   0.11197   0.00000  Uiso   1.00
H140   H     0.00742   0.49988   0.22136   0.00000  Uiso   1.00
H141   H     0.10553   0.45656   0.03570   0.00000  Uiso   1.00
H142   H     0.22780   0.54344   0.29763   0.00000  Uiso   1.00
H143   H     0.10553   0.45659   0.28218   0.00000  Uiso   1.00
H144   H     0.22780   0.54341   0.05115   0.00000  Uiso   1.00
N145   N     0.16668   0.50001   0.28403   0.00000  Uiso   1.00
N146   N     0.16665   0.49999   0.04931   0.00000  Uiso   1.00
O147   O     0.16666   0.43989   0.20625   0.00000  Uiso   1.00
O148   O     0.16667   0.56011   0.12709   0.00000  Uiso   1.00
O149   O     0.16666   0.43988   0.12706   0.00000  Uiso   1.00
O150   O     0.16667   0.56012   0.20628   0.00000  Uiso   1.00
O151   O     0.09161   0.50000   0.19712   0.00000  Uiso   1.00
O152   O     0.24172   0.50000   0.13621   0.00000  Uiso   1.00
O153   O     0.09161   0.49999   0.11793   0.00000  Uiso   1.00
O154   O     0.24172   0.50001   0.21540   0.00000  Uiso   1.00
O155   O     0.24543   0.37870   0.13383   0.00000  Uiso   1.00
H156   H     0.26922   0.36079   0.11916   0.00000  Uiso   1.00
O157   O     0.08275   0.62556   0.19732   0.00000  Uiso   1.00
H158   H     0.08047   0.59666   0.18597   0.00000  Uiso   1.00
Cl159  Cl    0.25942   0.61726   0.13250   0.00000  Uiso   1.00
Cl160  Cl    0.07394   0.38160   0.20322   0.00000  Uiso   1.00
C161   C     0.49973   0.42083   0.16666   0.00000  Uiso   1.00
C162   C     0.50000   0.57917   0.16661   0.00000  Uiso   1.00
C163   C     0.40125   0.50000   0.15457   0.00000  Uiso   1.00
C164   C     0.59875   0.50001   0.17877   0.00000  Uiso   1.00
C165   C     0.34595   0.50006   0.14792   0.00000  Uiso   1.00
C166   C     0.65405   0.49999   0.18541   0.00000  Uiso   1.00
C167   C     0.53996   0.35536   0.14934   0.00000  Uiso   1.00
C168   C     0.45811   0.64522   0.18260   0.00000  Uiso   1.00
C169   C     0.54017   0.64521   0.14974   0.00000  Uiso   1.00
C170   C     0.45919   0.35484   0.18356   0.00000  Uiso   1.00
C171   C     0.49920   0.62382   0.16618   0.00000  Uiso   1.00
C172   C     0.49962   0.37621   0.16673   0.00000  Uiso   1.00
C173   C     0.46603   0.47592   0.02049   0.00000  Uiso   1.00
C174   C     0.53396   0.52408   0.31284   0.00000  Uiso   1.00
C175   C     0.46604   0.47593   0.30426   0.00000  Uiso   1.00
C176   C     0.53395   0.52407   0.02908   0.00000  Uiso   1.00
Cu177  Cu    0.50000   0.50001   0.21355   0.00000  Uiso   1.00
Cu178  Cu    0.50000   0.49999   0.11978   0.00000  Uiso   1.00
H179   H     0.65925   0.50018   0.11197   0.00000  Uiso   1.00
H180   H     0.34075   0.49988   0.22136   0.00000  Uiso   1.00
H181   H     0.43886   0.45656   0.03570   0.00000  Uiso   1.00
H182   H     0.56114   0.54344   0.29763   0.00000  Uiso   1.00
H183   H     0.43886   0.45659   0.28218   0.00000  Uiso   1.00
H184   H     0.56113   0.54341   0.05115   0.00000  Uiso   1.00
N185   N     0.50001   0.50001   0.28403   0.00000  Uiso   1.00
N186   N     0.49999   0.49999   0.04931   0.00000  Uiso   1.00
O187   O     0.50000   0.43989   0.20625   0.00000  Uiso   1.00
O188   O     0.50000   0.56011   0.12709   0.00000  Uiso   1.00
O189   O     0.50000   0.43988   0.12706   0.00000  Uiso   1.00
O190   O     0.50000   0.56012   0.20628   0.00000  Uiso   1.00
O191   O     0.42495   0.50000   0.19712   0.00000  Uiso   1.00
O192   O     0.57505   0.50000   0.13621   0.00000  Uiso   1.00
O193   O     0.42494   0.49999   0.11793   0.00000  Uiso   1.00
O194   O     0.57506   0.50001   0.21540   0.00000  Uiso   1.00
O195   O     0.57876   0.37870   0.13383   0.00000  Uiso   1.00
H196   H     0.60255   0.36079   0.11916   0.00000  Uiso   1.00
O197   O     0.41608   0.62556   0.19732   0.00000  Uiso   1.00
H198   H     0.41381   0.59666   0.18597   0.00000  Uiso   1.00
Cl199  Cl    0.59276   0.61726   0.13250   0.00000  Uiso   1.00
Cl200  Cl    0.40728   0.38160   0.20322   0.00000  Uiso   1.00
C201   C     0.83306   0.42083   0.16666   0.00000  Uiso   1.00
C202   C     0.83333   0.57917   0.16661   0.00000  Uiso   1.00
C203   C     0.73459   0.50000   0.15457   0.00000  Uiso   1.00
C204   C     0.93208   0.50001   0.17877   0.00000  Uiso   1.00
C205   C     0.67928   0.50006   0.14792   0.00000  Uiso   1.00
C206   C     0.98739   0.49999   0.18541   0.00000  Uiso   1.00
C207   C     0.87329   0.35536   0.14934   0.00000  Uiso   1.00
C208   C     0.79144   0.64522   0.18260   0.00000  Uiso   1.00
C209   C     0.87350   0.64521   0.14974   0.00000  Uiso   1.00
C210   C     0.79252   0.35484   0.18356   0.00000  Uiso   1.00
C211   C     0.83254   0.62382   0.16618   0.00000  Uiso   1.00
C212   C     0.83296   0.37621   0.16673   0.00000  Uiso   1.00
C213   C     0.79937   0.47592   0.02049   0.00000  Uiso   1.00
C214   C     0.86730   0.52408   0.31284   0.00000  Uiso   1.00
C215   C     0.79938   0.47593   0.30426   0.00000  Uiso   1.00
C216   C     0.86729   0.52407   0.02908   0.00000  Uiso   1.00
Cu217  Cu    0.83333   0.50001   0.21355   0.00000  Uiso   1.00
Cu218  Cu    0.83333   0.49999   0.11978   0.00000  Uiso   1.00
H219   H     0.99258   0.50018   0.11197   0.00000  Uiso   1.00
H220   H     0.67409   0.49988   0.22136   0.00000  Uiso   1.00
H221   H     0.77219   0.45656   0.03570   0.00000  Uiso   1.00
H222   H     0.89447   0.54344   0.29763   0.00000  Uiso   1.00
H223   H     0.77220   0.45659   0.28218   0.00000  Uiso   1.00
H224   H     0.89446   0.54341   0.05115   0.00000  Uiso   1.00
N225   N     0.83335   0.50001   0.28403   0.00000  Uiso   1.00
N226   N     0.83332   0.49999   0.04931   0.00000  Uiso   1.00
O227   O     0.83333   0.43989   0.20625   0.00000  Uiso   1.00
O228   O     0.83334   0.56011   0.12709   0.00000  Uiso   1.00
O229   O     0.83333   0.43988   0.12706   0.00000  Uiso   1.00
O230   O     0.83334   0.56012   0.20628   0.00000  Uiso   1.00
O231   O     0.75828   0.50000   0.19712   0.00000  Uiso   1.00
O232   O     0.90839   0.50000   0.13621   0.00000  Uiso   1.00
O233   O     0.75828   0.49999   0.11793   0.00000  Uiso   1.00
O234   O     0.90839   0.50001   0.21540   0.00000  Uiso   1.00
O235   O     0.91209   0.37870   0.13383   0.00000  Uiso   1.00
H236   H     0.93589   0.36079   0.11916   0.00000  Uiso   1.00
O237   O     0.74941   0.62556   0.19732   0.00000  Uiso   1.00
H238   H     0.74714   0.59666   0.18597   0.00000  Uiso   1.00
Cl239  Cl    0.92609   0.61726   0.13250   0.00000  Uiso   1.00
Cl240  Cl    0.74061   0.38160   0.20322   0.00000  Uiso   1.00
C241   C     0.16639   0.75416   0.16666   0.00000  Uiso   1.00
C242   C     0.16666   0.91251   0.16661   0.00000  Uiso   1.00
C243   C     0.06792   0.83333   0.15457   0.00000  Uiso   1.00
C244   C     0.26542   0.83334   0.17877   0.00000  Uiso   1.00
C245   C     0.01262   0.83340   0.14792   0.00000  Uiso   1.00
C246   C     0.32072   0.83332   0.18541   0.00000  Uiso   1.00
C247   C     0.20662   0.68869   0.14934   0.00000  Uiso   1.00
C248   C     0.12478   0.97855   0.18260   0.00000  Uiso   1.00
C249   C     0.20683   0.97854   0.14974   0.00000  Uiso   1.00
C250   C     0.12586   0.68818   0.18356   0.00000  Uiso   1.00
C251   C     0.16587   0.95715   0.16618   0.00000  Uiso   1.00
C252   C     0.16629   0.70955   0.16673   0.00000  Uiso   1.00
C253   C     0.13270   0.80925   0.02049   0.00000  Uiso   1.00
C254   C     0.20063   0.85741   0.31284   0.00000  Uiso   1.00
C255   C     0.13271   0.80927   0.30426   0.00000  Uiso   1.00
C256   C     0.20062   0.85740   0.02908   0.00000  Uiso   1.00
Cu257  Cu    0.16667   0.83334   0.21355   0.00000  Uiso   1.00
Cu258  Cu    0.16667   0.83333   0.11978   0.00000  Uiso   1.00
H259   H     0.32592   0.83352   0.11197   0.00000  Uiso   1.00
H260   H     0.00742   0.83321   0.22136   0.00000  Uiso   1.00
H261   H     0.10553   0.78990   0.03570   0.00000  Uiso   1.00
H262   H     0.22780   0.87677   0.29763   0.00000  Uiso   1.00
H263   H     0.10553   0.78993   0.28218   0.00000  Uiso   1.00
H264   H     0.22780   0.87675   0.05115   0.00000  Uiso   1.00
N265   N     0.16668   0.83334   0.28403   0.00000  Uiso   1.00
N266   N     0.16665   0.83332   0.04931   0.00000  Uiso   1.00
O267   O     0.16666   0.77322   0.20625   0.00000  Uiso   1.00
O268   O     0.16667   0.89345   0.12709   0.00000  Uiso   1.00
O269   O     0.16666   0.77321   0.12706   0.00000  Uiso   1.00
O270   O     0.16667   0.89346   0.20628   0.00000  Uiso   1.00
O271   O     0.09161   0.83334   0.19712   0.00000  Uiso   1.00
O272   O     0.24172   0.83333   0.13621   0.00000  Uiso   1.00
O273   O     0.09161   0.83333   0.11793   0.00000  Uiso   1.00
O274   O     0.24172   0.83334   0.21540   0.00000  Uiso   1.00
O275   O     0.24543   0.71204   0.13383   0.00000  Uiso   1.00
H276   H     0.26922   0.69413   0.11916   0.00000  Uiso   1.00
O277   O     0.08275   0.95889   0.19732   0.00000  Uiso   1.00
H278   H     0.08047   0.93000   0.18597   0.00000  Uiso   1.00
Cl279  Cl    0.25942   0.95059   0.13250   0.00000  Uiso   1.00
Cl280  Cl    0.07394   0.71493   0.20322   0.00000  Uiso   1.00
C281   C     0.49973   0.75416   0.16666   0.00000  Uiso   1.00
C282   C     0.50000   0.91251   0.16661   0.00000  Uiso   1.00
C283   C     0.40125   0.83333   0.15457   0.00000  Uiso   1.00
C284   C     0.59875   0.83334   0.17877   0.00000  Uiso   1.00
C285   C     0.34595   0.83340   0.14792   0.00000  Uiso   1.00
C286   C     0.65405   0.83332   0.18541   0.00000  Uiso   1.00
C287   C     0.53996   0.68869   0.14934   0.00000  Uiso   1.00
C288   C     0.45811   0.97855   0.18260   0.00000  Uiso   1.00
C289   C     0.54017   0.97854   0.14974   0.00000  Uiso   1.00
C290   C     0.45919   0.68818   0.18356   0.00000  Uiso   1.00
C291   C     0.49920   0.95715   0.16618   0.00000  Uiso   1.00
C292   C     0.49962   0.70955   0.16673   0.00000  Uiso   1.00
C293   C     0.46603   0.80925   0.02049   0.00000  Uiso   1.00
C294   C     0.53396   0.85741   0.31284   0.00000  Uiso   1.00
C295   C     0.46604   0.80927   0.30426   0.00000  Uiso   1.00
C296   C     0.53395   0.85740   0.02908   0.00000  Uiso   1.00
Cu297  Cu    0.50000   0.83334   0.21355   0.00000  Uiso   1.00
Cu298  Cu    0.50000   0.83333   0.11978   0.00000  Uiso   1.00
H299   H     0.65925   0.83352   0.11197   0.00000  Uiso   1.00
H300   H     0.34075   0.83321   0.22136   0.00000  Uiso   1.00
H301   H     0.43886   0.78990   0.03570   0.00000  Uiso   1.00
H302   H     0.56114   0.87677   0.29763   0.00000  Uiso   1.00
H303   H     0.43886   0.78993   0.28218   0.00000  Uiso   1.00
H304   H     0.56113   0.87675   0.05115   0.00000  Uiso   1.00
N305   N     0.50001   0.83334   0.28403   0.00000  Uiso   1.00
N306   N     0.49999   0.83332   0.04931   0.00000  Uiso   1.00
O307   O     0.50000   0.77322   0.20625   0.00000  Uiso   1.00
O308   O     0.50000   0.89345   0.12709   0.00000  Uiso   1.00
O309   O     0.50000   0.77321   0.12706   0.00000  Uiso   1.00
O310   O     0.50000   0.89346   0.20628   0.00000  Uiso   1.00
O311   O     0.42495   0.83334   0.19712   0.00000  Uiso   1.00
O312   O     0.57505   0.83333   0.13621   0.00000  Uiso   1.00
O313   O     0.42494   0.83333   0.11793   0.00000  Uiso   1.00
O314   O     0.57506   0.83334   0.21540   0.00000  Uiso   1.00
O315   O     0.57876   0.71204   0.13383   0.00000  Uiso   1.00
H316   H     0.60255   0.69413   0.11916   0.00000  Uiso   1.00
O317   O     0.41608   0.95889   0.19732   0.00000  Uiso   1.00
H318   H     0.41381   0.93000   0.18597   0.00000  Uiso   1.00
Cl319  Cl    0.59276   0.95059   0.13250   0.00000  Uiso   1.00
Cl320  Cl    0.40728   0.71493   0.20322   0.00000  Uiso   1.00
C321   C     0.83306   0.75416   0.16666   0.00000  Uiso   1.00
C322   C     0.83333   0.91251   0.16661   0.00000  Uiso   1.00
C323   C     0.73459   0.83333   0.15457   0.00000  Uiso   1.00
C324   C     0.93208   0.83334   0.17877   0.00000  Uiso   1.00
C325   C     0.67928   0.83340   0.14792   0.00000  Uiso   1.00
C326   C     0.98739   0.83332   0.18541   0.00000  Uiso   1.00
C327   C     0.87329   0.68869   0.14934   0.00000  Uiso   1.00
C328   C     0.79144   0.97855   0.18260   0.00000  Uiso   1.00
C329   C     0.87350   0.97854   0.14974   0.00000  Uiso   1.00
C330   C     0.79252   0.68818   0.18356   0.00000  Uiso   1.00
C331   C     0.83254   0.95715   0.16618   0.00000  Uiso   1.00
C332   C     0.83296   0.70955   0.16673   0.00000  Uiso   1.00
C333   C     0.79937   0.80925   0.02049   0.00000  Uiso   1.00
C334   C     0.86730   0.85741   0.31284   0.00000  Uiso   1.00
C335   C     0.79938   0.80927   0.30426   0.00000  Uiso   1.00
C336   C     0.86729   0.85740   0.02908   0.00000  Uiso   1.00
Cu337  Cu    0.83333   0.83334   0.21355   0.00000  Uiso   1.00
Cu338  Cu    0.83333   0.83333   0.11978   0.00000  Uiso   1.00
H339   H     0.99258   0.83352   0.11197   0.00000  Uiso   1.00
H340   H     0.67409   0.83321   0.22136   0.00000  Uiso   1.00
H341   H     0.77219   0.78990   0.03570   0.00000  Uiso   1.00
H342   H     0.89447   0.87677   0.29763   0.00000  Uiso   1.00
H343   H     0.77220   0.78993   0.28218   0.00000  Uiso   1.00
H344   H     0.89446   0.87675   0.05115   0.00000  Uiso   1.00
N345   N     0.83335   0.83334   0.28403   0.00000  Uiso   1.00
N346   N     0.83332   0.83332   0.04931   0.00000  Uiso   1.00
O347   O     0.83333   0.77322   0.20625   0.00000  Uiso   1.00
O348   O     0.83334   0.89345   0.12709   0.00000  Uiso   1.00
O349   O     0.83333   0.77321   0.12706   0.00000  Uiso   1.00
O350   O     0.83334   0.89346   0.20628   0.00000  Uiso   1.00
O351   O     0.75828   0.83334   0.19712   0.00000  Uiso   1.00
O352   O     0.90839   0.83333   0.13621   0.00000  Uiso   1.00
O353   O     0.75828   0.83333   0.11793   0.00000  Uiso   1.00
O354   O     0.90839   0.83334   0.21540   0.00000  Uiso   1.00
O355   O     0.91209   0.71204   0.13383   0.00000  Uiso   1.00
H356   H     0.93589   0.69413   0.11916   0.00000  Uiso   1.00
O357   O     0.74941   0.95889   0.19732   0.00000  Uiso   1.00
H358   H     0.74714   0.93000   0.18597   0.00000  Uiso   1.00
Cl359  Cl    0.92609   0.95059   0.13250   0.00000  Uiso   1.00
Cl360  Cl    0.74061   0.71493   0.20322   0.00000  Uiso   1.00
C361   C     0.16639   0.08750   0.50000   0.00000  Uiso   1.00
C362   C     0.16666   0.24584   0.49995   0.00000  Uiso   1.00
C363   C     0.06792   0.16667   0.48790   0.00000  Uiso   1.00
C364   C     0.26542   0.16668   0.51210   0.00000  Uiso   1.00
C365   C     0.01262   0.16673   0.48125   0.00000  Uiso   1.00
C366   C     0.32072   0.16666   0.51875   0.00000  Uiso   1.00
C367   C     0.20662   0.02202   0.48268   0.00000  Uiso   1.00
C368   C     0.12478   0.31189   0.51593   0.00000  Uiso   1.00
C369   C     0.20683   0.31188   0.48307   0.00000  Uiso   1.00
C370   C     0.12586   0.02151   0.51690   0.00000  Uiso   1.00
C371   C     0.16587   0.29048   0.49952   0.00000  Uiso   1.00
C372   C     0.16629   0.04288   0.50006   0.00000  Uiso   1.00
C373   C     0.13270   0.14259   0.35383   0.00000  Uiso   1.00
C374   C     0.20063   0.19075   0.64617   0.00000  Uiso   1.00
C375   C     0.13271   0.14260   0.63759   0.00000  Uiso   1.00
C376   C     0.20062   0.19074   0.36241   0.00000  Uiso   1.00
Cu377  Cu    0.16667   0.16667   0.54689   0.00000  Uiso   1.00
Cu378  Cu    0.16667   0.16666   0.45311   0.00000  Uiso   1.00
H379   H     0.32592   0.16685   0.44531   0.00000  Uiso   1.00
H380   H     0.00742   0.16654   0.55469   0.00000  Uiso   1.00
H381   H     0.10553   0.12323   0.36903   0.00000  Uiso   1.00
H382   H     0.22780   0.21010   0.63096   0.00000  Uiso   1.00
H383   H     0.10553   0.12326   0.61552   0.00000  Uiso   1.00
H384   H     0.22780   0.21008   0.38448   0.00000  Uiso   1.00
N385   N     0.16668   0.16668   0.61736   0.00000  Uiso   1.00
N386   N     0.16665   0.16666   0.38264   0.00000  Uiso   1.00
O387   O     0.16666   0.10655   0.53958   0.00000  Uiso   1.00
O388   O     0.16667   0.22678   0.46042   0.00000  Uiso   1.00
O389   O     0.16666   0.10654   0.46039   0.00000  Uiso   1.00
O390   O     0.16667   0.22679   0.53961   0.00000  Uiso   1.00
O391   O     0.09161   0.16667   0.53046   0.00000  Uiso   1.00
O392   O     0.24172   0.16666   0.46954   0.00000  Uiso   1.00
O393   O     0.09161   0.16666   0.45127   0.00000  Uiso   1.00
O394   O     0.24172   0.16667   0.54873   0.00000  Uiso   1.00
O395   O     0.24543   0.04537   0.46716   0.00000  Uiso   1.00
H396   H     0.26922   0.02746   0.45250   0.00000  Uiso   1.00
O397   O     0.08275   0.29223   0.53065   0.00000  Uiso   1.00
H398   H     0.08047   0.26333   0.51930   0.00000  Uiso   1.00
Cl399  Cl    0.25942   0.28393   0.46583   0.00000  Uiso   1.00
Cl400  Cl    0.07394   0.04826   0.53655   0.00000  Uiso   1.00
C401   C     0.49973   0.08750   0.50000   0.00000  Uiso   1.00
C402   C     0.50000   0.24584   0.49995   0.00000  Uiso   1.00
C403   C     0.40125   0.16667   0.48790   0.00000  Uiso   1.00
C404   C     0.59875   0.16668   0.51210   0.00000  Uiso   1.00
C405   C     0.34595   0.16673   0.48125   0.00000  Uiso   1.00
C406   C     0.65405   0.16666   0.51875   0.00000  Uiso   1.00
C407   C     0.53996   0.02202   0.48268   0.00000  Uiso   1.00
C408   C     0.45811   0.31189   0.51593   0.00000  Uiso   1.00
C409   C     0.54017   0.31188   0.48307   0.00000  Uiso   1.00
C410   C     0.45919   0.02151   0.51690   0.00000  Uiso   1.00
C411   C     0.49920   0.29048   0.49952   0.00000  Uiso   1.00
C412   C     0.49962   0.04288   0.50006   0.00000  Uiso   1.00
C413   C     0.46603   0.14259   0.35383   0.00000  Uiso   1.00
C414   C     0.53396   0.19075   0.64617   0.00000  Uiso   1.00
C415   C     0.46604   0.14260   0.63759   0.00000  Uiso   1.00
C416   C     0.53395   0.19074   0.36241   0.00000  Uiso   1.00
Cu417  Cu    0.50000   0.16667   0.54689   0.00000  Uiso   1.00
Cu418  Cu    0.50000   0.16666   0.45311   0.00000  Uiso   1.00
H419   H     0.65925   0.16685   0.44531   0.00000  Uiso   1.00
H420   H     0.34075   0.16654   0.55469   0.00000  Uiso   1.00
H421   H     0.43886   0.12323   0.36903   0.00000  Uiso   1.00
H422   H     0.56114   0.21010   0.63096   0.00000  Uiso   1.00
H423   H     0.43886   0.12326   0.61552   0.00000  Uiso   1.00
H424   H     0.56113   0.21008   0.38448   0.00000  Uiso   1.00
N425   N     0.50001   0.16668   0.61736   0.00000  Uiso   1.00
N426   N     0.49999   0.16666   0.38264   0.00000  Uiso   1.00
O427   O     0.50000   0.10655   0.53958   0.00000  Uiso   1.00
O428   O     0.50000   0.22678   0.46042   0.00000  Uiso   1.00
O429   O     0.50000   0.10654   0.46039   0.00000  Uiso   1.00
O430   O     0.50000   0.22679   0.53961   0.00000  Uiso   1.00
O431   O     0.42495   0.16667   0.53046   0.00000  Uiso   1.00
O432   O     0.57505   0.16666   0.46954   0.00000  Uiso   1.00
O433   O     0.42494   0.16666   0.45127   0.00000  Uiso   1.00
O434   O     0.57506   0.16667   0.54873   0.00000  Uiso   1.00
O435   O     0.57876   0.04537   0.46716   0.00000  Uiso   1.00
H436   H     0.60255   0.02746   0.45250   0.00000  Uiso   1.00
O437   O     0.41608   0.29223   0.53065   0.00000  Uiso   1.00
H438   H     0.41381   0.26333   0.51930   0.00000  Uiso   1.00
Cl439  Cl    0.59276   0.28393   0.46583   0.00000  Uiso   1.00
Cl440  Cl    0.40728   0.04826   0.53655   0.00000  Uiso   1.00
C441   C     0.83306   0.08750   0.50000   0.00000  Uiso   1.00
C442   C     0.83333   0.24584   0.49995   0.00000  Uiso   1.00
C443   C     0.73459   0.16667   0.48790   0.00000  Uiso   1.00
C444   C     0.93208   0.16668   0.51210   0.00000  Uiso   1.00
C445   C     0.67928   0.16673   0.48125   0.00000  Uiso   1.00
C446   C     0.98739   0.16666   0.51875   0.00000  Uiso   1.00
C447   C     0.87329   0.02202   0.48268   0.00000  Uiso   1.00
C448   C     0.79144   0.31189   0.51593   0.00000  Uiso   1.00
C449   C     0.87350   0.31188   0.48307   0.00000  Uiso   1.00
C450   C     0.79252   0.02151   0.51690   0.00000  Uiso   1.00
C451   C     0.83254   0.29048   0.49952   0.00000  Uiso   1.00
C452   C     0.83296   0.04288   0.50006   0.00000  Uiso   1.00
C453   C     0.79937   0.14259   0.35383   0.00000  Uiso   1.00
C454   C     0.86730   0.19075   0.64617   0.00000  Uiso   1.00
C455   C     0.79938   0.14260   0.63759   0.00000  Uiso   1.00
C456   C     0.86729   0.19074   0.36241   0.00000  Uiso   1.00
Cu457  Cu    0.83333   0.16667   0.54689   0.00000  Uiso   1.00
Cu458  Cu    0.83333   0.16666   0.45311   0.00000  Uiso   1.00
H459   H     0.99258   0.16685   0.44531   0.00000  Uiso   1.00
H460   H     0.67409   0.16654   0.55469   0.00000  Uiso   1.00
H461   H     0.77219   0.12323   0.36903   0.00000  Uiso   1.00
H462   H     0.89447   0.21010   0.63096   0.00000  Uiso   1.00
H463   H     0.77220   0.12326   0.61552   0.00000  Uiso   1.00
H464   H     0.89446   0.21008   0.38448   0.00000  Uiso   1.00
N465   N     0.83335   0.16668   0.61736   0.00000  Uiso   1.00
N466   N     0.83332   0.16666   0.38264   0.00000  Uiso   1.00
O467   O     0.83333   0.10655   0.53958   0.00000  Uiso   1.00
O468   O     0.83334   0.22678   0.46042   0.00000  Uiso   1.00
O469   O     0.83333   0.10654   0.46039   0.00000  Uiso   1.00
O470   O     0.83334   0.22679   0.53961   0.00000  Uiso   1.00
O471   O     0.75828   0.16667   0.53046   0.00000  Uiso   1.00
O472   O     0.90839   0.16666   0.46954   0.00000  Uiso   1.00
O473   O     0.75828   0.16666   0.45127   0.00000  Uiso   1.00
O474   O     0.90839   0.16667   0.54873   0.00000  Uiso   1.00
O475   O     0.91209   0.04537   0.46716   0.00000  Uiso   1.00
H476   H     0.93589   0.02746   0.45250   0.00000  Uiso   1.00
O477   O     0.74941   0.29223   0.53065   0.00000  Uiso   1.00
H478   H     0.74714   0.26333   0.51930   0.00000  Uiso   1.00
Cl479  Cl    0.92609   0.28393   0.46583   0.00000  Uiso   1.00
Cl480  Cl    0.74061   0.04826   0.53655   0.00000  Uiso   1.00
C481   C     0.16639   0.42083   0.50000   0.00000  Uiso   1.00
C482   C     0.16666   0.57917   0.49995   0.00000  Uiso   1.00
C483   C     0.06792   0.50000   0.48790   0.00000  Uiso   1.00
C484   C     0.26542   0.50001   0.51210   0.00000  Uiso   1.00
C485   C     0.01262   0.50006   0.48125   0.00000  Uiso   1.00
C486   C     0.32072   0.49999   0.51875   0.00000  Uiso   1.00
C487   C     0.20662   0.35536   0.48268   0.00000  Uiso   1.00
C488   C     0.12478   0.64522   0.51593   0.00000  Uiso   1.00
C489   C     0.20683   0.64521   0.48307   0.00000  Uiso   1.00
C490   C     0.12586   0.35484   0.51690   0.00000  Uiso   1.00
C491   C     0.16587   0.62382   0.49952   0.00000  Uiso   1.00
C492   C     0.16629   0.37621   0.50006   0.00000  Uiso   1.00
C493   C     0.13270   0.47592   0.35383   0.00000  Uiso   1.00
C494   C     0.20063   0.52408   0.64617   0.00000  Uiso   1.00
C495   C     0.13271   0.47593   0.63759   0.00000  Uiso   1.00
C496   C     0.20062   0.52407   0.36241   0.00000  Uiso   1.00
Cu497  Cu    0.16667   0.50001   0.54689   0.00000  Uiso   1.00
Cu498  Cu    0.16667   0.49999   0.45311   0.00000  Uiso   1.00
H499   H     0.32592   0.50018   0.44531   0.00000  Uiso   1.00
H500   H     0.00742   0.49988   0.55469   0.00000  Uiso   1.00
H501   H     0.10553   0.45656   0.36903   0.00000  Uiso   1.00
H502   H     0.22780   0.54344   0.63096   0.00000  Uiso   1.00
H503   H     0.10553   0.45659   0.61552   0.00000  Uiso   1.00
H504   H     0.22780   0.54341   0.38448   0.00000  Uiso   1.00
N505   N     0.16668   0.50001   0.61736   0.00000  Uiso   1.00
N506   N     0.16665   0.49999   0.38264   0.00000  Uiso   1.00
O507   O     0.16666   0.43989   0.53958   0.00000  Uiso   1.00
O508   O     0.16667   0.56011   0.46042   0.00000  Uiso   1.00
O509   O     0.16666   0.43988   0.46039   0.00000  Uiso   1.00
O510   O     0.16667   0.56012   0.53961   0.00000  Uiso   1.00
O511   O     0.09161   0.50000   0.53046   0.00000  Uiso   1.00
O512   O     0.24172   0.50000   0.46954   0.00000  Uiso   1.00
O513   O     0.09161   0.49999   0.45127   0.00000  Uiso   1.00
O514   O     0.24172   0.50001   0.54873   0.00000  Uiso   1.00
O515   O     0.24543   0.37870   0.46716   0.00000  Uiso   1.00
H516   H     0.26922   0.36079   0.45250   0.00000  Uiso   1.00
O517   O     0.08275   0.62556   0.53065   0.00000  Uiso   1.00
H518   H     0.08047   0.59666   0.51930   0.00000  Uiso   1.00
Cl519  Cl    0.25942   0.61726   0.46583   0.00000  Uiso   1.00
Cl520  Cl    0.07394   0.38160   0.53655   0.00000  Uiso   1.00
C521   C     0.49973   0.42083   0.50000   0.00000  Uiso   1.00
C522   C     0.50000   0.57917   0.49995   0.00000  Uiso   1.00
C523   C     0.40125   0.50000   0.48790   0.00000  Uiso   1.00
C524   C     0.59875   0.50001   0.51210   0.00000  Uiso   1.00
C525   C     0.34595   0.50006   0.48125   0.00000  Uiso   1.00
C526   C     0.65405   0.49999   0.51875   0.00000  Uiso   1.00
C527   C     0.53996   0.35536   0.48268   0.00000  Uiso   1.00
C528   C     0.45811   0.64522   0.51593   0.00000  Uiso   1.00
C529   C     0.54017   0.64521   0.48307   0.00000  Uiso   1.00
C530   C     0.45919   0.35484   0.51690   0.00000  Uiso   1.00
C531   C     0.49920   0.62382   0.49952   0.00000  Uiso   1.00
C532   C     0.49962   0.37621   0.50006   0.00000  Uiso   1.00
C533   C     0.46603   0.47592   0.35383   0.00000  Uiso   1.00
C534   C     0.53396   0.52408   0.64617   0.00000  Uiso   1.00
C535   C     0.46604   0.47593   0.63759   0.00000  Uiso   1.00
C536   C     0.53395   0.52407   0.36241   0.00000  Uiso   1.00
Cu537  Cu    0.50000   0.50001   0.54689   0.00000  Uiso   1.00
Cu538  Cu    0.50000   0.49999   0.45311   0.00000  Uiso   1.00
H539   H     0.65925   0.50018   0.44531   0.00000  Uiso   1.00
H540   H     0.34075   0.49988   0.55469   0.00000  Uiso   1.00
H541   H     0.43886   0.45656   0.36903   0.00000  Uiso   1.00
H542   H     0.56114   0.54344   0.63096   0.00000  Uiso   1.00
H543   H     0.43886   0.45659   0.61552   0.00000  Uiso   1.00
H544   H     0.56113   0.54341   0.38448   0.00000  Uiso   1.00
N545   N     0.50001   0.50001   0.61736   0.00000  Uiso   1.00
N546   N     0.49999   0.49999   0.38264   0.00000  Uiso   1.00
O547   O     0.50000   0.43989   0.53958   0.00000  Uiso   1.00
O548   O     0.50000   0.56011   0.46042   0.00000  Uiso   1.00
O549   O     0.50000   0.43988   0.46039   0.00000  Uiso   1.00
O550   O     0.50000   0.56012   0.53961   0.00000  Uiso   1.00
O551   O     0.42495   0.50000   0.53046   0.00000  Uiso   1.00
O552   O     0.57505   0.50000   0.46954   0.00000  Uiso   1.00
O553   O     0.42494   0.49999   0.45127   0.00000  Uiso   1.00
O554   O     0.57506   0.50001   0.54873   0.00000  Uiso   1.00
O555   O     0.57876   0.37870   0.46716   0.00000  Uiso   1.00
H556   H     0.60255   0.36079   0.45250   0.00000  Uiso   1.00
O557   O     0.41608   0.62556   0.53065   0.00000  Uiso   1.00
H558   H     0.41381   0.59666   0.51930   0.00000  Uiso   1.00
Cl559  Cl    0.59276   0.61726   0.46583   0.00000  Uiso   1.00
Cl560  Cl    0.40728   0.38160   0.53655   0.00000  Uiso   1.00
C561   C     0.83306   0.42083   0.50000   0.00000  Uiso   1.00
C562   C     0.83333   0.57917   0.49995   0.00000  Uiso   1.00
C563   C     0.73459   0.50000   0.48790   0.00000  Uiso   1.00
C564   C     0.93208   0.50001   0.51210   0.00000  Uiso   1.00
C565   C     0.67928   0.50006   0.48125   0.00000  Uiso   1.00
C566   C     0.98739   0.49999   0.51875   0.00000  Uiso   1.00
C567   C     0.87329   0.35536   0.48268   0.00000  Uiso   1.00
C568   C     0.79144   0.64522   0.51593   0.00000  Uiso   1.00
C569   C     0.87350   0.64521   0.48307   0.00000  Uiso   1.00
C570   C     0.79252   0.35484   0.51690   0.00000  Uiso   1.00
C571   C     0.83254   0.62382   0.49952   0.00000  Uiso   1.00
C572   C     0.83296   0.37621   0.50006   0.00000  Uiso   1.00
C573   C     0.79937   0.47592   0.35383   0.00000  Uiso   1.00
C574   C     0.86730   0.52408   0.64617   0.00000  Uiso   1.00
C575   C     0.79938   0.47593   0.63759   0.00000  Uiso   1.00
C576   C     0.86729   0.52407   0.36241   0.00000  Uiso   1.00
Cu577  Cu    0.83333   0.50001   0.54689   0.00000  Uiso   1.00
Cu578  Cu    0.83333   0.49999   0.45311   0.00000  Uiso   1.00
H579   H     0.99258   0.50018   0.44531   0.00000  Uiso   1.00
H580   H     0.67409   0.49988   0.55469   0.00000  Uiso   1.00
H581   H     0.77219   0.45656   0.36903   0.00000  Uiso   1.00
H582   H     0.89447   0.54344   0.63096   0.00000  Uiso   1.00
H583   H     0.77220   0.45659   0.61552   0.00000  Uiso   1.00
H584   H     0.89446   0.54341   0.38448   0.00000  Uiso   1.00
N585   N     0.83335   0.50001   0.61736   0.00000  Uiso   1.00
N586   N     0.83332   0.49999   0.38264   0.00000  Uiso   1.00
O587   O     0.83333   0.43989   0.53958   0.00000  Uiso   1.00
O588   O     0.83334   0.56011   0.46042   0.00000  Uiso   1.00
O589   O     0.83333   0.43988   0.46039   0.00000  Uiso   1.00
O590   O     0.83334   0.56012   0.53961   0.00000  Uiso   1.00
O591   O     0.75828   0.50000   0.53046   0.00000  Uiso   1.00
O592   O     0.90839   0.50000   0.46954   0.00000  Uiso   1.00
O593   O     0.75828   0.49999   0.45127   0.00000  Uiso   1.00
O594   O     0.90839   0.50001   0.54873   0.00000  Uiso   1.00
O595   O     0.91209   0.37870   0.46716   0.00000  Uiso   1.00
H596   H     0.93589   0.36079   0.45250   0.00000  Uiso   1.00
O597   O     0.74941   0.62556   0.53065   0.00000  Uiso   1.00
H598   H     0.74714   0.59666   0.51930   0.00000  Uiso   1.00
Cl599  Cl    0.92609   0.61726   0.46583   0.00000  Uiso   1.00
Cl600  Cl    0.74061   0.38160   0.53655   0.00000  Uiso   1.00
C601   C     0.16639   0.75416   0.50000   0.00000  Uiso   1.00
C602   C     0.16666   0.91251   0.49995   0.00000  Uiso   1.00
C603   C     0.06792   0.83333   0.48790   0.00000  Uiso   1.00
C604   C     0.26542   0.83334   0.51210   0.00000  Uiso   1.00
C605   C     0.01262   0.83340   0.48125   0.00000  Uiso   1.00
C606   C     0.32072   0.83332   0.51875   0.00000  Uiso   1.00
C607   C     0.20662   0.68869   0.48268   0.00000  Uiso   1.00
C608   C     0.12478   0.97855   0.51593   0.00000  Uiso   1.00
C609   C     0.20683   0.97854   0.48307   0.00000  Uiso   1.00
C610   C     0.12586   0.68818   0.51690   0.00000  Uiso   1.00
C611   C     0.16587   0.95715   0.49952   0.00000  Uiso   1.00
C612   C     0.16629   0.70955   0.50006   0.00000  Uiso   1.00
C613   C     0.13270   0.80925   0.35383   0.00000  Uiso   1.00
C614   C     0.20063   0.85741   0.64617   0.00000  Uiso   1.00
C615   C     0.13271   0.80927   0.63759   0.00000  Uiso   1.00
C616   C     0.20062   0.85740   0.36241   0.00000  Uiso   1.00
Cu617  Cu    0.16667   0.83334   0.54689   0.00000  Uiso   1.00
Cu618  Cu    0.16667   0.83333   0.45311   0.00000  Uiso   1.00
H619   H     0.32592   0.83352   0.44531   0.00000  Uiso   1.00
H620   H     0.00742   0.83321   0.55469   0.00000  Uiso   1.00
H621   H     0.10553   0.78990   0.36903   0.00000  Uiso   1.00
H622   H     0.22780   0.87677   0.63096   0.00000  Uiso   1.00
H623   H     0.10553   0.78993   0.61552   0.00000  Uiso   1.00
H624   H     0.22780   0.87675   0.38448   0.00000  Uiso   1.00
N625   N     0.16668   0.83334   0.61736   0.00000  Uiso   1.00
N626   N     0.16665   0.83332   0.38264   0.00000  Uiso   1.00
O627   O     0.16666   0.77322   0.53958   0.00000  Uiso   1.00
O628   O     0.16667   0.89345   0.46042   0.00000  Uiso   1.00
O629   O     0.16666   0.77321   0.46039   0.00000  Uiso   1.00
O630   O     0.16667   0.89346   0.53961   0.00000  Uiso   1.00
O631   O     0.09161   0.83334   0.53046   0.00000  Uiso   1.00
O632   O     0.24172   0.83333   0.46954   0.00000  Uiso   1.00
O633   O     0.09161   0.83333   0.45127   0.00000  Uiso   1.00
O634   O     0.24172   0.83334   0.54873   0.00000  Uiso   1.00
O635   O     0.24543   0.71204   0.46716   0.00000  Uiso   1.00
H636   H     0.26922   0.69413   0.45250   0.00000  Uiso   1.00
O637   O     0.08275   0.95889   0.53065   0.00000  Uiso   1.00
H638   H     0.08047   0.93000   0.51930   0.00000  Uiso   1.00
Cl639  Cl    0.25942   0.95059   0.46583   0.00000  Uiso   1.00
Cl640  Cl    0.07394   0.71493   0.53655   0.00000  Uiso   1.00
C641   C     0.49973   0.75416   0.50000   0.00000  Uiso   1.00
C642   C     0.50000   0.91251   0.49995   0.00000  Uiso   1.00
C643   C     0.40125   0.83333   0.48790   0.00000  Uiso   1.00
C644   C     0.59875   0.83334   0.51210   0.00000  Uiso   1.00
C645   C     0.34595   0.83340   0.48125   0.00000  Uiso   1.00
C646   C     0.65405   0.83332   0.51875   0.00000  Uiso   1.00
C647   C     0.53996   0.68869   0.48268   0.00000  Uiso   1.00
C648   C     0.45811   0.97855   0.51593   0.00000  Uiso   1.00
C649   C     0.54017   0.97854   0.48307   0.00000  Uiso   1.00
C650   C     0.45919   0.68818   0.51690   0.00000  Uiso   1.00
C651   C     0.49920   0.95715   0.49952   0.00000  Uiso   1.00
C652   C     0.49962   0.70955   0.50006   0.00000  Uiso   1.00
C653   C     0.46603   0.80925   0.35383   0.00000  Uiso   1.00
C654   C     0.53396   0.85741   0.64617   0.00000  Uiso   1.00
C655   C     0.46604   0.80927   0.63759   0.00000  Uiso   1.00
C656   C     0.53395   0.85740   0.36241   0.00000  Uiso   1.00
Cu657  Cu    0.50000   0.83334   0.54689   0.00000  Uiso   1.00
Cu658  Cu    0.50000   0.83333   0.45311   0.00000  Uiso   1.00
H659   H     0.65925   0.83352   0.44531   0.00000  Uiso   1.00
H660   H     0.34075   0.83321   0.55469   0.00000  Uiso   1.00
H661   H     0.43886   0.78990   0.36903   0.00000  Uiso   1.00
H662   H     0.56114   0.87677   0.63096   0.00000  Uiso   1.00
H663   H     0.43886   0.78993   0.61552   0.00000  Uiso   1.00
H664   H     0.56113   0.87675   0.38448   0.00000  Uiso   1.00
N665   N     0.50001   0.83334   0.61736   0.00000  Uiso   1.00
N666   N     0.49999   0.83332   0.38264   0.00000  Uiso   1.00
O667   O     0.50000   0.77322   0.53958   0.00000  Uiso   1.00
O668   O     0.50000   0.89345   0.46042   0.00000  Uiso   1.00
O669   O     0.50000   0.77321   0.46039   0.00000  Uiso   1.00
O670   O     0.50000   0.89346   0.53961   0.00000  Uiso   1.00
O671   O     0.42495   0.83334   0.53046   0.00000  Uiso   1.00
O672   O     0.57505   0.83333   0.46954   0.00000  Uiso   1.00
O673   O     0.42494   0.83333   0.45127   0.00000  Uiso   1.00
O674   O     0.57506   0.83334   0.54873   0.00000  Uiso   1.00
O675   O     0.57876   0.71204   0.46716   0.00000  Uiso   1.00
H676   H     0.60255   0.69413   0.45250   0.00000  Uiso   1.00
O677   O     0.41608   0.95889   0.53065   0.00000  Uiso   1.00
H678   H     0.41381   0.93000   0.51930   0.00000  Uiso   1.00
Cl679  Cl    0.59276   0.95059   0.46583   0.00000  Uiso   1.00
Cl680  Cl    0.40728   0.71493   0.53655   0.00000  Uiso   1.00
C681   C     0.83306   0.75416   0.50000   0.00000  Uiso   1.00
C682   C     0.83333   0.91251   0.49995   0.00000  Uiso   1.00
C683   C     0.73459   0.83333   0.48790   0.00000  Uiso   1.00
C684   C     0.93208   0.83334   0.51210   0.00000  Uiso   1.00
C685   C     0.67928   0.83340   0.48125   0.00000  Uiso   1.00
C686   C     0.98739   0.83332   0.51875   0.00000  Uiso   1.00
C687   C     0.87329   0.68869   0.48268   0.00000  Uiso   1.00
C688   C     0.79144   0.97855   0.51593   0.00000  Uiso   1.00
C689   C     0.87350   0.97854   0.48307   0.00000  Uiso   1.00
C690   C     0.79252   0.68818   0.51690   0.00000  Uiso   1.00
C691   C     0.83254   0.95715   0.49952   0.00000  Uiso   1.00
C692   C     0.83296   0.70955   0.50006   0.00000  Uiso   1.00
C693   C     0.79937   0.80925   0.35383   0.00000  Uiso   1.00
C694   C     0.86730   0.85741   0.64617   0.00000  Uiso   1.00
C695   C     0.79938   0.80927   0.63759   0.00000  Uiso   1.00
C696   C     0.86729   0.85740   0.36241   0.00000  Uiso   1.00
Cu697  Cu    0.83333   0.83334   0.54689   0.00000  Uiso   1.00
Cu698  Cu    0.83333   0.83333   0.45311   0.00000  Uiso   1.00
H699   H     0.99258   0.83352   0.44531   0.00000  Uiso   1.00
H700   H     0.67409   0.83321   0.55469   0.00000  Uiso   1.00
H701   H     0.77219   0.78990   0.36903   0.00000  Uiso   1.00
H702   H     0.89447   0.87677   0.63096   0.00000  Uiso   1.00
H703   H     0.77220   0.78993   0.61552   0.00000  Uiso   1.00
H704   H     0.89446   0.87675   0.38448   0.00000  Uiso   1.00
N705   N     0.83335   0.83334   0.61736   0.00000  Uiso   1.00
N706   N     0.83332   0.83332   0.38264   0.00000  Uiso   1.00
O707   O     0.83333   0.77322   0.53958   0.00000  Uiso   1.00
O708   O     0.83334   0.89345   0.46042   0.00000  Uiso   1.00
O709   O     0.83333   0.77321   0.46039   0.00000  Uiso   1.00
O710   O     0.83334   0.89346   0.53961   0.00000  Uiso   1.00
O711   O     0.75828   0.83334   0.53046   0.00000  Uiso   1.00
O712   O     0.90839   0.83333   0.46954   0.00000  Uiso   1.00
O713   O     0.75828   0.83333   0.45127   0.00000  Uiso   1.00
O714   O     0.90839   0.83334   0.54873   0.00000  Uiso   1.00
O715   O     0.91209   0.71204   0.46716   0.00000  Uiso   1.00
H716   H     0.93589   0.69413   0.45250   0.00000  Uiso   1.00
O717   O     0.74941   0.95889   0.53065   0.00000  Uiso   1.00
H718   H     0.74714   0.93000   0.51930   0.00000  Uiso   1.00
Cl719  Cl    0.92609   0.95059   0.46583   0.00000  Uiso   1.00
Cl720  Cl    0.74061   0.71493   0.53655   0.00000  Uiso   1.00
C721   C     0.16639   0.08750   0.83333   0.00000  Uiso   1.00
C722   C     0.16666   0.24584   0.83328   0.00000  Uiso   1.00
C723   C     0.06792   0.16667   0.82123   0.00000  Uiso   1.00
C724   C     0.26542   0.16668   0.84543   0.00000  Uiso   1.00
C725   C     0.01262   0.16673   0.81459   0.00000  Uiso   1.00
C726   C     0.32072   0.16666   0.85208   0.00000  Uiso   1.00
C727   C     0.20662   0.02202   0.81601   0.00000  Uiso   1.00
C728   C     0.12478   0.31189   0.84926   0.00000  Uiso   1.00
C729   C     0.20683   0.31188   0.81641   0.00000  Uiso   1.00
C730   C     0.12586   0.02151   0.85023   0.00000  Uiso   1.00
C731   C     0.16587   0.29048   0.83285   0.00000  Uiso   1.00
C732   C     0.16629   0.04288   0.83339   0.00000  Uiso   1.00
C733   C     0.13270   0.14259   0.68716   0.00000  Uiso   1.00
C734   C     0.20063   0.19075   0.97951   0.00000  Uiso   1.00
C735   C     0.13271   0.14260   0.97092   0.00000  Uiso   1.00
C736   C     0.20062   0.19074   0.69574   0.00000  Uiso   1.00
Cu737  Cu    0.16667   0.16667   0.88022   0.00000  Uiso   1.00
Cu738  Cu    0.16667   0.16666   0.78645   0.00000  Uiso   1.00
H739   H     0.32592   0.16685   0.77864   0.00000  Uiso   1.00
H740   H     0.00742   0.16654   0.88803   0.00000  Uiso   1.00
H741   H     0.10553   0.12323   0.70237   0.00000  Uiso   1.00
H742   H     0.22780   0.21010   0.96430   0.00000  Uiso   1.00
H743   H     0.10553   0.12326   0.94885   0.00000  Uiso   1.00
H744   H     0.22780   0.21008   0.71782   0.00000  Uiso   1.00
N745   N     0.16668   0.16668   0.95069   0.00000  Uiso   1.00
N746   N     0.16665   0.16666   0.71597   0.00000  Uiso   1.00
O747   O     0.16666   0.10655   0.87291   0.00000  Uiso   1.00
O748   O     0.16667   0.22678   0.79375   0.00000  Uiso   1.00
O749   O     0.16666   0.10654   0.79372   0.00000  Uiso   1.00
O750   O     0.16667   0.22679   0.87294   0.00000  Uiso   1.00
O751   O     0.09161   0.16667   0.86379   0.00000  Uiso   1.00
O752   O     0.24172   0.16666   0.80288   0.00000  Uiso   1.00
O753   O     0.09161   0.16666   0.78460   0.00000  Uiso   1.00
O754   O     0.24172   0.16667   0.88207   0.00000  Uiso   1.00
O755   O     0.24543   0.04537   0.80050   0.00000  Uiso   1.00
H756   H     0.26922   0.02746   0.78583   0.00000  Uiso   1.00
O757   O     0.08275   0.29223   0.86398   0.00000  Uiso   1.00
H758   H     0.08047   0.26333   0.85264   0.00000  Uiso   1.00
Cl759  Cl    0.25942   0.28393   0.79916   0.00000  Uiso   1.00
Cl760  Cl    0.07394   0.04826   0.86989   0.00000  Uiso   1.00
C761   C     0.49973   0.08750   0.83333   0.00000  Uiso   1.00
C762   C     0.50000   0.24584   0.83328   0.00000  Uiso   1.00
C763   C     0.40125   0.16667   0.82123   0.00000  Uiso   1.00
C764   C     0.59875   0.16668   0.84543   0.00000  Uiso   1.00
C765   C     0.34595   0.16673   0.81459   0.00000  Uiso   1.00
C766   C     0.65405   0.16666   0.85208   0.00000  Uiso   1.00
C767   C     0.53996   0.02202   0.81601   0.00000  Uiso   1.00
C768   C     0.45811   0.31189   0.84926   0.00000  Uiso   1.00
C769   C     0.54017   0.31188   0.81641   0.00000  Uiso   1.00
C770   C     0.45919   0.02151   0.85023   0.00000  Uiso   1.00
C771   C     0.49920   0.29048   0.83285   0.00000  Uiso   1.00
C772   C     0.49962   0.04288   0.83339   0.00000  Uiso   1.00
C773   C     0.46603   0.14259   0.68716   0.00000  Uiso   1.00
C774   C     0.53396   0.19075   0.97951   0.00000  Uiso   1.00
C775   C     0.46604   0.14260   0.97092   0.00000  Uiso   1.00
C776   C     0.53395   0.19074   0.69574   0.00000  Uiso   1.00
Cu777  Cu    0.50000   0.16667   0.88022   0.00000  Uiso   1.00
Cu778  Cu    0.50000   0.16666   0.78645   0.00000  Uiso   1.00
H779   H     0.65925   0.16685   0.77864   0.00000  Uiso   1.00
H780   H     0.34075   0.16654   0.88803   0.00000  Uiso   1.00
H781   H     0.43886   0.12323   0.70237   0.00000  Uiso   1.00
H782   H     0.56114   0.21010   0.96430   0.00000  Uiso   1.00
H783   H     0.43886   0.12326   0.94885   0.00000  Uiso   1.00
H784   H     0.56113   0.21008   0.71782   0.00000  Uiso   1.00
N785   N     0.50001   0.16668   0.95069   0.00000  Uiso   1.00
N786   N     0.49999   0.16666   0.71597   0.00000  Uiso   1.00
O787   O     0.50000   0.10655   0.87291   0.00000  Uiso   1.00
O788   O     0.50000   0.22678   0.79375   0.00000  Uiso   1.00
O789   O     0.50000   0.10654   0.79372   0.00000  Uiso   1.00
O790   O     0.50000   0.22679   0.87294   0.00000  Uiso   1.00
O791   O     0.42495   0.16667   0.86379   0.00000  Uiso   1.00
O792   O     0.57505   0.16666   0.80288   0.00000  Uiso   1.00
O793   O     0.42494   0.16666   0.78460   0.00000  Uiso   1.00
O794   O     0.57506   0.16667   0.88207   0.00000  Uiso   1.00
O795   O     0.57876   0.04537   0.80050   0.00000  Uiso   1.00
H796   H     0.60255   0.02746   0.78583   0.00000  Uiso   1.00
O797   O     0.41608   0.29223   0.86398   0.00000  Uiso   1.00
H798   H     0.41381   0.26333   0.85264   0.00000  Uiso   1.00
Cl799  Cl    0.59276   0.28393   0.79916   0.00000  Uiso   1.00
Cl800  Cl    0.40728   0.04826   0.86989   0.00000  Uiso   1.00
C801   C     0.83306   0.08750   0.83333   0.00000  Uiso   1.00
C802   C     0.83333   0.24584   0.83328   0.00000  Uiso   1.00
C803   C     0.73459   0.16667   0.82123   0.00000  Uiso   1.00
C804   C     0.93208   0.16668   0.84543   0.00000  Uiso   1.00
C805   C     0.67928   0.16673   0.81459   0.00000  Uiso   1.00
C806   C     0.98739   0.16666   0.85208   0.00000  Uiso   1.00
C807   C     0.87329   0.02202   0.81601   0.00000  Uiso   1.00
C808   C     0.79144   0.31189   0.84926   0.00000  Uiso   1.00
C809   C     0.87350   0.31188   0.81641   0.00000  Uiso   1.00
C810   C     0.79252   0.02151   0.85023   0.00000  Uiso   1.00
C811   C     0.83254   0.29048   0.83285   0.00000  Uiso   1.00
C812   C     0.83296   0.04288   0.83339   0.00000  Uiso   1.00
C813   C     0.79937   0.14259   0.68716   0.00000  Uiso   1.00
C814   C     0.86730   0.19075   0.97951   0.00000  Uiso   1.00
C815   C     0.79938   0.14260   0.97092   0.00000  Uiso   1.00
C816   C     0.86729   0.19074   0.69574   0.00000  Uiso   1.00
Cu817  Cu    0.83333   0.16667   0.88022   0.00000  Uiso   1.00
Cu818  Cu    0.83333   0.16666   0.78645   0.00000  Uiso   1.00
H819   H     0.99258   0.16685   0.77864   0.00000  Uiso   1.00
H820   H     0.67409   0.16654   0.88803   0.00000  Uiso   1.00
H821   H     0.77219   0.12323   0.70237   0.00000  Uiso   1.00
H822   H     0.89447   0.21010   0.96430   0.00000  Uiso   1.00
H823   H     0.77220   0.12326   0.94885   0.00000  Uiso   1.00
H824   H     0.89446   0.21008   0.71782   0.00000  Uiso   1.00
N825   N     0.83335   0.16668   0.95069   0.00000  Uiso   1.00
N826   N     0.83332   0.16666   0.71597   0.00000  Uiso   1.00
O827   O     0.83333   0.10655   0.87291   0.00000  Uiso   1.00
O828   O     0.83334   0.22678   0.79375   0.00000  Uiso   1.00
O829   O     0.83333   0.10654   0.79372   0.00000  Uiso   1.00
O830   O     0.83334   0.22679   0.87294   0.00000  Uiso   1.00
O831   O     0.75828   0.16667   0.86379   0.00000  Uiso   1.00
O832   O     0.90839   0.16666   0.80288   0.00000  Uiso   1.00
O833   O     0.75828   0.16666   0.78460   0.00000  Uiso   1.00
O834   O     0.90839   0.16667   0.88207   0.00000  Uiso   1.00
O835   O     0.91209   0.04537   0.80050   0.00000  Uiso   1.00
H836   H     0.93589   0.02746   0.78583   0.00000  Uiso   1.00
O837   O     0.74941   0.29223   0.86398   0.00000  Uiso   1.00
H838   H     0.74714   0.26333   0.85264   0.00000  Uiso   1.00
Cl839  Cl    0.92609   0.28393   0.79916   0.00000  Uiso   1.00
Cl840  Cl    0.74061   0.04826   0.86989   0.00000  Uiso   1.00
C841   C     0.16639   0.42083   0.83333   0.00000  Uiso   1.00
C842   C     0.16666   0.57917   0.83328   0.00000  Uiso   1.00
C843   C     0.06792   0.50000   0.82123   0.00000  Uiso   1.00
C844   C     0.26542   0.50001   0.84543   0.00000  Uiso   1.00
C845   C     0.01262   0.50006   0.81459   0.00000  Uiso   1.00
C846   C     0.32072   0.49999   0.85208   0.00000  Uiso   1.00
C847   C     0.20662   0.35536   0.81601   0.00000  Uiso   1.00
C848   C     0.12478   0.64522   0.84926   0.00000  Uiso   1.00
C849   C     0.20683   0.64521   0.81641   0.00000  Uiso   1.00
C850   C     0.12586   0.35484   0.85023   0.00000  Uiso   1.00
C851   C     0.16587   0.62382   0.83285   0.00000  Uiso   1.00
C852   C     0.16629   0.37621   0.83339   0.00000  Uiso   1.00
C853   C     0.13270   0.47592   0.68716   0.00000  Uiso   1.00
C854   C     0.20063   0.52408   0.97951   0.00000  Uiso   1.00
C855   C     0.13271   0.47593   0.97092   0.00000  Uiso   1.00
C856   C     0.20062   0.52407   0.69574   0.00000  Uiso   1.00
Cu857  Cu    0.16667   0.50001   0.88022   0.00000  Uiso   1.00
Cu858  Cu    0.16667   0.49999   0.78645   0.00000  Uiso   1.00
H859   H     0.32592   0.50018   0.77864   0.00000  Uiso   1.00
H860   H     0.00742   0.49988   0.88803   0.00000  Uiso   1.00
H861   H     0.10553   0.45656   0.70237   0.00000  Uiso   1.00
H862   H     0.22780   0.54344   0.96430   0.00000  Uiso   1.00
H863   H     0.10553   0.45659   0.94885   0.00000  Uiso   1.00
H864   H     0.22780   0.54341   0.71782   0.00000  Uiso   1.00
N865   N     0.16668   0.50001   0.95069   0.00000  Uiso   1.00
N866   N     0.16665   0.49999   0.71597   0.00000  Uiso   1.00
O867   O     0.16666   0.43989   0.87291   0.00000  Uiso   1.00
O868   O     0.16667   0.56011   0.79375   0.00000  Uiso   1.00
O869   O     0.16666   0.43988   0.79372   0.00000  Uiso   1.00
O870   O     0.16667   0.56012   0.87294   0.00000  Uiso   1.00
O871   O     0.09161   0.50000   0.86379   0.00000  Uiso   1.00
O872   O     0.24172   0.50000   0.80288   0.00000  Uiso   1.00
O873   O     0.09161   0.49999   0.78460   0.00000  Uiso   1.00
O874   O     0.24172   0.50001   0.88207   0.00000  Uiso   1.00
O875   O     0.24543   0.37870   0.80050   0.00000  Uiso   1.00
H876   H     0.26922   0.36079   0.78583   0.00000  Uiso   1.00
O877   O     0.08275   0.62556   0.86398   0.00000  Uiso   1.00
H878   H     0.08047   0.59666   0.85264   0.00000  Uiso   1.00
Cl879  Cl    0.25942   0.61726   0.79916   0.00000  Uiso   1.00
Cl880  Cl    0.07394   0.38160   0.86989   0.00000  Uiso   1.00
C881   C     0.49973   0.42083   0.83333   0.00000  Uiso   1.00
C882   C     0.50000   0.57917   0.83328   0.00000  Uiso   1.00
C883   C     0.40125   0.50000   0.82123   0.00000  Uiso   1.00
C884   C     0.59875   0.50001   0.84543   0.00000  Uiso   1.00
C885   C     0.34595   0.50006   0.81459   0.00000  Uiso   1.00
C886   C     0.65405   0.49999   0.85208   0.00000  Uiso   1.00
C887   C     0.53996   0.35536   0.81601   0.00000  Uiso   1.00
C888   C     0.45811   0.64522   0.84926   0.00000  Uiso   1.00
C889   C     0.54017   0.64521   0.81641   0.00000  Uiso   1.00
C890   C     0.45919   0.35484   0.85023   0.00000  Uiso   1.00
C891   C     0.49920   0.62382   0.83285   0.00000  Uiso   1.00
C892   C     0.49962   0.37621   0.83339   0.00000  Uiso   1.00
C893   C     0.46603   0.47592   0.68716   0.00000  Uiso   1.00
C894   C     0.53396   0.52408   0.97951   0.00000  Uiso   1.00
C895   C     0.46604   0.47593   0.97092   0.00000  Uiso   1.00
C896   C     0.53395   0.52407   0.69574   0.00000  Uiso   1.00
Cu897  Cu    0.50000   0.50001   0.88022   0.00000  Uiso   1.00
Cu898  Cu    0.50000   0.49999   0.78645   0.00000  Uiso   1.00
H899   H     0.65925   0.50018   0.77864   0.00000  Uiso   1.00
H900   H     0.34075   0.49988   0.88803   0.00000  Uiso   1.00
H901   H     0.43886   0.45656   0.70237   0.00000  Uiso   1.00
H902   H     0.56114   0.54344   0.96430   0.00000  Uiso   1.00
H903   H     0.43886   0.45659   0.94885   0.00000  Uiso   1.00
H904   H     0.56113   0.54341   0.71782   0.00000  Uiso   1.00
N905   N     0.50001   0.50001   0.95069   0.00000  Uiso   1.00
N906   N     0.49999   0.49999   0.71597   0.00000  Uiso   1.00
O907   O     0.50000   0.43989   0.87291   0.00000  Uiso   1.00
O908   O     0.50000   0.56011   0.79375   0.00000  Uiso   1.00
O909   O     0.50000   0.43988   0.79372   0.00000  Uiso   1.00
O910   O     0.50000   0.56012   0.87294   0.00000  Uiso   1.00
O911   O     0.42495   0.50000   0.86379   0.00000  Uiso   1.00
O912   O     0.57505   0.50000   0.80288   0.00000  Uiso   1.00
O913   O     0.42494   0.49999   0.78460   0.00000  Uiso   1.00
O914   O     0.57506   0.50001   0.88207   0.00000  Uiso   1.00
O915   O     0.57876   0.37870   0.80050   0.00000  Uiso   1.00
H916   H     0.60255   0.36079   0.78583   0.00000  Uiso   1.00
O917   O     0.41608   0.62556   0.86398   0.00000  Uiso   1.00
H918   H     0.41381   0.59666   0.85264   0.00000  Uiso   1.00
Cl919  Cl    0.59276   0.61726   0.79916   0.00000  Uiso   1.00
Cl920  Cl    0.40728   0.38160   0.86989   0.00000  Uiso   1.00
C921   C     0.83306   0.42083   0.83333   0.00000  Uiso   1.00
C922   C     0.83333   0.57917   0.83328   0.00000  Uiso   1.00
C923   C     0.73459   0.50000   0.82123   0.00000  Uiso   1.00
C924   C     0.93208   0.50001   0.84543   0.00000  Uiso   1.00
C925   C     0.67928   0.50006   0.81459   0.00000  Uiso   1.00
C926   C     0.98739   0.49999   0.85208   0.00000  Uiso   1.00
C927   C     0.87329   0.35536   0.81601   0.00000  Uiso   1.00
C928   C     0.79144   0.64522   0.84926   0.00000  Uiso   1.00
C929   C     0.87350   0.64521   0.81641   0.00000  Uiso   1.00
C930   C     0.79252   0.35484   0.85023   0.00000  Uiso   1.00
C931   C     0.83254   0.62382   0.83285   0.00000  Uiso   1.00
C932   C     0.83296   0.37621   0.83339   0.00000  Uiso   1.00
C933   C     0.79937   0.47592   0.68716   0.00000  Uiso   1.00
C934   C     0.86730   0.52408   0.97951   0.00000  Uiso   1.00
C935   C     0.79938   0.47593   0.97092   0.00000  Uiso   1.00
C936   C     0.86729   0.52407   0.69574   0.00000  Uiso   1.00
Cu937  Cu    0.83333   0.50001   0.88022   0.00000  Uiso   1.00
Cu938  Cu    0.83333   0.49999   0.78645   0.00000  Uiso   1.00
H939   H     0.99258   0.50018   0.77864   0.00000  Uiso   1.00
H940   H     0.67409   0.49988   0.88803   0.00000  Uiso   1.00
H941   H     0.77219   0.45656   0.70237   0.00000  Uiso   1.00
H942   H     0.89447   0.54344   0.96430   0.00000  Uiso   1.00
H943   H     0.77220   0.45659   0.94885   0.00000  Uiso   1.00
H944   H     0.89446   0.54341   0.71782   0.00000  Uiso   1.00
N945   N     0.83335   0.50001   0.95069   0.00000  Uiso   1.00
N946   N     0.83332   0.49999   0.71597   0.00000  Uiso   1.00
O947   O     0.83333   0.43989   0.87291   0.00000  Uiso   1.00
O948   O     0.83334   0.56011   0.79375   0.00000  Uiso   1.00
O949   O     0.83333   0.43988   0.79372   0.00000  Uiso   1.00
O950   O     0.83334   0.56012   0.87294   0.00000  Uiso   1.00
O951   O     0.75828   0.50000   0.86379   0.00000  Uiso   1.00
O952   O     0.90839   0.50000   0.80288   0.00000  Uiso   1.00
O953   O     0.75828   0.49999   0.78460   0.00000  Uiso   1.00
O954   O     0.90839   0.50001   0.88207   0.00000  Uiso   1.00
O955   O     0.91209   0.37870   0.80050   0.00000  Uiso   1.00
H956   H     0.93589   0.36079   0.78583   0.00000  Uiso   1.00
O957   O     0.74941   0.62556   0.86398   0.00000  Uiso   1.00
H958   H     0.74714   0.59666   0.85264   0.00000  Uiso   1.00
Cl959  Cl    0.92609   0.61726   0.79916   0.00000  Uiso   1.00
Cl960  Cl    0.74061   0.38160   0.86989   0.00000  Uiso   1.00
C961   C     0.16639   0.75416   0.83333   0.00000  Uiso   1.00
C962   C     0.16666   0.91251   0.83328   0.00000  Uiso   1.00
C963   C     0.06792   0.83333   0.82123   0.00000  Uiso   1.00
C964   C     0.26542   0.83334   0.84543   0.00000  Uiso   1.00
C965   C     0.01262   0.83340   0.81459   0.00000  Uiso   1.00
C966   C     0.32072   0.83332   0.85208   0.00000  Uiso   1.00
C967   C     0.20662   0.68869   0.81601   0.00000  Uiso   1.00
C968   C     0.12478   0.97855   0.84926   0.00000  Uiso   1.00
C969   C     0.20683   0.97854   0.81641   0.00000  Uiso   1.00
C970   C     0.12586   0.68818   0.85023   0.00000  Uiso   1.00
C971   C     0.16587   0.95715   0.83285   0.00000  Uiso   1.00
C972   C     0.16629   0.70955   0.83339   0.00000  Uiso   1.00
C973   C     0.13270   0.80925   0.68716   0.00000  Uiso   1.00
C974   C     0.20063   0.85741   0.97951   0.00000  Uiso   1.00
C975   C     0.13271   0.80927   0.97092   0.00000  Uiso   1.00
C976   C     0.20062   0.85740   0.69574   0.00000  Uiso   1.00
Cu977  Cu    0.16667   0.83334   0.88022   0.00000  Uiso   1.00
Cu978  Cu    0.16667   0.83333   0.78645   0.00000  Uiso   1.00
H979   H     0.32592   0.83352   0.77864   0.00000  Uiso   1.00
H980   H     0.00742   0.83321   0.88803   0.00000  Uiso   1.00
H981   H     0.10553   0.78990   0.70237   0.00000  Uiso   1.00
H982   H     0.22780   0.87677   0.96430   0.00000  Uiso   1.00
H983   H     0.10553   0.78993   0.94885   0.00000  Uiso   1.00
H984   H     0.22780   0.87675   0.71782   0.00000  Uiso   1.00
N985   N     0.16668   0.83334   0.95069   0.00000  Uiso   1.00
N986   N     0.16665   0.83332   0.71597   0.00000  Uiso   1.00
O987   O     0.16666   0.77322   0.87291   0.00000  Uiso   1.00
O988   O     0.16667   0.89345   0.79375   0.00000  Uiso   1.00
O989   O     0.16666   0.77321   0.79372   0.00000  Uiso   1.00
O990   O     0.16667   0.89346   0.87294   0.00000  Uiso   1.00
O991   O     0.09161   0.83334   0.86379   0.00000  Uiso   1.00
O992   O     0.24172   0.83333   0.80288   0.00000  Uiso   1.00
O993   O     0.09161   0.83333   0.78460   0.00000  Uiso   1.00
O994   O     0.24172   0.83334   0.88207   0.00000  Uiso   1.00
O995   O     0.24543   0.71204   0.80050   0.00000  Uiso   1.00
H996   H     0.26922   0.69413   0.78583   0.00000  Uiso   1.00
O997   O     0.08275   0.95889   0.86398   0.00000  Uiso   1.00
H998   H     0.08047   0.93000   0.85264   0.00000  Uiso   1.00
Cl999  Cl    0.25942   0.95059   0.79916   0.00000  Uiso   1.00
Cl1000 Cl    0.07394   0.71493   0.86989   0.00000  Uiso   1.00
C1001  C     0.49973   0.75416   0.83333   0.00000  Uiso   1.00
C1002  C     0.50000   0.91251   0.83328   0.00000  Uiso   1.00
C1003  C     0.40125   0.83333   0.82123   0.00000  Uiso   1.00
C1004  C     0.59875   0.83334   0.84543   0.00000  Uiso   1.00
C1005  C     0.34595   0.83340   0.81459   0.00000  Uiso   1.00
C1006  C     0.65405   0.83332   0.85208   0.00000  Uiso   1.00
C1007  C     0.53996   0.68869   0.81601   0.00000  Uiso   1.00
C1008  C     0.45811   0.97855   0.84926   0.00000  Uiso   1.00
C1009  C     0.54017   0.97854   0.81641   0.00000  Uiso   1.00
C1010  C     0.45919   0.68818   0.85023   0.00000  Uiso   1.00
C1011  C     0.49920   0.95715   0.83285   0.00000  Uiso   1.00
C1012  C     0.49962   0.70955   0.83339   0.00000  Uiso   1.00
C1013  C     0.46603   0.80925   0.68716   0.00000  Uiso   1.00
C1014  C     0.53396   0.85741   0.97951   0.00000  Uiso   1.00
C1015  C     0.46604   0.80927   0.97092   0.00000  Uiso   1.00
C1016  C     0.53395   0.85740   0.69574   0.00000  Uiso   1.00
Cu1017 Cu    0.50000   0.83334   0.88022   0.00000  Uiso   1.00
Cu1018 Cu    0.50000   0.83333   0.78645   0.00000  Uiso   1.00
H1019  H     0.65925   0.83352   0.77864   0.00000  Uiso   1.00
H1020  H     0.34075   0.83321   0.88803   0.00000  Uiso   1.00
H1021  H     0.43886   0.78990   0.70237   0.00000  Uiso   1.00
H1022  H     0.56114   0.87677   0.96430   0.00000  Uiso   1.00
H1023  H     0.43886   0.78993   0.94885   0.00000  Uiso   1.00
H1024  H     0.56113   0.87675   0.71782   0.00000  Uiso   1.00
N1025  N     0.50001   0.83334   0.95069   0.00000  Uiso   1.00
N1026  N     0.49999   0.83332   0.71597   0.00000  Uiso   1.00
O1027  O     0.50000   0.77322   0.87291   0.00000  Uiso   1.00
O1028  O     0.50000   0.89345   0.79375   0.00000  Uiso   1.00
O1029  O     0.50000   0.77321   0.79372   0.00000  Uiso   1.00
O1030  O     0.50000   0.89346   0.87294   0.00000  Uiso   1.00
O1031  O     0.42495   0.83334   0.86379   0.00000  Uiso   1.00
O1032  O     0.57505   0.83333   0.80288   0.00000  Uiso   1.00
O1033  O     0.42494   0.83333   0.78460   0.00000  Uiso   1.00
O1034  O     0.57506   0.83334   0.88207   0.00000  Uiso   1.00
O1035  O     0.57876   0.71204   0.80050   0.00000  Uiso   1.00
H1036  H     0.60255   0.69413   0.78583   0.00000  Uiso   1.00
O1037  O     0.41608   0.95889   0.86398   0.00000  Uiso   1.00
H1038  H     0.41381   0.93000   0.85264   0.00000  Uiso   1.00
Cl1039 Cl    0.59276   0.95059   0.79916   0.00000  Uiso   1.00
Cl1040 Cl    0.40728   0.71493   0.86989   0.00000  Uiso   1.00
C1041  C     0.83306   0.75416   0.83333   0.00000  Uiso   1.00
C1042  C     0.83333   0.91251   0.83328   0.00000  Uiso   1.00
C1043  C     0.73459   0.83333   0.82123   0.00000  Uiso   1.00
C1044  C     0.93208   0.83334   0.84543   0.00000  Uiso   1.00
C1045  C     0.67928   0.83340   0.81459   0.00000  Uiso   1.00
C1046  C     0.98739   0.83332   0.85208   0.00000  Uiso   1.00
C1047  C     0.87329   0.68869   0.81601   0.00000  Uiso   1.00
C1048  C     0.79144   0.97855   0.84926   0.00000  Uiso   1.00
C1049  C     0.87350   0.97854   0.81641   0.00000  Uiso   1.00
C1050  C     0.79252   0.68818   0.85023   0.00000  Uiso   1.00
C1051  C     0.83254   0.95715   0.83285   0.00000  Uiso   1.00
C1052  C     0.83296   0.70955   0.83339   0.00000  Uiso   1.00
C1053  C     0.79937   0.80925   0.68716   0.00000  Uiso   1.00
C1054  C     0.86730   0.85741   0.97951   0.00000  Uiso   1.00
C1055  C     0.79938   0.80927   0.97092   0.00000  Uiso   1.00
C1056  C     0.86729   0.85740   0.69574   0.00000  Uiso   1.00
Cu1057 Cu    0.83333   0.83334   0.88022   0.00000  Uiso   1.00
Cu1058 Cu    0.83333   0.83333   0.78645   0.00000  Uiso   1.00
H1059  H     0.99258   0.83352   0.77864   0.00000  Uiso   1.00
H1060  H     0.67409   0.83321   0.88803   0.00000  Uiso   1.00
H1061  H     0.77219   0.78990   0.70237   0.00000  Uiso   1.00
H1062  H     0.89447   0.87677   0.96430   0.00000  Uiso   1.00
H1063  H     0.77220   0.78993   0.94885   0.00000  Uiso   1.00
H1064  H     0.89446   0.87675   0.71782   0.00000  Uiso   1.00
N1065  N     0.83335   0.83334   0.95069   0.00000  Uiso   1.00
N1066  N     0.83332   0.83332   0.71597   0.00000  Uiso   1.00
O1067  O     0.83333   0.77322   0.87291   0.00000  Uiso   1.00
O1068  O     0.83334   0.89345   0.79375   0.00000  Uiso   1.00
O1069  O     0.83333   0.77321   0.79372   0.00000  Uiso   1.00
O1070  O     0.83334   0.89346   0.87294   0.00000  Uiso   1.00
O1071  O     0.75828   0.83334   0.86379   0.00000  Uiso   1.00
O1072  O     0.90839   0.83333   0.80288   0.00000  Uiso   1.00
O1073  O     0.75828   0.83333   0.78460   0.00000  Uiso   1.00
O1074  O     0.90839   0.83334   0.88207   0.00000  Uiso   1.00
O1075  O     0.91209   0.71204   0.80050   0.00000  Uiso   1.00
H1076  H     0.93589   0.69413   0.78583   0.00000  Uiso   1.00
O1077  O     0.74941   0.95889   0.86398   0.00000  Uiso   1.00
H1078  H     0.74714   0.93000   0.85264   0.00000  Uiso   1.00
Cl1079 Cl    0.92609   0.95059   0.79916   0.00000  Uiso   1.00
Cl1080 Cl    0.74061   0.71493   0.86989   0.00000  Uiso   1.00
loop_
_geom_bond_atom_site_label_1
_geom_bond_atom_site_label_2
_geom_bond_distance
_geom_bond_site_symmetry_2
_ccdc_geom_bond_type
C1     O29     1.289   .     A
C1     C12     1.443   .     S
C1     O27     1.289   .     A
C2     O30     1.290   .     A
C2     C11     1.444   .     S
C2     O28     1.288   .     A
C3     O31     1.287   .     A
C3     O33     1.290   .     A
C3     C5      1.434   .     S
C4     O32     1.287   .     A
C4     O34     1.290   .     A
C4     C6      1.434   .     S
C5     C86     1.335   1_455 S
C5     H99     1.087   1_455 S
C6     C45     1.335   .     S
C6     H60     1.087   .     S
C7     C12     1.403   .     A
C7     O35     1.385   .     S
C7     C249    1.406   1_545 S
C8     C11     1.415   .     A
C8     O37     1.385   .     S
C8     C130    1.389   .     S
C9     C11     1.409   .     A
C9     Cl39    1.776   .     S
C9     C127    1.406   .     S
C10    C12     1.403   .     A
C10    Cl40    1.770   .     S
C10    C248    1.389   1_545 S
C13    H21     1.082   .     S
C13    N26     1.367   .     A
C13    C735    1.418   1_554 S
C14    H22     1.082   .     S
C14    N25     1.367   .     A
C14    C376    1.418   .     S
C15    H23     1.082   .     S
C15    N25     1.368   .     A
C15    C373    1.418   .     S
C16    H24     1.082   .     S
C16    N26     1.368   .     A
C16    C734    1.418   1_554 S
Cu17   N25     2.016   .     S
Cu17   Cu18    2.682   .     S
Cu17   O30     1.955   .     S
Cu17   O31     1.956   .     S
Cu17   O27     1.955   .     S
Cu17   O34     1.959   .     S
Cu18   N26     2.016   .     S
Cu18   O29     1.955   .     S
Cu18   O33     1.959   .     S
Cu18   O32     1.956   .     S
Cu18   O28     1.955   .     S
H19    C45     1.087   .     S
H20    C86     1.087   1_455 S
O35    H36     0.987   .     S
O37    H38     0.989   .     S
C41    O69     1.289   .     A
C41    C52     1.443   .     S
C41    O67     1.289   .     A
C42    O70     1.290   .     A
C42    C51     1.444   .     S
C42    O68     1.288   .     A
C43    O71     1.287   .     A
C43    O73     1.290   .     A
C43    C45     1.434   .     S
C44    O72     1.287   .     A
C44    O74     1.290   .     A
C44    C46     1.434   .     S
C46    C85     1.335   .     S
C46    H100    1.087   .     S
C47    C52     1.403   .     A
C47    O75     1.385   .     S
C47    C289    1.406   1_545 S
C48    C51     1.415   .     A
C48    O77     1.385   .     S
C48    C170    1.389   .     S
C49    C51     1.409   .     A
C49    Cl79    1.776   .     S
C49    C167    1.406   .     S
C50    C52     1.403   .     A
C50    Cl80    1.770   .     S
C50    C288    1.389   1_545 S
C53    H61     1.082   .     S
C53    N66     1.367   .     A
C53    C775    1.418   1_554 S
C54    H62     1.082   .     S
C54    N65     1.367   .     A
C54    C416    1.418   .     S
C55    H63     1.082   .     S
C55    N65     1.368   .     A
C55    C413    1.418   .     S
C56    H64     1.082   .     S
C56    N66     1.368   .     A
C56    C774    1.418   1_554 S
Cu57   N65     2.016   .     S
Cu57   Cu58    2.682   .     S
Cu57   O70     1.955   .     S
Cu57   O71     1.956   .     S
Cu57   O67     1.955   .     S
Cu57   O74     1.959   .     S
Cu58   N66     2.016   .     S
Cu58   O69     1.955   .     S
Cu58   O73     1.959   .     S
Cu58   O72     1.956   .     S
Cu58   O68     1.955   .     S
H59    C85     1.087   .     S
O75    H76     0.987   .     S
O77    H78     0.989   .     S
C81    O109    1.289   .     A
C81    C92     1.443   .     S
C81    O107    1.289   .     A
C82    O110    1.290   .     A
C82    C91     1.444   .     S
C82    O108    1.288   .     A
C83    O111    1.287   .     A
C83    O113    1.290   .     A
C83    C85     1.434   .     S
C84    O112    1.287   .     A
C84    O114    1.290   .     A
C84    C86     1.434   .     S
C86    C5      1.335   1_655 S
C86    H20     1.087   1_655 S
C87    C92     1.403   .     A
C87    O115    1.385   .     S
C87    C329    1.406   1_545 S
C88    C91     1.415   .     A
C88    O117    1.385   .     S
C88    C210    1.389   .     S
C89    C91     1.409   .     A
C89    Cl119   1.776   .     S
C89    C207    1.406   .     S
C90    C92     1.403   .     A
C90    Cl120   1.770   .     S
C90    C328    1.389   1_545 S
C93    H101    1.082   .     S
C93    N106    1.367   .     A
C93    C815    1.418   1_554 S
C94    H102    1.082   .     S
C94    N105    1.367   .     A
C94    C456    1.418   .     S
C95    H103    1.082   .     S
C95    N105    1.368   .     A
C95    C453    1.418   .     S
C96    H104    1.082   .     S
C96    N106    1.368   .     A
C96    C814    1.418   1_554 S
Cu97   N105    2.016   .     S
Cu97   Cu98    2.682   .     S
Cu97   O110    1.955   .     S
Cu97   O111    1.956   .     S
Cu97   O107    1.955   .     S
Cu97   O114    1.959   .     S
Cu98   N106    2.016   .     S
Cu98   O109    1.955   .     S
Cu98   O113    1.959   .     S
Cu98   O112    1.956   .     S
Cu98   O108    1.955   .     S
H99    C5      1.087   1_655 S
O115   H116    0.987   .     S
O117   H118    0.989   .     S
C121   O149    1.289   .     A
C121   C132    1.443   .     S
C121   O147    1.289   .     A
C122   O150    1.290   .     A
C122   C131    1.444   .     S
C122   O148    1.288   .     A
C123   O151    1.287   .     A
C123   O153    1.290   .     A
C123   C125    1.434   .     S
C124   O152    1.287   .     A
C124   O154    1.290   .     A
C124   C126    1.434   .     S
C125   C206    1.335   1_455 S
C125   H219    1.087   1_455 S
C126   C165    1.335   .     S
C126   H180    1.087   .     S
C127   C132    1.403   .     A
C127   O155    1.385   .     S
C128   C131    1.415   .     A
C128   O157    1.385   .     S
C128   C250    1.389   .     S
C129   C131    1.409   .     A
C129   Cl159   1.776   .     S
C129   C247    1.406   .     S
C130   C132    1.403   .     A
C130   Cl160   1.770   .     S
C133   H141    1.082   .     S
C133   N146    1.367   .     A
C133   C855    1.418   1_554 S
C134   H142    1.082   .     S
C134   N145    1.367   .     A
C134   C496    1.418   .     S
C135   H143    1.082   .     S
C135   N145    1.368   .     A
C135   C493    1.418   .     S
C136   H144    1.082   .     S
C136   N146    1.368   .     A
C136   C854    1.418   1_554 S
Cu137  N145    2.016   .     S
Cu137  Cu138   2.682   .     S
Cu137  O150    1.955   .     S
Cu137  O151    1.956   .     S
Cu137  O147    1.955   .     S
Cu137  O154    1.959   .     S
Cu138  N146    2.016   .     S
Cu138  O149    1.955   .     S
Cu138  O153    1.959   .     S
Cu138  O152    1.956   .     S
Cu138  O148    1.955   .     S
H139   C165    1.087   .     S
H140   C206    1.087   1_455 S
O155   H156    0.987   .     S
O157   H158    0.989   .     S
C161   O189    1.289   .     A
C161   C172    1.443   .     S
C161   O187    1.289   .     A
C162   O190    1.290   .     A
C162   C171    1.444   .     S
C162   O188    1.288   .     A
C163   O191    1.287   .     A
C163   O193    1.290   .     A
C163   C165    1.434   .     S
C164   O192    1.287   .     A
C164   O194    1.290   .     A
C164   C166    1.434   .     S
C166   C205    1.335   .     S
C166   H220    1.087   .     S
C167   C172    1.403   .     A
C167   O195    1.385   .     S
C168   C171    1.415   .     A
C168   O197    1.385   .     S
C168   C290    1.389   .     S
C169   C171    1.409   .     A
C169   Cl199   1.776   .     S
C169   C287    1.406   .     S
C170   C172    1.403   .     A
C170   Cl200   1.770   .     S
C173   H181    1.082   .     S
C173   N186    1.367   .     A
C173   C895    1.418   1_554 S
C174   H182    1.082   .     S
C174   N185    1.367   .     A
C174   C536    1.418   .     S
C175   H183    1.082   .     S
C175   N185    1.368   .     A
C175   C533    1.418   .     S
C176   H184    1.082   .     S
C176   N186    1.368   .     A
C176   C894    1.418   1_554 S
Cu177  N185    2.016   .     S
Cu177  Cu178   2.682   .     S
Cu177  O190    1.955   .     S
Cu177  O191    1.956   .     S
Cu177  O187    1.955   .     S
Cu177  O194    1.959   .     S
Cu178  N186    2.016   .     S
Cu178  O189    1.955   .     S
Cu178  O193    1.959   .     S
Cu178  O192    1.956   .     S
Cu178  O188    1.955   .     S
H179   C205    1.087   .     S
O195   H196    0.987   .     S
O197   H198    0.989   .     S
C201   O229    1.289   .     A
C201   C212    1.443   .     S
C201   O227    1.289   .     A
C202   O230    1.290   .     A
C202   C211    1.444   .     S
C202   O228    1.288   .     A
C203   O231    1.287   .     A
C203   O233    1.290   .     A
C203   C205    1.434   .     S
C204   O232    1.287   .     A
C204   O234    1.290   .     A
C204   C206    1.434   .     S
C206   C125    1.335   1_655 S
C206   H140    1.087   1_655 S
C207   C212    1.403   .     A
C207   O235    1.385   .     S
C208   C211    1.415   .     A
C208   O237    1.385   .     S
C208   C330    1.389   .     S
C209   C211    1.409   .     A
C209   Cl239   1.776   .     S
C209   C327    1.406   .     S
C210   C212    1.403   .     A
C210   Cl240   1.770   .     S
C213   H221    1.082   .     S
C213   N226    1.367   .     A
C213   C935    1.418   1_554 S
C214   H222    1.082   .     S
C214   N225    1.367   .     A
C214   C576    1.418   .     S
C215   H223    1.082   .     S
C215   N225    1.368   .     A
C215   C573    1.418   .     S
C216   H224    1.082   .     S
C216   N226    1.368   .     A
C216   C934    1.418   1_554 S
Cu217  N225    2.016   .     S
Cu217  Cu218   2.682   .     S
Cu217  O230    1.955   .     S
Cu217  O231    1.956   .     S
Cu217  O227    1.955   .     S
Cu217  O234    1.959   .     S
Cu218  N226    2.016   .     S
Cu218  O229    1.955   .     S
Cu218  O233    1.959   .     S
Cu218  O232    1.956   .     S
Cu218  O228    1.955   .     S
H219   C125    1.087   1_655 S
O235   H236    0.987   .     S
O237   H238    0.989   .     S
C241   O269    1.289   .     A
C241   C252    1.443   .     S
C241   O267    1.289   .     A
C242   O270    1.290   .     A
C242   C251    1.444   .     S
C242   O268    1.288   .     A
C243   O271    1.287   .     A
C243   O273    1.290   .     A
C243   C245    1.434   .     S
C244   O272    1.287   .     A
C244   O274    1.290   .     A
C244   C246    1.434   .     S
C245   C326    1.335   1_455 S
C245   H339    1.087   1_455 S
C246   C285    1.335   .     S
C246   H300    1.087   .     S
C247   C252    1.403   .     A
C247   O275    1.385   .     S
C248   C251    1.415   .     A
C248   O277    1.385   .     S
C248   C10     1.389   1_565 S
C249   C251    1.409   .     A
C249   Cl279   1.776   .     S
C249   C7      1.406   1_565 S
C250   C252    1.403   .     A
C250   Cl280   1.770   .     S
C253   H261    1.082   .     S
C253   N266    1.367   .     A
C253   C975    1.418   1_554 S
C254   H262    1.082   .     S
C254   N265    1.367   .     A
C254   C616    1.418   .     S
C255   H263    1.082   .     S
C255   N265    1.368   .     A
C255   C613    1.418   .     S
C256   H264    1.082   .     S
C256   N266    1.368   .     A
C256   C974    1.418   1_554 S
Cu257  N265    2.016   .     S
Cu257  Cu258   2.682   .     S
Cu257  O270    1.955   .     S
Cu257  O271    1.956   .     S
Cu257  O267    1.955   .     S
Cu257  O274    1.959   .     S
Cu258  N266    2.016   .     S
Cu258  O269    1.955   .     S
Cu258  O273    1.959   .     S
Cu258  O272    1.956   .     S
Cu258  O268    1.955   .     S
H259   C285    1.087   .     S
H260   C326    1.087   1_455 S
O275   H276    0.987   .     S
O277   H278    0.989   .     S
C281   O309    1.289   .     A
C281   C292    1.443   .     S
C281   O307    1.289   .     A
C282   O310    1.290   .     A
C282   C291    1.444   .     S
C282   O308    1.288   .     A
C283   O311    1.287   .     A
C283   O313    1.290   .     A
C283   C285    1.434   .     S
C284   O312    1.287   .     A
C284   O314    1.290   .     A
C284   C286    1.434   .     S
C286   C325    1.335   .     S
C286   H340    1.087   .     S
C287   C292    1.403   .     A
C287   O315    1.385   .     S
C288   C291    1.415   .     A
C288   O317    1.385   .     S
C288   C50     1.389   1_565 S
C289   C291    1.409   .     A
C289   Cl319   1.776   .     S
C289   C47     1.406   1_565 S
C290   C292    1.403   .     A
C290   Cl320   1.770   .     S
C293   H301    1.082   .     S
C293   N306    1.367   .     A
C293   C1015   1.418   1_554 S
C294   H302    1.082   .     S
C294   N305    1.367   .     A
C294   C656    1.418   .     S
C295   H303    1.082   .     S
C295   N305    1.368   .     A
C295   C653    1.418   .     S
C296   H304    1.082   .     S
C296   N306    1.368   .     A
C296   C1014   1.418   1_554 S
Cu297  N305    2.016   .     S
Cu297  Cu298   2.682   .     S
Cu297  O310    1.955   .     S
Cu297  O311    1.956   .     S
Cu297  O307    1.955   .     S
Cu297  O314    1.959   .     S
Cu298  N306    2.016   .     S
Cu298  O309    1.955   .     S
Cu298  O313    1.959   .     S
Cu298  O312    1.956   .     S
Cu298  O308    1.955   .     S
H299   C325    1.087   .     S
O315   H316    0.987   .     S
O317   H318    0.989   .     S
C321   O349    1.289   .     A
C321   C332    1.443   .     S
C321   O347    1.289   .     A
C322   O350    1.290   .     A
C322   C331    1.444   .     S
C322   O348    1.288   .     A
C323   O351    1.287   .     A
C323   O353    1.290   .     A
C323   C325    1.434   .     S
C324   O352    1.287   .     A
C324   O354    1.290   .     A
C324   C326    1.434   .     S
C326   C245    1.335   1_655 S
C326   H260    1.087   1_655 S
C327   C332    1.403   .     A
C327   O355    1.385   .     S
C328   C331    1.415   .     A
C328   O357    1.385   .     S
C328   C90     1.389   1_565 S
C329   C331    1.409   .     A
C329   Cl359   1.776   .     S
C329   C87     1.406   1_565 S
C330   C332    1.403   .     A
C330   Cl360   1.770   .     S
C333   H341    1.082   .     S
C333   N346    1.367   .     A
C333   C1055   1.418   1_554 S
C334   H342    1.082   .     S
C334   N345    1.367   .     A
C334   C696    1.418   .     S
C335   H343    1.082   .     S
C335   N345    1.368   .     A
C335   C693    1.418   .     S
C336   H344    1.082   .     S
C336   N346    1.368   .     A
C336   C1054   1.418   1_554 S
Cu337  N345    2.016   .     S
Cu337  Cu338   2.682   .     S
Cu337  O350    1.955   .     S
Cu337  O351    1.956   .     S
Cu337  O347    1.955   .     S
Cu337  O354    1.959   .     S
Cu338  N346    2.016   .     S
Cu338  O349    1.955   .     S
Cu338  O353    1.959   .     S
Cu338  O352    1.956   .     S
Cu338  O348    1.955   .     S
H339   C245    1.087   1_655 S
O355   H356    0.987   .     S
O357   H358    0.989   .     S
C361   O389    1.289   .     A
C361   C372    1.443   .     S
C361   O387    1.289   .     A
C362   O390    1.290   .     A
C362   C371    1.444   .     S
C362   O388    1.288   .     A
C363   O391    1.287   .     A
C363   O393    1.290   .     A
C363   C365    1.434   .     S
C364   O392    1.287   .     A
C364   O394    1.290   .     A
C364   C366    1.434   .     S
C365   C446    1.335   1_455 S
C365   H459    1.087   1_455 S
C366   C405    1.335   .     S
C366   H420    1.087   .     S
C367   C372    1.403   .     A
C367   O395    1.385   .     S
C367   C609    1.406   1_545 S
C368   C371    1.415   .     A
C368   O397    1.385   .     S
C368   C490    1.389   .     S
C369   C371    1.409   .     A
C369   Cl399   1.776   .     S
C369   C487    1.406   .     S
C370   C372    1.403   .     A
C370   Cl400   1.770   .     S
C370   C608    1.389   1_545 S
C373   H381    1.082   .     S
C373   N386    1.367   .     A
C374   H382    1.082   .     S
C374   N385    1.367   .     A
C374   C736    1.418   .     S
C375   H383    1.082   .     S
C375   N385    1.368   .     A
C375   C733    1.418   .     S
C376   H384    1.082   .     S
C376   N386    1.368   .     A
Cu377  N385    2.016   .     S
Cu377  Cu378   2.682   .     S
Cu377  O390    1.955   .     S
Cu377  O391    1.956   .     S
Cu377  O387    1.955   .     S
Cu377  O394    1.959   .     S
Cu378  N386    2.016   .     S
Cu378  O389    1.955   .     S
Cu378  O393    1.959   .     S
Cu378  O392    1.956   .     S
Cu378  O388    1.955   .     S
H379   C405    1.087   .     S
H380   C446    1.087   1_455 S
O395   H396    0.987   .     S
O397   H398    0.989   .     S
C401   O429    1.289   .     A
C401   C412    1.443   .     S
C401   O427    1.289   .     A
C402   O430    1.290   .     A
C402   C411    1.444   .     S
C402   O428    1.288   .     A
C403   O431    1.287   .     A
C403   O433    1.290   .     A
C403   C405    1.434   .     S
C404   O432    1.287   .     A
C404   O434    1.290   .     A
C404   C406    1.434   .     S
C406   C445    1.335   .     S
C406   H460    1.087   .     S
C407   C412    1.403   .     A
C407   O435    1.385   .     S
C407   C649    1.406   1_545 S
C408   C411    1.415   .     A
C408   O437    1.385   .     S
C408   C530    1.389   .     S
C409   C411    1.409   .     A
C409   Cl439   1.776   .     S
C409   C527    1.406   .     S
C410   C412    1.403   .     A
C410   Cl440   1.770   .     S
C410   C648    1.389   1_545 S
C413   H421    1.082   .     S
C413   N426    1.367   .     A
C414   H422    1.082   .     S
C414   N425    1.367   .     A
C414   C776    1.418   .     S
C415   H423    1.082   .     S
C415   N425    1.368   .     A
C415   C773    1.418   .     S
C416   H424    1.082   .     S
C416   N426    1.368   .     A
Cu417  N425    2.016   .     S
Cu417  Cu418   2.682   .     S
Cu417  O430    1.955   .     S
Cu417  O431    1.956   .     S
Cu417  O427    1.955   .     S
Cu417  O434    1.959   .     S
Cu418  N426    2.016   .     S
Cu418  O429    1.955   .     S
Cu418  O433    1.959   .     S
Cu418  O432    1.956   .     S
Cu418  O428    1.955   .     S
H419   C445    1.087   .     S
O435   H436    0.987   .     S
O437   H438    0.989   .     S
C441   O469    1.289   .     A
C441   C452    1.443   .     S
C441   O467    1.289   .     A
C442   O470    1.290   .     A
C442   C451    1.444   .     S
C442   O468    1.288   .     A
C443   O471    1.287   .     A
C443   O473    1.290   .     A
C443   C445    1.434   .     S
C444   O472    1.287   .     A
C444   O474    1.290   .     A
C444   C446    1.434   .     S
C446   C365    1.335   1_655 S
C446   H380    1.087   1_655 S
C447   C452    1.403   .     A
C447   O475    1.385   .     S
C447   C689    1.406   1_545 S
C448   C451    1.415   .     A
C448   O477    1.385   .     S
C448   C570    1.389   .     S
C449   C451    1.409   .     A
C449   Cl479   1.776   .     S
C449   C567    1.406   .     S
C450   C452    1.403   .     A
C450   Cl480   1.770   .     S
C450   C688    1.389   1_545 S
C453   H461    1.082   .     S
C453   N466    1.367   .     A
C454   H462    1.082   .     S
C454   N465    1.367   .     A
C454   C816    1.418   .     S
C455   H463    1.082   .     S
C455   N465    1.368   .     A
C455   C813    1.418   .     S
C456   H464    1.082   .     S
C456   N466    1.368   .     A
Cu457  N465    2.016   .     S
Cu457  Cu458   2.682   .     S
Cu457  O470    1.955   .     S
Cu457  O471    1.956   .     S
Cu457  O467    1.955   .     S
Cu457  O474    1.959   .     S
Cu458  N466    2.016   .     S
Cu458  O469    1.955   .     S
Cu458  O473    1.959   .     S
Cu458  O472    1.956   .     S
Cu458  O468    1.955   .     S
H459   C365    1.087   1_655 S
O475   H476    0.987   .     S
O477   H478    0.989   .     S
C481   O509    1.289   .     A
C481   C492    1.443   .     S
C481   O507    1.289   .     A
C482   O510    1.290   .     A
C482   C491    1.444   .     S
C482   O508    1.288   .     A
C483   O511    1.287   .     A
C483   O513    1.290   .     A
C483   C485    1.434   .     S
C484   O512    1.287   .     A
C484   O514    1.290   .     A
C484   C486    1.434   .     S
C485   C566    1.335   1_455 S
C485   H579    1.087   1_455 S
C486   C525    1.335   .     S
C486   H540    1.087   .     S
C487   C492    1.403   .     A
C487   O515    1.385   .     S
C488   C491    1.415   .     A
C488   O517    1.385   .     S
C488   C610    1.389   .     S
C489   C491    1.409   .     A
C489   Cl519   1.776   .     S
C489   C607    1.406   .     S
C490   C492    1.403   .     A
C490   Cl520   1.770   .     S
C493   H501    1.082   .     S
C493   N506    1.367   .     A
C494   H502    1.082   .     S
C494   N505    1.367   .     A
C494   C856    1.418   .     S
C495   H503    1.082   .     S
C495   N505    1.368   .     A
C495   C853    1.418   .     S
C496   H504    1.082   .     S
C496   N506    1.368   .     A
Cu497  N505    2.016   .     S
Cu497  Cu498   2.682   .     S
Cu497  O510    1.955   .     S
Cu497  O511    1.956   .     S
Cu497  O507    1.955   .     S
Cu497  O514    1.959   .     S
Cu498  N506    2.016   .     S
Cu498  O509    1.955   .     S
Cu498  O513    1.959   .     S
Cu498  O512    1.956   .     S
Cu498  O508    1.955   .     S
H499   C525    1.087   .     S
H500   C566    1.087   1_455 S
O515   H516    0.987   .     S
O517   H518    0.989   .     S
C521   O549    1.289   .     A
C521   C532    1.443   .     S
C521   O547    1.289   .     A
C522   O550    1.290   .     A
C522   C531    1.444   .     S
C522   O548    1.288   .     A
C523   O551    1.287   .     A
C523   O553    1.290   .     A
C523   C525    1.434   .     S
C524   O552    1.287   .     A
C524   O554    1.290   .     A
C524   C526    1.434   .     S
C526   C565    1.335   .     S
C526   H580    1.087   .     S
C527   C532    1.403   .     A
C527   O555    1.385   .     S
C528   C531    1.415   .     A
C528   O557    1.385   .     S
C528   C650    1.389   .     S
C529   C531    1.409   .     A
C529   Cl559   1.776   .     S
C529   C647    1.406   .     S
C530   C532    1.403   .     A
C530   Cl560   1.770   .     S
C533   H541    1.082   .     S
C533   N546    1.367   .     A
C534   H542    1.082   .     S
C534   N545    1.367   .     A
C534   C896    1.418   .     S
C535   H543    1.082   .     S
C535   N545    1.368   .     A
C535   C893    1.418   .     S
C536   H544    1.082   .     S
C536   N546    1.368   .     A
Cu537  N545    2.016   .     S
Cu537  Cu538   2.682   .     S
Cu537  O550    1.955   .     S
Cu537  O551    1.956   .     S
Cu537  O547    1.955   .     S
Cu537  O554    1.959   .     S
Cu538  N546    2.016   .     S
Cu538  O549    1.955   .     S
Cu538  O553    1.959   .     S
Cu538  O552    1.956   .     S
Cu538  O548    1.955   .     S
H539   C565    1.087   .     S
O555   H556    0.987   .     S
O557   H558    0.989   .     S
C561   O589    1.289   .     A
C561   C572    1.443   .     S
C561   O587    1.289   .     A
C562   O590    1.290   .     A
C562   C571    1.444   .     S
C562   O588    1.288   .     A
C563   O591    1.287   .     A
C563   O593    1.290   .     A
C563   C565    1.434   .     S
C564   O592    1.287   .     A
C564   O594    1.290   .     A
C564   C566    1.434   .     S
C566   C485    1.335   1_655 S
C566   H500    1.087   1_655 S
C567   C572    1.403   .     A
C567   O595    1.385   .     S
C568   C571    1.415   .     A
C568   O597    1.385   .     S
C568   C690    1.389   .     S
C569   C571    1.409   .     A
C569   Cl599   1.776   .     S
C569   C687    1.406   .     S
C570   C572    1.403   .     A
C570   Cl600   1.770   .     S
C573   H581    1.082   .     S
C573   N586    1.367   .     A
C574   H582    1.082   .     S
C574   N585    1.367   .     A
C574   C936    1.418   .     S
C575   H583    1.082   .     S
C575   N585    1.368   .     A
C575   C933    1.418   .     S
C576   H584    1.082   .     S
C576   N586    1.368   .     A
Cu577  N585    2.016   .     S
Cu577  Cu578   2.682   .     S
Cu577  O590    1.955   .     S
Cu577  O591    1.956   .     S
Cu577  O587    1.955   .     S
Cu577  O594    1.959   .     S
Cu578  N586    2.016   .     S
Cu578  O589    1.955   .     S
Cu578  O593    1.959   .     S
Cu578  O592    1.956   .     S
Cu578  O588    1.955   .     S
H579   C485    1.087   1_655 S
O595   H596    0.987   .     S
O597   H598    0.989   .     S
C601   O629    1.289   .     A
C601   C612    1.443   .     S
C601   O627    1.289   .     A
C602   O630    1.290   .     A
C602   C611    1.444   .     S
C602   O628    1.288   .     A
C603   O631    1.287   .     A
C603   O633    1.290   .     A
C603   C605    1.434   .     S
C604   O632    1.287   .     A
C604   O634    1.290   .     A
C604   C606    1.434   .     S
C605   C686    1.335   1_455 S
C605   H699    1.087   1_455 S
C606   C645    1.335   .     S
C606   H660    1.087   .     S
C607   C612    1.403   .     A
C607   O635    1.385   .     S
C608   C611    1.415   .     A
C608   O637    1.385   .     S
C608   C370    1.389   1_565 S
C609   C611    1.409   .     A
C609   Cl639   1.776   .     S
C609   C367    1.406   1_565 S
C610   C612    1.403   .     A
C610   Cl640   1.770   .     S
C613   H621    1.082   .     S
C613   N626    1.367   .     A
C614   H622    1.082   .     S
C614   N625    1.367   .     A
C614   C976    1.418   .     S
C615   H623    1.082   .     S
C615   N625    1.368   .     A
C615   C973    1.418   .     S
C616   H624    1.082   .     S
C616   N626    1.368   .     A
Cu617  N625    2.016   .     S
Cu617  Cu618   2.682   .     S
Cu617  O630    1.955   .     S
Cu617  O631    1.956   .     S
Cu617  O627    1.955   .     S
Cu617  O634    1.959   .     S
Cu618  N626    2.016   .     S
Cu618  O629    1.955   .     S
Cu618  O633    1.959   .     S
Cu618  O632    1.956   .     S
Cu618  O628    1.955   .     S
H619   C645    1.087   .     S
H620   C686    1.087   1_455 S
O635   H636    0.987   .     S
O637   H638    0.989   .     S
C641   O669    1.289   .     A
C641   C652    1.443   .     S
C641   O667    1.289   .     A
C642   O670    1.290   .     A
C642   C651    1.444   .     S
C642   O668    1.288   .     A
C643   O671    1.287   .     A
C643   O673    1.290   .     A
C643   C645    1.434   .     S
C644   O672    1.287   .     A
C644   O674    1.290   .     A
C644   C646    1.434   .     S
C646   C685    1.335   .     S
C646   H700    1.087   .     S
C647   C652    1.403   .     A
C647   O675    1.385   .     S
C648   C651    1.415   .     A
C648   O677    1.385   .     S
C648   C410    1.389   1_565 S
C649   C651    1.409   .     A
C649   Cl679   1.776   .     S
C649   C407    1.406   1_565 S
C650   C652    1.403   .     A
C650   Cl680   1.770   .     S
C653   H661    1.082   .     S
C653   N666    1.367   .     A
C654   H662    1.082   .     S
C654   N665    1.367   .     A
C654   C1016   1.418   .     S
C655   H663    1.082   .     S
C655   N665    1.368   .     A
C655   C1013   1.418   .     S
C656   H664    1.082   .     S
C656   N666    1.368   .     A
Cu657  N665    2.016   .     S
Cu657  Cu658   2.682   .     S
Cu657  O670    1.955   .     S
Cu657  O671    1.956   .     S
Cu657  O667    1.955   .     S
Cu657  O674    1.959   .     S
Cu658  N666    2.016   .     S
Cu658  O669    1.955   .     S
Cu658  O673    1.959   .     S
Cu658  O672    1.956   .     S
Cu658  O668    1.955   .     S
H659   C685    1.087   .     S
O675   H676    0.987   .     S
O677   H678    0.989   .     S
C681   O709    1.289   .     A
C681   C692    1.443   .     S
C681   O707    1.289   .     A
C682   O710    1.290   .     A
C682   C691    1.444   .     S
C682   O708    1.288   .     A
C683   O711    1.287   .     A
C683   O713    1.290   .     A
C683   C685    1.434   .     S
C684   O712    1.287   .     A
C684   O714    1.290   .     A
C684   C686    1.434   .     S
C686   C605    1.335   1_655 S
C686   H620    1.087   1_655 S
C687   C692    1.403   .     A
C687   O715    1.385   .     S
C688   C691    1.415   .     A
C688   O717    1.385   .     S
C688   C450    1.389   1_565 S
C689   C691    1.409   .     A
C689   Cl719   1.776   .     S
C689   C447    1.406   1_565 S
C690   C692    1.403   .     A
C690   Cl720   1.770   .     S
C693   H701    1.082   .     S
C693   N706    1.367   .     A
C694   H702    1.082   .     S
C694   N705    1.367   .     A
C694   C1056   1.418   .     S
C695   H703    1.082   .     S
C695   N705    1.368   .     A
C695   C1053   1.418   .     S
C696   H704    1.082   .     S
C696   N706    1.368   .     A
Cu697  N705    2.016   .     S
Cu697  Cu698   2.682   .     S
Cu697  O710    1.955   .     S
Cu697  O711    1.956   .     S
Cu697  O707    1.955   .     S
Cu697  O714    1.959   .     S
Cu698  N706    2.016   .     S
Cu698  O709    1.955   .     S
Cu698  O713    1.959   .     S
Cu698  O712    1.956   .     S
Cu698  O708    1.955   .     S
H699   C605    1.087   1_655 S
O715   H716    0.987   .     S
O717   H718    0.989   .     S
C721   O749    1.289   .     A
C721   C732    1.443   .     S
C721   O747    1.289   .     A
C722   O750    1.290   .     A
C722   C731    1.444   .     S
C722   O748    1.288   .     A
C723   O751    1.287   .     A
C723   O753    1.290   .     A
C723   C725    1.434   .     S
C724   O752    1.287   .     A
C724   O754    1.290   .     A
C724   C726    1.434   .     S
C725   C806    1.335   1_455 S
C725   H819    1.087   1_455 S
C726   C765    1.335   .     S
C726   H780    1.087   .     S
C727   C732    1.403   .     A
C727   O755    1.385   .     S
C727   C969    1.406   1_545 S
C728   C731    1.415   .     A
C728   O757    1.385   .     S
C728   C850    1.389   .     S
C729   C731    1.409   .     A
C729   Cl759   1.776   .     S
C729   C847    1.406   .     S
C730   C732    1.403   .     A
C730   Cl760   1.770   .     S
C730   C968    1.389   1_545 S
C733   H741    1.082   .     S
C733   N746    1.367   .     A
C734   H742    1.082   .     S
C734   N745    1.367   .     A
C734   C16     1.418   1_556 S
C735   H743    1.082   .     S
C735   N745    1.368   .     A
C735   C13     1.418   1_556 S
C736   H744    1.082   .     S
C736   N746    1.368   .     A
Cu737  N745    2.016   .     S
Cu737  Cu738   2.682   .     S
Cu737  O750    1.955   .     S
Cu737  O751    1.956   .     S
Cu737  O747    1.955   .     S
Cu737  O754    1.959   .     S
Cu738  N746    2.016   .     S
Cu738  O749    1.955   .     S
Cu738  O753    1.959   .     S
Cu738  O752    1.956   .     S
Cu738  O748    1.955   .     S
H739   C765    1.087   .     S
H740   C806    1.087   1_455 S
O755   H756    0.987   .     S
O757   H758    0.989   .     S
C761   O789    1.289   .     A
C761   C772    1.443   .     S
C761   O787    1.289   .     A
C762   O790    1.290   .     A
C762   C771    1.444   .     S
C762   O788    1.288   .     A
C763   O791    1.287   .     A
C763   O793    1.290   .     A
C763   C765    1.434   .     S
C764   O792    1.287   .     A
C764   O794    1.290   .     A
C764   C766    1.434   .     S
C766   C805    1.335   .     S
C766   H820    1.087   .     S
C767   C772    1.403   .     A
C767   O795    1.385   .     S
C767   C1009   1.406   1_545 S
C768   C771    1.415   .     A
C768   O797    1.385   .     S
C768   C890    1.389   .     S
C769   C771    1.409   .     A
C769   Cl799   1.776   .     S
C769   C887    1.406   .     S
C770   C772    1.403   .     A
C770   Cl800   1.770   .     S
C770   C1008   1.389   1_545 S
C773   H781    1.082   .     S
C773   N786    1.367   .     A
C774   H782    1.082   .     S
C774   N785    1.367   .     A
C774   C56     1.418   1_556 S
C775   H783    1.082   .     S
C775   N785    1.368   .     A
C775   C53     1.418   1_556 S
C776   H784    1.082   .     S
C776   N786    1.368   .     A
Cu777  N785    2.016   .     S
Cu777  Cu778   2.682   .     S
Cu777  O790    1.955   .     S
Cu777  O791    1.956   .     S
Cu777  O787    1.955   .     S
Cu777  O794    1.959   .     S
Cu778  N786    2.016   .     S
Cu778  O789    1.955   .     S
Cu778  O793    1.959   .     S
Cu778  O792    1.956   .     S
Cu778  O788    1.955   .     S
H779   C805    1.087   .     S
O795   H796    0.987   .     S
O797   H798    0.989   .     S
C801   O829    1.289   .     A
C801   C812    1.443   .     S
C801   O827    1.289   .     A
C802   O830    1.290   .     A
C802   C811    1.444   .     S
C802   O828    1.288   .     A
C803   O831    1.287   .     A
C803   O833    1.290   .     A
C803   C805    1.434   .     S
C804   O832    1.287   .     A
C804   O834    1.290   .     A
C804   C806    1.434   .     S
C806   C725    1.335   1_655 S
C806   H740    1.087   1_655 S
C807   C812    1.403   .     A
C807   O835    1.385   .     S
C807   C1049   1.406   1_545 S
C808   C811    1.415   .     A
C808   O837    1.385   .     S
C808   C930    1.389   .     S
C809   C811    1.409   .     A
C809   Cl839   1.776   .     S
C809   C927    1.406   .     S
C810   C812    1.403   .     A
C810   Cl840   1.770   .     S
C810   C1048   1.389   1_545 S
C813   H821    1.082   .     S
C813   N826    1.367   .     A
C814   H822    1.082   .     S
C814   N825    1.367   .     A
C814   C96     1.418   1_556 S
C815   H823    1.082   .     S
C815   N825    1.368   .     A
C815   C93     1.418   1_556 S
C816   H824    1.082   .     S
C816   N826    1.368   .     A
Cu817  N825    2.016   .     S
Cu817  Cu818   2.682   .     S
Cu817  O830    1.955   .     S
Cu817  O831    1.956   .     S
Cu817  O827    1.955   .     S
Cu817  O834    1.959   .     S
Cu818  N826    2.016   .     S
Cu818  O829    1.955   .     S
Cu818  O833    1.959   .     S
Cu818  O832    1.956   .     S
Cu818  O828    1.955   .     S
H819   C725    1.087   1_655 S
O835   H836    0.987   .     S
O837   H838    0.989   .     S
C841   O869    1.289   .     A
C841   C852    1.443   .     S
C841   O867    1.289   .     A
C842   O870    1.290   .     A
C842   C851    1.444   .     S
C842   O868    1.288   .     A
C843   O871    1.287   .     A
C843   O873    1.290   .     A
C843   C845    1.434   .     S
C844   O872    1.287   .     A
C844   O874    1.290   .     A
C844   C846    1.434   .     S
C845   C926    1.335   1_455 S
C845   H939    1.087   1_455 S
C846   C885    1.335   .     S
C846   H900    1.087   .     S
C847   C852    1.403   .     A
C847   O875    1.385   .     S
C848   C851    1.415   .     A
C848   O877    1.385   .     S
C848   C970    1.389   .     S
C849   C851    1.409   .     A
C849   Cl879   1.776   .     S
C849   C967    1.406   .     S
C850   C852    1.403   .     A
C850   Cl880   1.770   .     S
C853   H861    1.082   .     S
C853   N866    1.367   .     A
C854   H862    1.082   .     S
C854   N865    1.367   .     A
C854   C136    1.418   1_556 S
C855   H863    1.082   .     S
C855   N865    1.368   .     A
C855   C133    1.418   1_556 S
C856   H864    1.082   .     S
C856   N866    1.368   .     A
Cu857  N865    2.016   .     S
Cu857  Cu858   2.682   .     S
Cu857  O870    1.955   .     S
Cu857  O871    1.956   .     S
Cu857  O867    1.955   .     S
Cu857  O874    1.959   .     S
Cu858  N866    2.016   .     S
Cu858  O869    1.955   .     S
Cu858  O873    1.959   .     S
Cu858  O872    1.956   .     S
Cu858  O868    1.955   .     S
H859   C885    1.087   .     S
H860   C926    1.087   1_455 S
O875   H876    0.987   .     S
O877   H878    0.989   .     S
C881   O909    1.289   .     A
C881   C892    1.443   .     S
C881   O907    1.289   .     A
C882   O910    1.290   .     A
C882   C891    1.444   .     S
C882   O908    1.288   .     A
C883   O911    1.287   .     A
C883   O913    1.290   .     A
C883   C885    1.434   .     S
C884   O912    1.287   .     A
C884   O914    1.290   .     A
C884   C886    1.434   .     S
C886   C925    1.335   .     S
C886   H940    1.087   .     S
C887   C892    1.403   .     A
C887   O915    1.385   .     S
C888   C891    1.415   .     A
C888   O917    1.385   .     S
C888   C1010   1.389   .     S
C889   C891    1.409   .     A
C889   Cl919   1.776   .     S
C889   C1007   1.406   .     S
C890   C892    1.403   .     A
C890   Cl920   1.770   .     S
C893   H901    1.082   .     S
C893   N906    1.367   .     A
C894   H902    1.082   .     S
C894   N905    1.367   .     A
C894   C176    1.418   1_556 S
C895   H903    1.082   .     S
C895   N905    1.368   .     A
C895   C173    1.418   1_556 S
C896   H904    1.082   .     S
C896   N906    1.368   .     A
Cu897  N905    2.016   .     S
Cu897  Cu898   2.682   .     S
Cu897  O910    1.955   .     S
Cu897  O911    1.956   .     S
Cu897  O907    1.955   .     S
Cu897  O914    1.959   .     S
Cu898  N906    2.016   .     S
Cu898  O909    1.955   .     S
Cu898  O913    1.959   .     S
Cu898  O912    1.956   .     S
Cu898  O908    1.955   .     S
H899   C925    1.087   .     S
O915   H916    0.987   .     S
O917   H918    0.989   .     S
C921   O949    1.289   .     A
C921   C932    1.443   .     S
C921   O947    1.289   .     A
C922   O950    1.290   .     A
C922   C931    1.444   .     S
C922   O948    1.288   .     A
C923   O951    1.287   .     A
C923   O953    1.290   .     A
C923   C925    1.434   .     S
C924   O952    1.287   .     A
C924   O954    1.290   .     A
C924   C926    1.434   .     S
C926   C845    1.335   1_655 S
C926   H860    1.087   1_655 S
C927   C932    1.403   .     A
C927   O955    1.385   .     S
C928   C931    1.415   .     A
C928   O957    1.385   .     S
C928   C1050   1.389   .     S
C929   C931    1.409   .     A
C929   Cl959   1.776   .     S
C929   C1047   1.406   .     S
C930   C932    1.403   .     A
C930   Cl960   1.770   .     S
C933   H941    1.082   .     S
C933   N946    1.367   .     A
C934   H942    1.082   .     S
C934   N945    1.367   .     A
C934   C216    1.418   1_556 S
C935   H943    1.082   .     S
C935   N945    1.368   .     A
C935   C213    1.418   1_556 S
C936   H944    1.082   .     S
C936   N946    1.368   .     A
Cu937  N945    2.016   .     S
Cu937  Cu938   2.682   .     S
Cu937  O950    1.955   .     S
Cu937  O951    1.956   .     S
Cu937  O947    1.955   .     S
Cu937  O954    1.959   .     S
Cu938  N946    2.016   .     S
Cu938  O949    1.955   .     S
Cu938  O953    1.959   .     S
Cu938  O952    1.956   .     S
Cu938  O948    1.955   .     S
H939   C845    1.087   1_655 S
O955   H956    0.987   .     S
O957   H958    0.989   .     S
C961   O989    1.289   .     A
C961   C972    1.443   .     S
C961   O987    1.289   .     A
C962   O990    1.290   .     A
C962   C971    1.444   .     S
C962   O988    1.288   .     A
C963   O991    1.287   .     A
C963   O993    1.290   .     A
C963   C965    1.434   .     S
C964   O992    1.287   .     A
C964   O994    1.290   .     A
C964   C966    1.434   .     S
C965   C1046   1.335   1_455 S
C965   H1059   1.087   1_455 S
C966   C1005   1.335   .     S
C966   H1020   1.087   .     S
C967   C972    1.403   .     A
C967   O995    1.385   .     S
C968   C971    1.415   .     A
C968   O997    1.385   .     S
C968   C730    1.389   1_565 S
C969   C971    1.409   .     A
C969   Cl999   1.776   .     S
C969   C727    1.406   1_565 S
C970   C972    1.403   .     A
C970   Cl1000  1.770   .     S
C973   H981    1.082   .     S
C973   N986    1.367   .     A
C974   H982    1.082   .     S
C974   N985    1.367   .     A
C974   C256    1.418   1_556 S
C975   H983    1.082   .     S
C975   N985    1.368   .     A
C975   C253    1.418   1_556 S
C976   H984    1.082   .     S
C976   N986    1.368   .     A
Cu977  N985    2.016   .     S
Cu977  Cu978   2.682   .     S
Cu977  O990    1.955   .     S
Cu977  O991    1.956   .     S
Cu977  O987    1.955   .     S
Cu977  O994    1.959   .     S
Cu978  N986    2.016   .     S
Cu978  O989    1.955   .     S
Cu978  O993    1.959   .     S
Cu978  O992    1.956   .     S
Cu978  O988    1.955   .     S
H979   C1005   1.087   .     S
H980   C1046   1.087   1_455 S
O995   H996    0.987   .     S
O997   H998    0.989   .     S
C1001  O1029   1.289   .     A
C1001  C1012   1.443   .     S
C1001  O1027   1.289   .     A
C1002  O1030   1.290   .     A
C1002  C1011   1.444   .     S
C1002  O1028   1.288   .     A
C1003  O1031   1.287   .     A
C1003  O1033   1.290   .     A
C1003  C1005   1.434   .     S
C1004  O1032   1.287   .     A
C1004  O1034   1.290   .     A
C1004  C1006   1.434   .     S
C1006  C1045   1.335   .     S
C1006  H1060   1.087   .     S
C1007  C1012   1.403   .     A
C1007  O1035   1.385   .     S
C1008  C1011   1.415   .     A
C1008  O1037   1.385   .     S
C1008  C770    1.389   1_565 S
C1009  C1011   1.409   .     A
C1009  Cl1039  1.776   .     S
C1009  C767    1.406   1_565 S
C1010  C1012   1.403   .     A
C1010  Cl1040  1.770   .     S
C1013  H1021   1.082   .     S
C1013  N1026   1.367   .     A
C1014  H1022   1.082   .     S
C1014  N1025   1.367   .     A
C1014  C296    1.418   1_556 S
C1015  H1023   1.082   .     S
C1015  N1025   1.368   .     A
C1015  C293    1.418   1_556 S
C1016  H1024   1.082   .     S
C1016  N1026   1.368   .     A
Cu1017 N1025   2.016   .     S
Cu1017 Cu1018  2.682   .     S
Cu1017 O1030   1.955   .     S
Cu1017 O1031   1.956   .     S
Cu1017 O1027   1.955   .     S
Cu1017 O1034   1.959   .     S
Cu1018 N1026   2.016   .     S
Cu1018 O1029   1.955   .     S
Cu1018 O1033   1.959   .     S
Cu1018 O1032   1.956   .     S
Cu1018 O1028   1.955   .     S
H1019  C1045   1.087   .     S
O1035  H1036   0.987   .     S
O1037  H1038   0.989   .     S
C1041  O1069   1.289   .     A
C1041  C1052   1.443   .     S
C1041  O1067   1.289   .     A
C1042  O1070   1.290   .     A
C1042  C1051   1.444   .     S
C1042  O1068   1.288   .     A
C1043  O1071   1.287   .     A
C1043  O1073   1.290   .     A
C1043  C1045   1.434   .     S
C1044  O1072   1.287   .     A
C1044  O1074   1.290   .     A
C1044  C1046   1.434   .     S
C1046  C965    1.335   1_655 S
C1046  H980    1.087   1_655 S
C1047  C1052   1.403   .     A
C1047  O1075   1.385   .     S
C1048  C1051   1.415   .     A
C1048  O1077   1.385   .     S
C1048  C810    1.389   1_565 S
C1049  C1051   1.409   .     A
C1049  Cl1079  1.776   .     S
C1049  C807    1.406   1_565 S
C1050  C1052   1.403   .     A
C1050  Cl1080  1.770   .     S
C1053  H1061   1.082   .     S
C1053  N1066   1.367   .     A
C1054  H1062   1.082   .     S
C1054  N1065   1.367   .     A
C1054  C336    1.418   1_556 S
C1055  H1063   1.082   .     S
C1055  N1065   1.368   .     A
C1055  C333    1.418   1_556 S
C1056  H1064   1.082   .     S
C1056  N1066   1.368   .     A
Cu1057 N1065   2.016   .     S
Cu1057 Cu1058  2.682   .     S
Cu1057 O1070   1.955   .     S
Cu1057 O1071   1.956   .     S
Cu1057 O1067   1.955   .     S
Cu1057 O1074   1.959   .     S
Cu1058 N1066   2.016   .     S
Cu1058 O1069   1.955   .     S
Cu1058 O1073   1.959   .     S
Cu1058 O1072   1.956   .     S
Cu1058 O1068   1.955   .     S
H1059  C965    1.087   1_655 S
O1075  H1076   0.987   .     S
O1077  H1078   0.989   .     S
