data_str_m2_o1_o5_pcu_sym.11
_audit_creation_date              2020-01-03
_audit_creation_method            'Materials Studio'
_symmetry_space_group_name_H-M    'P1'
_symmetry_Int_Tables_number       1
_symmetry_cell_setting            triclinic
loop_
_symmetry_equiv_pos_as_xyz
  x,y,z
_cell_length_a                    32.6694
_cell_length_b                    28.9935
_cell_length_c                    27.1664
_cell_angle_alpha                 89.6621
_cell_angle_beta                  93.6990
_cell_angle_gamma                 88.2373
loop_
_atom_site_label
_atom_site_type_symbol
_atom_site_fract_x
_atom_site_fract_y
_atom_site_fract_z
_atom_site_U_iso_or_equiv
_atom_site_adp_type
_atom_site_occupancy
C1     C     0.08751   0.16754   0.16960   0.00000  Uiso   1.00
C2     C     0.01859   0.20999   0.15859   0.00000  Uiso   1.00
C3     C     0.29026   0.16498   0.15646   0.00000  Uiso   1.00
C4     C     0.04233   0.16937   0.17237   0.00000  Uiso   1.00
C5     C     0.14611   0.02568   0.12941   0.00000  Uiso   1.00
C6     C     0.18714   0.30775   0.20401   0.00000  Uiso   1.00
C7     C     0.18702   0.02374   0.20408   0.00000  Uiso   1.00
C8     C     0.14704   0.30969   0.12866   0.00000  Uiso   1.00
C9     C     0.04439   0.09011   0.21055   0.00000  Uiso   1.00
C10    C     0.28567   0.24572   0.12304   0.00000  Uiso   1.00
C11    C     0.29718   0.07896   0.15283   0.00000  Uiso   1.00
C12    C     0.24553   0.16601   0.16232   0.00000  Uiso   1.00
C13    C     0.03598   0.25683   0.15998   0.00000  Uiso   1.00
C14    C     0.12099   0.05094   0.09018   0.00000  Uiso   1.00
C15    C     0.21116   0.28266   0.24426   0.00000  Uiso   1.00
C16    C     0.20836   0.04685   0.24624   0.00000  Uiso   1.00
C17    C     0.12819   0.28692   0.08459   0.00000  Uiso   1.00
C18    C     0.16655   0.16676   0.07368   0.00000  Uiso   1.00
C19    C     0.16682   0.16658   0.25965   0.00000  Uiso   1.00
C20    C     0.16665   0.16680   0.02189   0.00000  Uiso   1.00
C21    C     0.16674   0.16655   0.31145   0.00000  Uiso   1.00
C22    C     0.02246   0.12773   0.18116   0.00000  Uiso   1.00
C23    C     0.30968   0.20659   0.14720   0.00000  Uiso   1.00
C24    C     0.31403   0.12429   0.16689   0.00000  Uiso   1.00
Cu25   Cu    0.16667   0.21355   0.16667   0.00000  Uiso   1.00
Cu26   Cu    0.16667   0.11978   0.16667   0.00000  Uiso   1.00
H27    H     0.06834   0.02533   0.21318   0.00000  Uiso   1.00
H28    H     0.25760   0.30729   0.13164   0.00000  Uiso   1.00
H29    H     0.26515   0.04328   0.10017   0.00000  Uiso   1.00
H30    H     0.04110   0.31810   0.12542   0.00000  Uiso   1.00
H31    H     0.11576   0.07310   0.01945   0.00000  Uiso   1.00
H32    H     0.21519   0.26297   0.31576   0.00000  Uiso   1.00
H33    H     0.20988   0.06121   0.31889   0.00000  Uiso   1.00
H34    H     0.12758   0.27807   0.01103   0.00000  Uiso   1.00
N35    N     0.16667   0.28402   0.16667   0.00000  Uiso   1.00
N36    N     0.16667   0.04931   0.16667   0.00000  Uiso   1.00
O37    O     0.10655   0.20625   0.16666   0.00000  Uiso   1.00
O38    O     0.05141   0.04690   0.18986   0.00000  Uiso   1.00
O39    O     0.26928   0.24098   0.08170   0.00000  Uiso   1.00
O40    O     0.27960   0.28654   0.14881   0.00000  Uiso   1.00
O41    O     0.30258   0.04530   0.17999   0.00000  Uiso   1.00
O42    O     0.27521   0.07533   0.10714   0.00000  Uiso   1.00
O43    O     0.05552   0.26954   0.19708   0.00000  Uiso   1.00
O44    O     0.02797   0.28722   0.12008   0.00000  Uiso   1.00
O45    O     0.08622   0.06461   0.09760   0.00000  Uiso   1.00
O46    O     0.13610   0.05632   0.04358   0.00000  Uiso   1.00
O47    O     0.24535   0.26666   0.23763   0.00000  Uiso   1.00
O48    O     0.22679   0.12709   0.16667   0.00000  Uiso   1.00
O49    O     0.19568   0.28002   0.29089   0.00000  Uiso   1.00
O50    O     0.24008   0.06688   0.24091   0.00000  Uiso   1.00
O51    O     0.19253   0.04454   0.29275   0.00000  Uiso   1.00
O52    O     0.09995   0.26090   0.08817   0.00000  Uiso   1.00
O53    O     0.14306   0.29525   0.03841   0.00000  Uiso   1.00
O54    O     0.22679   0.20625   0.16667   0.00000  Uiso   1.00
O55    O     0.10655   0.12709   0.16666   0.00000  Uiso   1.00
O56    O     0.16667   0.20625   0.09613   0.00000  Uiso   1.00
O57    O     0.16667   0.12708   0.23720   0.00000  Uiso   1.00
O58    O     0.16667   0.20625   0.23720   0.00000  Uiso   1.00
O59    O     0.16667   0.12708   0.09613   0.00000  Uiso   1.00
O60    O     0.05794   0.09798   0.25258   0.00000  Uiso   1.00
C61    C     0.42084   0.16754   0.16960   0.00000  Uiso   1.00
C62    C     0.35192   0.20999   0.15859   0.00000  Uiso   1.00
C63    C     0.62359   0.16498   0.15646   0.00000  Uiso   1.00
C64    C     0.37567   0.16937   0.17237   0.00000  Uiso   1.00
C65    C     0.47945   0.02568   0.12941   0.00000  Uiso   1.00
C66    C     0.52047   0.30775   0.20401   0.00000  Uiso   1.00
C67    C     0.52035   0.02374   0.20408   0.00000  Uiso   1.00
C68    C     0.48037   0.30969   0.12866   0.00000  Uiso   1.00
C69    C     0.37772   0.09011   0.21055   0.00000  Uiso   1.00
C70    C     0.61901   0.24572   0.12304   0.00000  Uiso   1.00
C71    C     0.63051   0.07896   0.15283   0.00000  Uiso   1.00
C72    C     0.57886   0.16601   0.16232   0.00000  Uiso   1.00
C73    C     0.36931   0.25683   0.15998   0.00000  Uiso   1.00
C74    C     0.45432   0.05094   0.09018   0.00000  Uiso   1.00
C75    C     0.54449   0.28266   0.24426   0.00000  Uiso   1.00
C76    C     0.54169   0.04685   0.24624   0.00000  Uiso   1.00
C77    C     0.46152   0.28692   0.08459   0.00000  Uiso   1.00
C78    C     0.49988   0.16676   0.07368   0.00000  Uiso   1.00
C79    C     0.50015   0.16658   0.25965   0.00000  Uiso   1.00
C80    C     0.49999   0.16680   0.02189   0.00000  Uiso   1.00
C81    C     0.50007   0.16655   0.31145   0.00000  Uiso   1.00
C82    C     0.35580   0.12773   0.18116   0.00000  Uiso   1.00
C83    C     0.64301   0.20659   0.14720   0.00000  Uiso   1.00
C84    C     0.64736   0.12429   0.16689   0.00000  Uiso   1.00
Cu85   Cu    0.50000   0.21355   0.16667   0.00000  Uiso   1.00
Cu86   Cu    0.50000   0.11978   0.16667   0.00000  Uiso   1.00
H87    H     0.40167   0.02533   0.21318   0.00000  Uiso   1.00
H88    H     0.59093   0.30729   0.13164   0.00000  Uiso   1.00
H89    H     0.59848   0.04328   0.10017   0.00000  Uiso   1.00
H90    H     0.37444   0.31810   0.12542   0.00000  Uiso   1.00
H91    H     0.44909   0.07310   0.01945   0.00000  Uiso   1.00
H92    H     0.54852   0.26297   0.31576   0.00000  Uiso   1.00
H93    H     0.54321   0.06121   0.31889   0.00000  Uiso   1.00
H94    H     0.46092   0.27807   0.01103   0.00000  Uiso   1.00
N95    N     0.50000   0.28402   0.16667   0.00000  Uiso   1.00
N96    N     0.50000   0.04931   0.16667   0.00000  Uiso   1.00
O97    O     0.43988   0.20625   0.16666   0.00000  Uiso   1.00
O98    O     0.38474   0.04690   0.18986   0.00000  Uiso   1.00
O99    O     0.60261   0.24098   0.08170   0.00000  Uiso   1.00
O100   O     0.61294   0.28654   0.14881   0.00000  Uiso   1.00
O101   O     0.63591   0.04530   0.17999   0.00000  Uiso   1.00
O102   O     0.60854   0.07533   0.10714   0.00000  Uiso   1.00
O103   O     0.38885   0.26954   0.19708   0.00000  Uiso   1.00
O104   O     0.36131   0.28722   0.12008   0.00000  Uiso   1.00
O105   O     0.41955   0.06461   0.09760   0.00000  Uiso   1.00
O106   O     0.46943   0.05632   0.04358   0.00000  Uiso   1.00
O107   O     0.57868   0.26666   0.23763   0.00000  Uiso   1.00
O108   O     0.56012   0.12709   0.16667   0.00000  Uiso   1.00
O109   O     0.52901   0.28002   0.29089   0.00000  Uiso   1.00
O110   O     0.57341   0.06688   0.24091   0.00000  Uiso   1.00
O111   O     0.52587   0.04454   0.29275   0.00000  Uiso   1.00
O112   O     0.43328   0.26090   0.08817   0.00000  Uiso   1.00
O113   O     0.47639   0.29525   0.03841   0.00000  Uiso   1.00
O114   O     0.56012   0.20625   0.16667   0.00000  Uiso   1.00
O115   O     0.43988   0.12709   0.16666   0.00000  Uiso   1.00
O116   O     0.50000   0.20625   0.09613   0.00000  Uiso   1.00
O117   O     0.50000   0.12708   0.23720   0.00000  Uiso   1.00
O118   O     0.50000   0.20625   0.23720   0.00000  Uiso   1.00
O119   O     0.50000   0.12708   0.09613   0.00000  Uiso   1.00
O120   O     0.39128   0.09798   0.25258   0.00000  Uiso   1.00
C121   C     0.75417   0.16754   0.16960   0.00000  Uiso   1.00
C122   C     0.68525   0.20999   0.15859   0.00000  Uiso   1.00
C123   C     0.95692   0.16498   0.15646   0.00000  Uiso   1.00
C124   C     0.70900   0.16937   0.17237   0.00000  Uiso   1.00
C125   C     0.81278   0.02568   0.12941   0.00000  Uiso   1.00
C126   C     0.85380   0.30775   0.20401   0.00000  Uiso   1.00
C127   C     0.85368   0.02374   0.20408   0.00000  Uiso   1.00
C128   C     0.81371   0.30969   0.12866   0.00000  Uiso   1.00
C129   C     0.71105   0.09011   0.21055   0.00000  Uiso   1.00
C130   C     0.95234   0.24572   0.12304   0.00000  Uiso   1.00
C131   C     0.96384   0.07896   0.15283   0.00000  Uiso   1.00
C132   C     0.91219   0.16601   0.16232   0.00000  Uiso   1.00
C133   C     0.70264   0.25683   0.15998   0.00000  Uiso   1.00
C134   C     0.78766   0.05094   0.09018   0.00000  Uiso   1.00
C135   C     0.87783   0.28266   0.24426   0.00000  Uiso   1.00
C136   C     0.87503   0.04685   0.24624   0.00000  Uiso   1.00
C137   C     0.79485   0.28692   0.08459   0.00000  Uiso   1.00
C138   C     0.83321   0.16676   0.07368   0.00000  Uiso   1.00
C139   C     0.83349   0.16658   0.25965   0.00000  Uiso   1.00
C140   C     0.83332   0.16680   0.02189   0.00000  Uiso   1.00
C141   C     0.83340   0.16655   0.31145   0.00000  Uiso   1.00
C142   C     0.68913   0.12773   0.18116   0.00000  Uiso   1.00
C143   C     0.97634   0.20659   0.14720   0.00000  Uiso   1.00
C144   C     0.98070   0.12429   0.16689   0.00000  Uiso   1.00
Cu145  Cu    0.83333   0.21355   0.16667   0.00000  Uiso   1.00
Cu146  Cu    0.83333   0.11978   0.16667   0.00000  Uiso   1.00
H147   H     0.73500   0.02533   0.21318   0.00000  Uiso   1.00
H148   H     0.92427   0.30729   0.13164   0.00000  Uiso   1.00
H149   H     0.93182   0.04328   0.10017   0.00000  Uiso   1.00
H150   H     0.70777   0.31810   0.12542   0.00000  Uiso   1.00
H151   H     0.78242   0.07310   0.01945   0.00000  Uiso   1.00
H152   H     0.88186   0.26297   0.31576   0.00000  Uiso   1.00
H153   H     0.87655   0.06121   0.31889   0.00000  Uiso   1.00
H154   H     0.79425   0.27807   0.01103   0.00000  Uiso   1.00
N155   N     0.83333   0.28402   0.16667   0.00000  Uiso   1.00
N156   N     0.83333   0.04931   0.16667   0.00000  Uiso   1.00
O157   O     0.77321   0.20625   0.16666   0.00000  Uiso   1.00
O158   O     0.71807   0.04690   0.18986   0.00000  Uiso   1.00
O159   O     0.93595   0.24098   0.08170   0.00000  Uiso   1.00
O160   O     0.94627   0.28654   0.14881   0.00000  Uiso   1.00
O161   O     0.96924   0.04530   0.17999   0.00000  Uiso   1.00
O162   O     0.94187   0.07533   0.10714   0.00000  Uiso   1.00
O163   O     0.72218   0.26954   0.19708   0.00000  Uiso   1.00
O164   O     0.69464   0.28722   0.12008   0.00000  Uiso   1.00
O165   O     0.75289   0.06461   0.09760   0.00000  Uiso   1.00
O166   O     0.80276   0.05632   0.04358   0.00000  Uiso   1.00
O167   O     0.91201   0.26666   0.23763   0.00000  Uiso   1.00
O168   O     0.89345   0.12709   0.16667   0.00000  Uiso   1.00
O169   O     0.86235   0.28002   0.29089   0.00000  Uiso   1.00
O170   O     0.90674   0.06688   0.24091   0.00000  Uiso   1.00
O171   O     0.85920   0.04454   0.29275   0.00000  Uiso   1.00
O172   O     0.76661   0.26090   0.08817   0.00000  Uiso   1.00
O173   O     0.80972   0.29525   0.03841   0.00000  Uiso   1.00
O174   O     0.89345   0.20625   0.16667   0.00000  Uiso   1.00
O175   O     0.77321   0.12709   0.16666   0.00000  Uiso   1.00
O176   O     0.83333   0.20625   0.09613   0.00000  Uiso   1.00
O177   O     0.83333   0.12708   0.23720   0.00000  Uiso   1.00
O178   O     0.83333   0.20625   0.23720   0.00000  Uiso   1.00
O179   O     0.83333   0.12708   0.09613   0.00000  Uiso   1.00
O180   O     0.72461   0.09798   0.25258   0.00000  Uiso   1.00
C181   C     0.08751   0.50087   0.16960   0.00000  Uiso   1.00
C182   C     0.01859   0.54332   0.15859   0.00000  Uiso   1.00
C183   C     0.29026   0.49832   0.15646   0.00000  Uiso   1.00
C184   C     0.04233   0.50271   0.17237   0.00000  Uiso   1.00
C185   C     0.14611   0.35901   0.12941   0.00000  Uiso   1.00
C186   C     0.18714   0.64108   0.20401   0.00000  Uiso   1.00
C187   C     0.18702   0.35707   0.20408   0.00000  Uiso   1.00
C188   C     0.14704   0.64302   0.12866   0.00000  Uiso   1.00
C189   C     0.04439   0.42344   0.21055   0.00000  Uiso   1.00
C190   C     0.28567   0.57906   0.12304   0.00000  Uiso   1.00
C191   C     0.29718   0.41229   0.15283   0.00000  Uiso   1.00
C192   C     0.24553   0.49934   0.16232   0.00000  Uiso   1.00
C193   C     0.03598   0.59016   0.15998   0.00000  Uiso   1.00
C194   C     0.12099   0.38428   0.09018   0.00000  Uiso   1.00
C195   C     0.21116   0.61600   0.24426   0.00000  Uiso   1.00
C196   C     0.20836   0.38018   0.24624   0.00000  Uiso   1.00
C197   C     0.12819   0.62025   0.08459   0.00000  Uiso   1.00
C198   C     0.16655   0.50009   0.07368   0.00000  Uiso   1.00
C199   C     0.16682   0.49991   0.25965   0.00000  Uiso   1.00
C200   C     0.16665   0.50013   0.02189   0.00000  Uiso   1.00
C201   C     0.16674   0.49989   0.31145   0.00000  Uiso   1.00
C202   C     0.02246   0.46107   0.18116   0.00000  Uiso   1.00
C203   C     0.30968   0.53992   0.14720   0.00000  Uiso   1.00
C204   C     0.31403   0.45762   0.16689   0.00000  Uiso   1.00
Cu205  Cu    0.16667   0.54689   0.16667   0.00000  Uiso   1.00
Cu206  Cu    0.16667   0.45311   0.16667   0.00000  Uiso   1.00
H207   H     0.06834   0.35866   0.21318   0.00000  Uiso   1.00
H208   H     0.25760   0.64062   0.13164   0.00000  Uiso   1.00
H209   H     0.26515   0.37662   0.10017   0.00000  Uiso   1.00
H210   H     0.04110   0.65144   0.12542   0.00000  Uiso   1.00
H211   H     0.11576   0.40643   0.01945   0.00000  Uiso   1.00
H212   H     0.21519   0.59630   0.31576   0.00000  Uiso   1.00
H213   H     0.20988   0.39454   0.31889   0.00000  Uiso   1.00
H214   H     0.12758   0.61140   0.01103   0.00000  Uiso   1.00
N215   N     0.16667   0.61736   0.16667   0.00000  Uiso   1.00
N216   N     0.16667   0.38264   0.16667   0.00000  Uiso   1.00
O217   O     0.10655   0.53958   0.16666   0.00000  Uiso   1.00
O218   O     0.05141   0.38024   0.18986   0.00000  Uiso   1.00
O219   O     0.26928   0.57431   0.08170   0.00000  Uiso   1.00
O220   O     0.27960   0.61988   0.14881   0.00000  Uiso   1.00
O221   O     0.30258   0.37863   0.17999   0.00000  Uiso   1.00
O222   O     0.27521   0.40867   0.10714   0.00000  Uiso   1.00
O223   O     0.05552   0.60288   0.19708   0.00000  Uiso   1.00
O224   O     0.02797   0.62055   0.12008   0.00000  Uiso   1.00
O225   O     0.08622   0.39794   0.09760   0.00000  Uiso   1.00
O226   O     0.13610   0.38965   0.04358   0.00000  Uiso   1.00
O227   O     0.24535   0.60000   0.23763   0.00000  Uiso   1.00
O228   O     0.22679   0.46042   0.16667   0.00000  Uiso   1.00
O229   O     0.19568   0.61335   0.29089   0.00000  Uiso   1.00
O230   O     0.24008   0.40021   0.24091   0.00000  Uiso   1.00
O231   O     0.19253   0.37787   0.29275   0.00000  Uiso   1.00
O232   O     0.09995   0.59423   0.08817   0.00000  Uiso   1.00
O233   O     0.14306   0.62858   0.03841   0.00000  Uiso   1.00
O234   O     0.22679   0.53958   0.16667   0.00000  Uiso   1.00
O235   O     0.10655   0.46042   0.16666   0.00000  Uiso   1.00
O236   O     0.16667   0.53959   0.09613   0.00000  Uiso   1.00
O237   O     0.16667   0.46041   0.23720   0.00000  Uiso   1.00
O238   O     0.16667   0.53959   0.23720   0.00000  Uiso   1.00
O239   O     0.16667   0.46041   0.09613   0.00000  Uiso   1.00
O240   O     0.05794   0.43131   0.25258   0.00000  Uiso   1.00
C241   C     0.42084   0.50087   0.16960   0.00000  Uiso   1.00
C242   C     0.35192   0.54332   0.15859   0.00000  Uiso   1.00
C243   C     0.62359   0.49832   0.15646   0.00000  Uiso   1.00
C244   C     0.37567   0.50271   0.17237   0.00000  Uiso   1.00
C245   C     0.47945   0.35901   0.12941   0.00000  Uiso   1.00
C246   C     0.52047   0.64108   0.20401   0.00000  Uiso   1.00
C247   C     0.52035   0.35707   0.20408   0.00000  Uiso   1.00
C248   C     0.48037   0.64302   0.12866   0.00000  Uiso   1.00
C249   C     0.37772   0.42344   0.21055   0.00000  Uiso   1.00
C250   C     0.61901   0.57906   0.12304   0.00000  Uiso   1.00
C251   C     0.63051   0.41229   0.15283   0.00000  Uiso   1.00
C252   C     0.57886   0.49934   0.16232   0.00000  Uiso   1.00
C253   C     0.36931   0.59016   0.15998   0.00000  Uiso   1.00
C254   C     0.45432   0.38428   0.09018   0.00000  Uiso   1.00
C255   C     0.54449   0.61600   0.24426   0.00000  Uiso   1.00
C256   C     0.54169   0.38018   0.24624   0.00000  Uiso   1.00
C257   C     0.46152   0.62025   0.08459   0.00000  Uiso   1.00
C258   C     0.49988   0.50009   0.07368   0.00000  Uiso   1.00
C259   C     0.50015   0.49991   0.25965   0.00000  Uiso   1.00
C260   C     0.49999   0.50013   0.02189   0.00000  Uiso   1.00
C261   C     0.50007   0.49989   0.31145   0.00000  Uiso   1.00
C262   C     0.35580   0.46107   0.18116   0.00000  Uiso   1.00
C263   C     0.64301   0.53992   0.14720   0.00000  Uiso   1.00
C264   C     0.64736   0.45762   0.16689   0.00000  Uiso   1.00
Cu265  Cu    0.50000   0.54689   0.16667   0.00000  Uiso   1.00
Cu266  Cu    0.50000   0.45311   0.16667   0.00000  Uiso   1.00
H267   H     0.40167   0.35866   0.21318   0.00000  Uiso   1.00
H268   H     0.59093   0.64062   0.13164   0.00000  Uiso   1.00
H269   H     0.59848   0.37662   0.10017   0.00000  Uiso   1.00
H270   H     0.37444   0.65144   0.12542   0.00000  Uiso   1.00
H271   H     0.44909   0.40643   0.01945   0.00000  Uiso   1.00
H272   H     0.54852   0.59630   0.31576   0.00000  Uiso   1.00
H273   H     0.54321   0.39454   0.31889   0.00000  Uiso   1.00
H274   H     0.46092   0.61140   0.01103   0.00000  Uiso   1.00
N275   N     0.50000   0.61736   0.16667   0.00000  Uiso   1.00
N276   N     0.50000   0.38264   0.16667   0.00000  Uiso   1.00
O277   O     0.43988   0.53958   0.16666   0.00000  Uiso   1.00
O278   O     0.38474   0.38024   0.18986   0.00000  Uiso   1.00
O279   O     0.60261   0.57431   0.08170   0.00000  Uiso   1.00
O280   O     0.61294   0.61988   0.14881   0.00000  Uiso   1.00
O281   O     0.63591   0.37863   0.17999   0.00000  Uiso   1.00
O282   O     0.60854   0.40867   0.10714   0.00000  Uiso   1.00
O283   O     0.38885   0.60288   0.19708   0.00000  Uiso   1.00
O284   O     0.36131   0.62055   0.12008   0.00000  Uiso   1.00
O285   O     0.41955   0.39794   0.09760   0.00000  Uiso   1.00
O286   O     0.46943   0.38965   0.04358   0.00000  Uiso   1.00
O287   O     0.57868   0.60000   0.23763   0.00000  Uiso   1.00
O288   O     0.56012   0.46042   0.16667   0.00000  Uiso   1.00
O289   O     0.52901   0.61335   0.29089   0.00000  Uiso   1.00
O290   O     0.57341   0.40021   0.24091   0.00000  Uiso   1.00
O291   O     0.52587   0.37787   0.29275   0.00000  Uiso   1.00
O292   O     0.43328   0.59423   0.08817   0.00000  Uiso   1.00
O293   O     0.47639   0.62858   0.03841   0.00000  Uiso   1.00
O294   O     0.56012   0.53958   0.16667   0.00000  Uiso   1.00
O295   O     0.43988   0.46042   0.16666   0.00000  Uiso   1.00
O296   O     0.50000   0.53959   0.09613   0.00000  Uiso   1.00
O297   O     0.50000   0.46041   0.23720   0.00000  Uiso   1.00
O298   O     0.50000   0.53959   0.23720   0.00000  Uiso   1.00
O299   O     0.50000   0.46041   0.09613   0.00000  Uiso   1.00
O300   O     0.39128   0.43131   0.25258   0.00000  Uiso   1.00
C301   C     0.75417   0.50087   0.16960   0.00000  Uiso   1.00
C302   C     0.68525   0.54332   0.15859   0.00000  Uiso   1.00
C303   C     0.95692   0.49832   0.15646   0.00000  Uiso   1.00
C304   C     0.70900   0.50271   0.17237   0.00000  Uiso   1.00
C305   C     0.81278   0.35901   0.12941   0.00000  Uiso   1.00
C306   C     0.85380   0.64108   0.20401   0.00000  Uiso   1.00
C307   C     0.85368   0.35707   0.20408   0.00000  Uiso   1.00
C308   C     0.81371   0.64302   0.12866   0.00000  Uiso   1.00
C309   C     0.71105   0.42344   0.21055   0.00000  Uiso   1.00
C310   C     0.95234   0.57906   0.12304   0.00000  Uiso   1.00
C311   C     0.96384   0.41229   0.15283   0.00000  Uiso   1.00
C312   C     0.91219   0.49934   0.16232   0.00000  Uiso   1.00
C313   C     0.70264   0.59016   0.15998   0.00000  Uiso   1.00
C314   C     0.78766   0.38428   0.09018   0.00000  Uiso   1.00
C315   C     0.87783   0.61600   0.24426   0.00000  Uiso   1.00
C316   C     0.87503   0.38018   0.24624   0.00000  Uiso   1.00
C317   C     0.79485   0.62025   0.08459   0.00000  Uiso   1.00
C318   C     0.83321   0.50009   0.07368   0.00000  Uiso   1.00
C319   C     0.83349   0.49991   0.25965   0.00000  Uiso   1.00
C320   C     0.83332   0.50013   0.02189   0.00000  Uiso   1.00
C321   C     0.83340   0.49989   0.31145   0.00000  Uiso   1.00
C322   C     0.68913   0.46107   0.18116   0.00000  Uiso   1.00
C323   C     0.97634   0.53992   0.14720   0.00000  Uiso   1.00
C324   C     0.98070   0.45762   0.16689   0.00000  Uiso   1.00
Cu325  Cu    0.83333   0.54689   0.16667   0.00000  Uiso   1.00
Cu326  Cu    0.83333   0.45311   0.16667   0.00000  Uiso   1.00
H327   H     0.73500   0.35866   0.21318   0.00000  Uiso   1.00
H328   H     0.92427   0.64062   0.13164   0.00000  Uiso   1.00
H329   H     0.93182   0.37662   0.10017   0.00000  Uiso   1.00
H330   H     0.70777   0.65144   0.12542   0.00000  Uiso   1.00
H331   H     0.78242   0.40643   0.01945   0.00000  Uiso   1.00
H332   H     0.88186   0.59630   0.31576   0.00000  Uiso   1.00
H333   H     0.87655   0.39454   0.31889   0.00000  Uiso   1.00
H334   H     0.79425   0.61140   0.01103   0.00000  Uiso   1.00
N335   N     0.83333   0.61736   0.16667   0.00000  Uiso   1.00
N336   N     0.83333   0.38264   0.16667   0.00000  Uiso   1.00
O337   O     0.77321   0.53958   0.16666   0.00000  Uiso   1.00
O338   O     0.71807   0.38024   0.18986   0.00000  Uiso   1.00
O339   O     0.93595   0.57431   0.08170   0.00000  Uiso   1.00
O340   O     0.94627   0.61988   0.14881   0.00000  Uiso   1.00
O341   O     0.96924   0.37863   0.17999   0.00000  Uiso   1.00
O342   O     0.94187   0.40867   0.10714   0.00000  Uiso   1.00
O343   O     0.72218   0.60288   0.19708   0.00000  Uiso   1.00
O344   O     0.69464   0.62055   0.12008   0.00000  Uiso   1.00
O345   O     0.75289   0.39794   0.09760   0.00000  Uiso   1.00
O346   O     0.80276   0.38965   0.04358   0.00000  Uiso   1.00
O347   O     0.91201   0.60000   0.23763   0.00000  Uiso   1.00
O348   O     0.89345   0.46042   0.16667   0.00000  Uiso   1.00
O349   O     0.86235   0.61335   0.29089   0.00000  Uiso   1.00
O350   O     0.90674   0.40021   0.24091   0.00000  Uiso   1.00
O351   O     0.85920   0.37787   0.29275   0.00000  Uiso   1.00
O352   O     0.76661   0.59423   0.08817   0.00000  Uiso   1.00
O353   O     0.80972   0.62858   0.03841   0.00000  Uiso   1.00
O354   O     0.89345   0.53958   0.16667   0.00000  Uiso   1.00
O355   O     0.77321   0.46042   0.16666   0.00000  Uiso   1.00
O356   O     0.83333   0.53959   0.09613   0.00000  Uiso   1.00
O357   O     0.83333   0.46041   0.23720   0.00000  Uiso   1.00
O358   O     0.83333   0.53959   0.23720   0.00000  Uiso   1.00
O359   O     0.83333   0.46041   0.09613   0.00000  Uiso   1.00
O360   O     0.72461   0.43131   0.25258   0.00000  Uiso   1.00
C361   C     0.08751   0.83421   0.16960   0.00000  Uiso   1.00
C362   C     0.01859   0.87666   0.15859   0.00000  Uiso   1.00
C363   C     0.29026   0.83165   0.15646   0.00000  Uiso   1.00
C364   C     0.04233   0.83604   0.17237   0.00000  Uiso   1.00
C365   C     0.14611   0.69235   0.12941   0.00000  Uiso   1.00
C366   C     0.18714   0.97441   0.20401   0.00000  Uiso   1.00
C367   C     0.18702   0.69040   0.20408   0.00000  Uiso   1.00
C368   C     0.14704   0.97635   0.12866   0.00000  Uiso   1.00
C369   C     0.04439   0.75678   0.21055   0.00000  Uiso   1.00
C370   C     0.28567   0.91239   0.12304   0.00000  Uiso   1.00
C371   C     0.29718   0.74562   0.15283   0.00000  Uiso   1.00
C372   C     0.24553   0.83267   0.16232   0.00000  Uiso   1.00
C373   C     0.03598   0.92349   0.15998   0.00000  Uiso   1.00
C374   C     0.12099   0.71761   0.09018   0.00000  Uiso   1.00
C375   C     0.21116   0.94933   0.24426   0.00000  Uiso   1.00
C376   C     0.20836   0.71352   0.24624   0.00000  Uiso   1.00
C377   C     0.12819   0.95359   0.08459   0.00000  Uiso   1.00
C378   C     0.16655   0.83342   0.07368   0.00000  Uiso   1.00
C379   C     0.16682   0.83324   0.25965   0.00000  Uiso   1.00
C380   C     0.16665   0.83347   0.02189   0.00000  Uiso   1.00
C381   C     0.16674   0.83322   0.31145   0.00000  Uiso   1.00
C382   C     0.02246   0.79440   0.18116   0.00000  Uiso   1.00
C383   C     0.30968   0.87325   0.14720   0.00000  Uiso   1.00
C384   C     0.31403   0.79096   0.16689   0.00000  Uiso   1.00
Cu385  Cu    0.16667   0.88022   0.16667   0.00000  Uiso   1.00
Cu386  Cu    0.16667   0.78645   0.16667   0.00000  Uiso   1.00
H387   H     0.06834   0.69200   0.21318   0.00000  Uiso   1.00
H388   H     0.25760   0.97395   0.13164   0.00000  Uiso   1.00
H389   H     0.26515   0.70995   0.10017   0.00000  Uiso   1.00
H390   H     0.04110   0.98477   0.12542   0.00000  Uiso   1.00
H391   H     0.11576   0.73977   0.01945   0.00000  Uiso   1.00
H392   H     0.21519   0.92964   0.31576   0.00000  Uiso   1.00
H393   H     0.20988   0.72787   0.31889   0.00000  Uiso   1.00
H394   H     0.12758   0.94473   0.01103   0.00000  Uiso   1.00
N395   N     0.16667   0.95069   0.16667   0.00000  Uiso   1.00
N396   N     0.16667   0.71598   0.16667   0.00000  Uiso   1.00
O397   O     0.10655   0.87291   0.16666   0.00000  Uiso   1.00
O398   O     0.05141   0.71357   0.18986   0.00000  Uiso   1.00
O399   O     0.26928   0.90765   0.08170   0.00000  Uiso   1.00
O400   O     0.27960   0.95321   0.14881   0.00000  Uiso   1.00
O401   O     0.30258   0.71196   0.17999   0.00000  Uiso   1.00
O402   O     0.27521   0.74200   0.10714   0.00000  Uiso   1.00
O403   O     0.05552   0.93621   0.19708   0.00000  Uiso   1.00
O404   O     0.02797   0.95389   0.12008   0.00000  Uiso   1.00
O405   O     0.08622   0.73127   0.09760   0.00000  Uiso   1.00
O406   O     0.13610   0.72299   0.04358   0.00000  Uiso   1.00
O407   O     0.24535   0.93333   0.23763   0.00000  Uiso   1.00
O408   O     0.22679   0.79375   0.16667   0.00000  Uiso   1.00
O409   O     0.19568   0.94668   0.29089   0.00000  Uiso   1.00
O410   O     0.24008   0.73354   0.24091   0.00000  Uiso   1.00
O411   O     0.19253   0.71120   0.29275   0.00000  Uiso   1.00
O412   O     0.09995   0.92757   0.08817   0.00000  Uiso   1.00
O413   O     0.14306   0.96191   0.03841   0.00000  Uiso   1.00
O414   O     0.22679   0.87291   0.16667   0.00000  Uiso   1.00
O415   O     0.10655   0.79375   0.16666   0.00000  Uiso   1.00
O416   O     0.16667   0.87292   0.09613   0.00000  Uiso   1.00
O417   O     0.16667   0.79375   0.23720   0.00000  Uiso   1.00
O418   O     0.16667   0.87292   0.23720   0.00000  Uiso   1.00
O419   O     0.16667   0.79375   0.09613   0.00000  Uiso   1.00
O420   O     0.05794   0.76464   0.25258   0.00000  Uiso   1.00
C421   C     0.42084   0.83421   0.16960   0.00000  Uiso   1.00
C422   C     0.35192   0.87666   0.15859   0.00000  Uiso   1.00
C423   C     0.62359   0.83165   0.15646   0.00000  Uiso   1.00
C424   C     0.37567   0.83604   0.17237   0.00000  Uiso   1.00
C425   C     0.47945   0.69235   0.12941   0.00000  Uiso   1.00
C426   C     0.52047   0.97441   0.20401   0.00000  Uiso   1.00
C427   C     0.52035   0.69040   0.20408   0.00000  Uiso   1.00
C428   C     0.48037   0.97635   0.12866   0.00000  Uiso   1.00
C429   C     0.37772   0.75678   0.21055   0.00000  Uiso   1.00
C430   C     0.61901   0.91239   0.12304   0.00000  Uiso   1.00
C431   C     0.63051   0.74562   0.15283   0.00000  Uiso   1.00
C432   C     0.57886   0.83267   0.16232   0.00000  Uiso   1.00
C433   C     0.36931   0.92349   0.15998   0.00000  Uiso   1.00
C434   C     0.45432   0.71761   0.09018   0.00000  Uiso   1.00
C435   C     0.54449   0.94933   0.24426   0.00000  Uiso   1.00
C436   C     0.54169   0.71352   0.24624   0.00000  Uiso   1.00
C437   C     0.46152   0.95359   0.08459   0.00000  Uiso   1.00
C438   C     0.49988   0.83342   0.07368   0.00000  Uiso   1.00
C439   C     0.50015   0.83324   0.25965   0.00000  Uiso   1.00
C440   C     0.49999   0.83347   0.02189   0.00000  Uiso   1.00
C441   C     0.50007   0.83322   0.31145   0.00000  Uiso   1.00
C442   C     0.35580   0.79440   0.18116   0.00000  Uiso   1.00
C443   C     0.64301   0.87325   0.14720   0.00000  Uiso   1.00
C444   C     0.64736   0.79096   0.16689   0.00000  Uiso   1.00
Cu445  Cu    0.50000   0.88022   0.16667   0.00000  Uiso   1.00
Cu446  Cu    0.50000   0.78645   0.16667   0.00000  Uiso   1.00
H447   H     0.40167   0.69200   0.21318   0.00000  Uiso   1.00
H448   H     0.59093   0.97395   0.13164   0.00000  Uiso   1.00
H449   H     0.59848   0.70995   0.10017   0.00000  Uiso   1.00
H450   H     0.37444   0.98477   0.12542   0.00000  Uiso   1.00
H451   H     0.44909   0.73977   0.01945   0.00000  Uiso   1.00
H452   H     0.54852   0.92964   0.31576   0.00000  Uiso   1.00
H453   H     0.54321   0.72787   0.31889   0.00000  Uiso   1.00
H454   H     0.46092   0.94473   0.01103   0.00000  Uiso   1.00
N455   N     0.50000   0.95069   0.16667   0.00000  Uiso   1.00
N456   N     0.50000   0.71598   0.16667   0.00000  Uiso   1.00
O457   O     0.43988   0.87291   0.16666   0.00000  Uiso   1.00
O458   O     0.38474   0.71357   0.18986   0.00000  Uiso   1.00
O459   O     0.60261   0.90765   0.08170   0.00000  Uiso   1.00
O460   O     0.61294   0.95321   0.14881   0.00000  Uiso   1.00
O461   O     0.63591   0.71196   0.17999   0.00000  Uiso   1.00
O462   O     0.60854   0.74200   0.10714   0.00000  Uiso   1.00
O463   O     0.38885   0.93621   0.19708   0.00000  Uiso   1.00
O464   O     0.36131   0.95389   0.12008   0.00000  Uiso   1.00
O465   O     0.41955   0.73127   0.09760   0.00000  Uiso   1.00
O466   O     0.46943   0.72299   0.04358   0.00000  Uiso   1.00
O467   O     0.57868   0.93333   0.23763   0.00000  Uiso   1.00
O468   O     0.56012   0.79375   0.16667   0.00000  Uiso   1.00
O469   O     0.52901   0.94668   0.29089   0.00000  Uiso   1.00
O470   O     0.57341   0.73354   0.24091   0.00000  Uiso   1.00
O471   O     0.52587   0.71120   0.29275   0.00000  Uiso   1.00
O472   O     0.43328   0.92757   0.08817   0.00000  Uiso   1.00
O473   O     0.47639   0.96191   0.03841   0.00000  Uiso   1.00
O474   O     0.56012   0.87291   0.16667   0.00000  Uiso   1.00
O475   O     0.43988   0.79375   0.16666   0.00000  Uiso   1.00
O476   O     0.50000   0.87292   0.09613   0.00000  Uiso   1.00
O477   O     0.50000   0.79375   0.23720   0.00000  Uiso   1.00
O478   O     0.50000   0.87292   0.23720   0.00000  Uiso   1.00
O479   O     0.50000   0.79375   0.09613   0.00000  Uiso   1.00
O480   O     0.39128   0.76464   0.25258   0.00000  Uiso   1.00
C481   C     0.75417   0.83421   0.16960   0.00000  Uiso   1.00
C482   C     0.68525   0.87666   0.15859   0.00000  Uiso   1.00
C483   C     0.95692   0.83165   0.15646   0.00000  Uiso   1.00
C484   C     0.70900   0.83604   0.17237   0.00000  Uiso   1.00
C485   C     0.81278   0.69235   0.12941   0.00000  Uiso   1.00
C486   C     0.85380   0.97441   0.20401   0.00000  Uiso   1.00
C487   C     0.85368   0.69040   0.20408   0.00000  Uiso   1.00
C488   C     0.81371   0.97635   0.12866   0.00000  Uiso   1.00
C489   C     0.71105   0.75678   0.21055   0.00000  Uiso   1.00
C490   C     0.95234   0.91239   0.12304   0.00000  Uiso   1.00
C491   C     0.96384   0.74562   0.15283   0.00000  Uiso   1.00
C492   C     0.91219   0.83267   0.16232   0.00000  Uiso   1.00
C493   C     0.70264   0.92349   0.15998   0.00000  Uiso   1.00
C494   C     0.78766   0.71761   0.09018   0.00000  Uiso   1.00
C495   C     0.87783   0.94933   0.24426   0.00000  Uiso   1.00
C496   C     0.87503   0.71352   0.24624   0.00000  Uiso   1.00
C497   C     0.79485   0.95359   0.08459   0.00000  Uiso   1.00
C498   C     0.83321   0.83342   0.07368   0.00000  Uiso   1.00
C499   C     0.83349   0.83324   0.25965   0.00000  Uiso   1.00
C500   C     0.83332   0.83347   0.02189   0.00000  Uiso   1.00
C501   C     0.83340   0.83322   0.31145   0.00000  Uiso   1.00
C502   C     0.68913   0.79440   0.18116   0.00000  Uiso   1.00
C503   C     0.97634   0.87325   0.14720   0.00000  Uiso   1.00
C504   C     0.98070   0.79096   0.16689   0.00000  Uiso   1.00
Cu505  Cu    0.83333   0.88022   0.16667   0.00000  Uiso   1.00
Cu506  Cu    0.83333   0.78645   0.16667   0.00000  Uiso   1.00
H507   H     0.73500   0.69200   0.21318   0.00000  Uiso   1.00
H508   H     0.92427   0.97395   0.13164   0.00000  Uiso   1.00
H509   H     0.93182   0.70995   0.10017   0.00000  Uiso   1.00
H510   H     0.70777   0.98477   0.12542   0.00000  Uiso   1.00
H511   H     0.78242   0.73977   0.01945   0.00000  Uiso   1.00
H512   H     0.88186   0.92964   0.31576   0.00000  Uiso   1.00
H513   H     0.87655   0.72787   0.31889   0.00000  Uiso   1.00
H514   H     0.79425   0.94473   0.01103   0.00000  Uiso   1.00
N515   N     0.83333   0.95069   0.16667   0.00000  Uiso   1.00
N516   N     0.83333   0.71598   0.16667   0.00000  Uiso   1.00
O517   O     0.77321   0.87291   0.16666   0.00000  Uiso   1.00
O518   O     0.71807   0.71357   0.18986   0.00000  Uiso   1.00
O519   O     0.93595   0.90765   0.08170   0.00000  Uiso   1.00
O520   O     0.94627   0.95321   0.14881   0.00000  Uiso   1.00
O521   O     0.96924   0.71196   0.17999   0.00000  Uiso   1.00
O522   O     0.94187   0.74200   0.10714   0.00000  Uiso   1.00
O523   O     0.72218   0.93621   0.19708   0.00000  Uiso   1.00
O524   O     0.69464   0.95389   0.12008   0.00000  Uiso   1.00
O525   O     0.75289   0.73127   0.09760   0.00000  Uiso   1.00
O526   O     0.80276   0.72299   0.04358   0.00000  Uiso   1.00
O527   O     0.91201   0.93333   0.23763   0.00000  Uiso   1.00
O528   O     0.89345   0.79375   0.16667   0.00000  Uiso   1.00
O529   O     0.86235   0.94668   0.29089   0.00000  Uiso   1.00
O530   O     0.90674   0.73354   0.24091   0.00000  Uiso   1.00
O531   O     0.85920   0.71120   0.29275   0.00000  Uiso   1.00
O532   O     0.76661   0.92757   0.08817   0.00000  Uiso   1.00
O533   O     0.80972   0.96191   0.03841   0.00000  Uiso   1.00
O534   O     0.89345   0.87291   0.16667   0.00000  Uiso   1.00
O535   O     0.77321   0.79375   0.16666   0.00000  Uiso   1.00
O536   O     0.83333   0.87292   0.09613   0.00000  Uiso   1.00
O537   O     0.83333   0.79375   0.23720   0.00000  Uiso   1.00
O538   O     0.83333   0.87292   0.23720   0.00000  Uiso   1.00
O539   O     0.83333   0.79375   0.09613   0.00000  Uiso   1.00
O540   O     0.72461   0.76464   0.25258   0.00000  Uiso   1.00
C541   C     0.08751   0.16754   0.50293   0.00000  Uiso   1.00
C542   C     0.01859   0.20999   0.49193   0.00000  Uiso   1.00
C543   C     0.29026   0.16498   0.48980   0.00000  Uiso   1.00
C544   C     0.04233   0.16937   0.50570   0.00000  Uiso   1.00
C545   C     0.14611   0.02568   0.46275   0.00000  Uiso   1.00
C546   C     0.18714   0.30775   0.53734   0.00000  Uiso   1.00
C547   C     0.18702   0.02374   0.53742   0.00000  Uiso   1.00
C548   C     0.14704   0.30969   0.46200   0.00000  Uiso   1.00
C549   C     0.04439   0.09011   0.54389   0.00000  Uiso   1.00
C550   C     0.28567   0.24572   0.45637   0.00000  Uiso   1.00
C551   C     0.29718   0.07896   0.48617   0.00000  Uiso   1.00
C552   C     0.24553   0.16601   0.49566   0.00000  Uiso   1.00
C553   C     0.03598   0.25683   0.49331   0.00000  Uiso   1.00
C554   C     0.12099   0.05094   0.42352   0.00000  Uiso   1.00
C555   C     0.21116   0.28266   0.57759   0.00000  Uiso   1.00
C556   C     0.20836   0.04685   0.57957   0.00000  Uiso   1.00
C557   C     0.12819   0.28692   0.41792   0.00000  Uiso   1.00
C558   C     0.16655   0.16676   0.40702   0.00000  Uiso   1.00
C559   C     0.16682   0.16658   0.59299   0.00000  Uiso   1.00
C560   C     0.16665   0.16680   0.35522   0.00000  Uiso   1.00
C561   C     0.16674   0.16655   0.64478   0.00000  Uiso   1.00
C562   C     0.02246   0.12773   0.51450   0.00000  Uiso   1.00
C563   C     0.30968   0.20659   0.48053   0.00000  Uiso   1.00
C564   C     0.31403   0.12429   0.50022   0.00000  Uiso   1.00
Cu565  Cu    0.16667   0.21355   0.50000   0.00000  Uiso   1.00
Cu566  Cu    0.16667   0.11978   0.50000   0.00000  Uiso   1.00
H567   H     0.06834   0.02533   0.54651   0.00000  Uiso   1.00
H568   H     0.25760   0.30729   0.46497   0.00000  Uiso   1.00
H569   H     0.26515   0.04328   0.43351   0.00000  Uiso   1.00
H570   H     0.04110   0.31810   0.45875   0.00000  Uiso   1.00
H571   H     0.11576   0.07310   0.35278   0.00000  Uiso   1.00
H572   H     0.21519   0.26297   0.64909   0.00000  Uiso   1.00
H573   H     0.20988   0.06121   0.65223   0.00000  Uiso   1.00
H574   H     0.12758   0.27807   0.34436   0.00000  Uiso   1.00
N575   N     0.16667   0.28402   0.50000   0.00000  Uiso   1.00
N576   N     0.16667   0.04931   0.50000   0.00000  Uiso   1.00
O577   O     0.10655   0.20625   0.50000   0.00000  Uiso   1.00
O578   O     0.05141   0.04690   0.52319   0.00000  Uiso   1.00
O579   O     0.26928   0.24098   0.41503   0.00000  Uiso   1.00
O580   O     0.27960   0.28654   0.48214   0.00000  Uiso   1.00
O581   O     0.30258   0.04530   0.51333   0.00000  Uiso   1.00
O582   O     0.27521   0.07533   0.44047   0.00000  Uiso   1.00
O583   O     0.05552   0.26954   0.53042   0.00000  Uiso   1.00
O584   O     0.02797   0.28722   0.45341   0.00000  Uiso   1.00
O585   O     0.08622   0.06461   0.43094   0.00000  Uiso   1.00
O586   O     0.13610   0.05632   0.37691   0.00000  Uiso   1.00
O587   O     0.24535   0.26666   0.57096   0.00000  Uiso   1.00
O588   O     0.22679   0.12709   0.50000   0.00000  Uiso   1.00
O589   O     0.19568   0.28002   0.62422   0.00000  Uiso   1.00
O590   O     0.24008   0.06688   0.57424   0.00000  Uiso   1.00
O591   O     0.19253   0.04454   0.62608   0.00000  Uiso   1.00
O592   O     0.09995   0.26090   0.42150   0.00000  Uiso   1.00
O593   O     0.14306   0.29525   0.37174   0.00000  Uiso   1.00
O594   O     0.22679   0.20625   0.50000   0.00000  Uiso   1.00
O595   O     0.10655   0.12709   0.50000   0.00000  Uiso   1.00
O596   O     0.16667   0.20625   0.42946   0.00000  Uiso   1.00
O597   O     0.16667   0.12708   0.57054   0.00000  Uiso   1.00
O598   O     0.16667   0.20625   0.57054   0.00000  Uiso   1.00
O599   O     0.16667   0.12708   0.42946   0.00000  Uiso   1.00
O600   O     0.05794   0.09798   0.58591   0.00000  Uiso   1.00
C601   C     0.42084   0.16754   0.50293   0.00000  Uiso   1.00
C602   C     0.35192   0.20999   0.49193   0.00000  Uiso   1.00
C603   C     0.62359   0.16498   0.48980   0.00000  Uiso   1.00
C604   C     0.37567   0.16937   0.50570   0.00000  Uiso   1.00
C605   C     0.47945   0.02568   0.46275   0.00000  Uiso   1.00
C606   C     0.52047   0.30775   0.53734   0.00000  Uiso   1.00
C607   C     0.52035   0.02374   0.53742   0.00000  Uiso   1.00
C608   C     0.48037   0.30969   0.46200   0.00000  Uiso   1.00
C609   C     0.37772   0.09011   0.54389   0.00000  Uiso   1.00
C610   C     0.61901   0.24572   0.45637   0.00000  Uiso   1.00
C611   C     0.63051   0.07896   0.48617   0.00000  Uiso   1.00
C612   C     0.57886   0.16601   0.49566   0.00000  Uiso   1.00
C613   C     0.36931   0.25683   0.49331   0.00000  Uiso   1.00
C614   C     0.45432   0.05094   0.42352   0.00000  Uiso   1.00
C615   C     0.54449   0.28266   0.57759   0.00000  Uiso   1.00
C616   C     0.54169   0.04685   0.57957   0.00000  Uiso   1.00
C617   C     0.46152   0.28692   0.41792   0.00000  Uiso   1.00
C618   C     0.49988   0.16676   0.40702   0.00000  Uiso   1.00
C619   C     0.50015   0.16658   0.59299   0.00000  Uiso   1.00
C620   C     0.49999   0.16680   0.35522   0.00000  Uiso   1.00
C621   C     0.50007   0.16655   0.64478   0.00000  Uiso   1.00
C622   C     0.35580   0.12773   0.51450   0.00000  Uiso   1.00
C623   C     0.64301   0.20659   0.48053   0.00000  Uiso   1.00
C624   C     0.64736   0.12429   0.50022   0.00000  Uiso   1.00
Cu625  Cu    0.50000   0.21355   0.50000   0.00000  Uiso   1.00
Cu626  Cu    0.50000   0.11978   0.50000   0.00000  Uiso   1.00
H627   H     0.40167   0.02533   0.54651   0.00000  Uiso   1.00
H628   H     0.59093   0.30729   0.46497   0.00000  Uiso   1.00
H629   H     0.59848   0.04328   0.43351   0.00000  Uiso   1.00
H630   H     0.37444   0.31810   0.45875   0.00000  Uiso   1.00
H631   H     0.44909   0.07310   0.35278   0.00000  Uiso   1.00
H632   H     0.54852   0.26297   0.64909   0.00000  Uiso   1.00
H633   H     0.54321   0.06121   0.65223   0.00000  Uiso   1.00
H634   H     0.46092   0.27807   0.34436   0.00000  Uiso   1.00
N635   N     0.50000   0.28402   0.50000   0.00000  Uiso   1.00
N636   N     0.50000   0.04931   0.50000   0.00000  Uiso   1.00
O637   O     0.43988   0.20625   0.50000   0.00000  Uiso   1.00
O638   O     0.38474   0.04690   0.52319   0.00000  Uiso   1.00
O639   O     0.60261   0.24098   0.41503   0.00000  Uiso   1.00
O640   O     0.61294   0.28654   0.48214   0.00000  Uiso   1.00
O641   O     0.63591   0.04530   0.51333   0.00000  Uiso   1.00
O642   O     0.60854   0.07533   0.44047   0.00000  Uiso   1.00
O643   O     0.38885   0.26954   0.53042   0.00000  Uiso   1.00
O644   O     0.36131   0.28722   0.45341   0.00000  Uiso   1.00
O645   O     0.41955   0.06461   0.43094   0.00000  Uiso   1.00
O646   O     0.46943   0.05632   0.37691   0.00000  Uiso   1.00
O647   O     0.57868   0.26666   0.57096   0.00000  Uiso   1.00
O648   O     0.56012   0.12709   0.50000   0.00000  Uiso   1.00
O649   O     0.52901   0.28002   0.62422   0.00000  Uiso   1.00
O650   O     0.57341   0.06688   0.57424   0.00000  Uiso   1.00
O651   O     0.52587   0.04454   0.62608   0.00000  Uiso   1.00
O652   O     0.43328   0.26090   0.42150   0.00000  Uiso   1.00
O653   O     0.47639   0.29525   0.37174   0.00000  Uiso   1.00
O654   O     0.56012   0.20625   0.50000   0.00000  Uiso   1.00
O655   O     0.43988   0.12709   0.50000   0.00000  Uiso   1.00
O656   O     0.50000   0.20625   0.42946   0.00000  Uiso   1.00
O657   O     0.50000   0.12708   0.57054   0.00000  Uiso   1.00
O658   O     0.50000   0.20625   0.57054   0.00000  Uiso   1.00
O659   O     0.50000   0.12708   0.42946   0.00000  Uiso   1.00
O660   O     0.39128   0.09798   0.58591   0.00000  Uiso   1.00
C661   C     0.75417   0.16754   0.50293   0.00000  Uiso   1.00
C662   C     0.68525   0.20999   0.49193   0.00000  Uiso   1.00
C663   C     0.95692   0.16498   0.48980   0.00000  Uiso   1.00
C664   C     0.70900   0.16937   0.50570   0.00000  Uiso   1.00
C665   C     0.81278   0.02568   0.46275   0.00000  Uiso   1.00
C666   C     0.85380   0.30775   0.53734   0.00000  Uiso   1.00
C667   C     0.85368   0.02374   0.53742   0.00000  Uiso   1.00
C668   C     0.81371   0.30969   0.46200   0.00000  Uiso   1.00
C669   C     0.71105   0.09011   0.54389   0.00000  Uiso   1.00
C670   C     0.95234   0.24572   0.45637   0.00000  Uiso   1.00
C671   C     0.96384   0.07896   0.48617   0.00000  Uiso   1.00
C672   C     0.91219   0.16601   0.49566   0.00000  Uiso   1.00
C673   C     0.70264   0.25683   0.49331   0.00000  Uiso   1.00
C674   C     0.78766   0.05094   0.42352   0.00000  Uiso   1.00
C675   C     0.87783   0.28266   0.57759   0.00000  Uiso   1.00
C676   C     0.87503   0.04685   0.57957   0.00000  Uiso   1.00
C677   C     0.79485   0.28692   0.41792   0.00000  Uiso   1.00
C678   C     0.83321   0.16676   0.40702   0.00000  Uiso   1.00
C679   C     0.83349   0.16658   0.59299   0.00000  Uiso   1.00
C680   C     0.83332   0.16680   0.35522   0.00000  Uiso   1.00
C681   C     0.83340   0.16655   0.64478   0.00000  Uiso   1.00
C682   C     0.68913   0.12773   0.51450   0.00000  Uiso   1.00
C683   C     0.97634   0.20659   0.48053   0.00000  Uiso   1.00
C684   C     0.98070   0.12429   0.50022   0.00000  Uiso   1.00
Cu685  Cu    0.83333   0.21355   0.50000   0.00000  Uiso   1.00
Cu686  Cu    0.83333   0.11978   0.50000   0.00000  Uiso   1.00
H687   H     0.73500   0.02533   0.54651   0.00000  Uiso   1.00
H688   H     0.92427   0.30729   0.46497   0.00000  Uiso   1.00
H689   H     0.93182   0.04328   0.43351   0.00000  Uiso   1.00
H690   H     0.70777   0.31810   0.45875   0.00000  Uiso   1.00
H691   H     0.78242   0.07310   0.35278   0.00000  Uiso   1.00
H692   H     0.88186   0.26297   0.64909   0.00000  Uiso   1.00
H693   H     0.87655   0.06121   0.65223   0.00000  Uiso   1.00
H694   H     0.79425   0.27807   0.34436   0.00000  Uiso   1.00
N695   N     0.83333   0.28402   0.50000   0.00000  Uiso   1.00
N696   N     0.83333   0.04931   0.50000   0.00000  Uiso   1.00
O697   O     0.77321   0.20625   0.50000   0.00000  Uiso   1.00
O698   O     0.71807   0.04690   0.52319   0.00000  Uiso   1.00
O699   O     0.93595   0.24098   0.41503   0.00000  Uiso   1.00
O700   O     0.94627   0.28654   0.48214   0.00000  Uiso   1.00
O701   O     0.96924   0.04530   0.51333   0.00000  Uiso   1.00
O702   O     0.94187   0.07533   0.44047   0.00000  Uiso   1.00
O703   O     0.72218   0.26954   0.53042   0.00000  Uiso   1.00
O704   O     0.69464   0.28722   0.45341   0.00000  Uiso   1.00
O705   O     0.75289   0.06461   0.43094   0.00000  Uiso   1.00
O706   O     0.80276   0.05632   0.37691   0.00000  Uiso   1.00
O707   O     0.91201   0.26666   0.57096   0.00000  Uiso   1.00
O708   O     0.89345   0.12709   0.50000   0.00000  Uiso   1.00
O709   O     0.86235   0.28002   0.62422   0.00000  Uiso   1.00
O710   O     0.90674   0.06688   0.57424   0.00000  Uiso   1.00
O711   O     0.85920   0.04454   0.62608   0.00000  Uiso   1.00
O712   O     0.76661   0.26090   0.42150   0.00000  Uiso   1.00
O713   O     0.80972   0.29525   0.37174   0.00000  Uiso   1.00
O714   O     0.89345   0.20625   0.50000   0.00000  Uiso   1.00
O715   O     0.77321   0.12709   0.50000   0.00000  Uiso   1.00
O716   O     0.83333   0.20625   0.42946   0.00000  Uiso   1.00
O717   O     0.83333   0.12708   0.57054   0.00000  Uiso   1.00
O718   O     0.83333   0.20625   0.57054   0.00000  Uiso   1.00
O719   O     0.83333   0.12708   0.42946   0.00000  Uiso   1.00
O720   O     0.72461   0.09798   0.58591   0.00000  Uiso   1.00
C721   C     0.08751   0.50087   0.50293   0.00000  Uiso   1.00
C722   C     0.01859   0.54332   0.49193   0.00000  Uiso   1.00
C723   C     0.29026   0.49832   0.48980   0.00000  Uiso   1.00
C724   C     0.04233   0.50271   0.50570   0.00000  Uiso   1.00
C725   C     0.14611   0.35901   0.46275   0.00000  Uiso   1.00
C726   C     0.18714   0.64108   0.53734   0.00000  Uiso   1.00
C727   C     0.18702   0.35707   0.53742   0.00000  Uiso   1.00
C728   C     0.14704   0.64302   0.46200   0.00000  Uiso   1.00
C729   C     0.04439   0.42344   0.54389   0.00000  Uiso   1.00
C730   C     0.28567   0.57906   0.45637   0.00000  Uiso   1.00
C731   C     0.29718   0.41229   0.48617   0.00000  Uiso   1.00
C732   C     0.24553   0.49934   0.49566   0.00000  Uiso   1.00
C733   C     0.03598   0.59016   0.49331   0.00000  Uiso   1.00
C734   C     0.12099   0.38428   0.42352   0.00000  Uiso   1.00
C735   C     0.21116   0.61600   0.57759   0.00000  Uiso   1.00
C736   C     0.20836   0.38018   0.57957   0.00000  Uiso   1.00
C737   C     0.12819   0.62025   0.41792   0.00000  Uiso   1.00
C738   C     0.16655   0.50009   0.40702   0.00000  Uiso   1.00
C739   C     0.16682   0.49991   0.59299   0.00000  Uiso   1.00
C740   C     0.16665   0.50013   0.35522   0.00000  Uiso   1.00
C741   C     0.16674   0.49989   0.64478   0.00000  Uiso   1.00
C742   C     0.02246   0.46107   0.51450   0.00000  Uiso   1.00
C743   C     0.30968   0.53992   0.48053   0.00000  Uiso   1.00
C744   C     0.31403   0.45762   0.50022   0.00000  Uiso   1.00
Cu745  Cu    0.16667   0.54689   0.50000   0.00000  Uiso   1.00
Cu746  Cu    0.16667   0.45311   0.50000   0.00000  Uiso   1.00
H747   H     0.06834   0.35866   0.54651   0.00000  Uiso   1.00
H748   H     0.25760   0.64062   0.46497   0.00000  Uiso   1.00
H749   H     0.26515   0.37662   0.43351   0.00000  Uiso   1.00
H750   H     0.04110   0.65144   0.45875   0.00000  Uiso   1.00
H751   H     0.11576   0.40643   0.35278   0.00000  Uiso   1.00
H752   H     0.21519   0.59630   0.64909   0.00000  Uiso   1.00
H753   H     0.20988   0.39454   0.65223   0.00000  Uiso   1.00
H754   H     0.12758   0.61140   0.34436   0.00000  Uiso   1.00
N755   N     0.16667   0.61736   0.50000   0.00000  Uiso   1.00
N756   N     0.16667   0.38264   0.50000   0.00000  Uiso   1.00
O757   O     0.10655   0.53958   0.50000   0.00000  Uiso   1.00
O758   O     0.05141   0.38024   0.52319   0.00000  Uiso   1.00
O759   O     0.26928   0.57431   0.41503   0.00000  Uiso   1.00
O760   O     0.27960   0.61988   0.48214   0.00000  Uiso   1.00
O761   O     0.30258   0.37863   0.51333   0.00000  Uiso   1.00
O762   O     0.27521   0.40867   0.44047   0.00000  Uiso   1.00
O763   O     0.05552   0.60288   0.53042   0.00000  Uiso   1.00
O764   O     0.02797   0.62055   0.45341   0.00000  Uiso   1.00
O765   O     0.08622   0.39794   0.43094   0.00000  Uiso   1.00
O766   O     0.13610   0.38965   0.37691   0.00000  Uiso   1.00
O767   O     0.24535   0.60000   0.57096   0.00000  Uiso   1.00
O768   O     0.22679   0.46042   0.50000   0.00000  Uiso   1.00
O769   O     0.19568   0.61335   0.62422   0.00000  Uiso   1.00
O770   O     0.24008   0.40021   0.57424   0.00000  Uiso   1.00
O771   O     0.19253   0.37787   0.62608   0.00000  Uiso   1.00
O772   O     0.09995   0.59423   0.42150   0.00000  Uiso   1.00
O773   O     0.14306   0.62858   0.37174   0.00000  Uiso   1.00
O774   O     0.22679   0.53958   0.50000   0.00000  Uiso   1.00
O775   O     0.10655   0.46042   0.50000   0.00000  Uiso   1.00
O776   O     0.16667   0.53959   0.42946   0.00000  Uiso   1.00
O777   O     0.16667   0.46041   0.57054   0.00000  Uiso   1.00
O778   O     0.16667   0.53959   0.57054   0.00000  Uiso   1.00
O779   O     0.16667   0.46041   0.42946   0.00000  Uiso   1.00
O780   O     0.05794   0.43131   0.58591   0.00000  Uiso   1.00
C781   C     0.42084   0.50087   0.50293   0.00000  Uiso   1.00
C782   C     0.35192   0.54332   0.49193   0.00000  Uiso   1.00
C783   C     0.62359   0.49832   0.48980   0.00000  Uiso   1.00
C784   C     0.37567   0.50271   0.50570   0.00000  Uiso   1.00
C785   C     0.47945   0.35901   0.46275   0.00000  Uiso   1.00
C786   C     0.52047   0.64108   0.53734   0.00000  Uiso   1.00
C787   C     0.52035   0.35707   0.53742   0.00000  Uiso   1.00
C788   C     0.48037   0.64302   0.46200   0.00000  Uiso   1.00
C789   C     0.37772   0.42344   0.54389   0.00000  Uiso   1.00
C790   C     0.61901   0.57906   0.45637   0.00000  Uiso   1.00
C791   C     0.63051   0.41229   0.48617   0.00000  Uiso   1.00
C792   C     0.57886   0.49934   0.49566   0.00000  Uiso   1.00
C793   C     0.36931   0.59016   0.49331   0.00000  Uiso   1.00
C794   C     0.45432   0.38428   0.42352   0.00000  Uiso   1.00
C795   C     0.54449   0.61600   0.57759   0.00000  Uiso   1.00
C796   C     0.54169   0.38018   0.57957   0.00000  Uiso   1.00
C797   C     0.46152   0.62025   0.41792   0.00000  Uiso   1.00
C798   C     0.49988   0.50009   0.40702   0.00000  Uiso   1.00
C799   C     0.50015   0.49991   0.59299   0.00000  Uiso   1.00
C800   C     0.49999   0.50013   0.35522   0.00000  Uiso   1.00
C801   C     0.50007   0.49989   0.64478   0.00000  Uiso   1.00
C802   C     0.35580   0.46107   0.51450   0.00000  Uiso   1.00
C803   C     0.64301   0.53992   0.48053   0.00000  Uiso   1.00
C804   C     0.64736   0.45762   0.50022   0.00000  Uiso   1.00
Cu805  Cu    0.50000   0.54689   0.50000   0.00000  Uiso   1.00
Cu806  Cu    0.50000   0.45311   0.50000   0.00000  Uiso   1.00
H807   H     0.40167   0.35866   0.54651   0.00000  Uiso   1.00
H808   H     0.59093   0.64062   0.46497   0.00000  Uiso   1.00
H809   H     0.59848   0.37662   0.43351   0.00000  Uiso   1.00
H810   H     0.37444   0.65144   0.45875   0.00000  Uiso   1.00
H811   H     0.44909   0.40643   0.35278   0.00000  Uiso   1.00
H812   H     0.54852   0.59630   0.64909   0.00000  Uiso   1.00
H813   H     0.54321   0.39454   0.65223   0.00000  Uiso   1.00
H814   H     0.46092   0.61140   0.34436   0.00000  Uiso   1.00
N815   N     0.50000   0.61736   0.50000   0.00000  Uiso   1.00
N816   N     0.50000   0.38264   0.50000   0.00000  Uiso   1.00
O817   O     0.43988   0.53958   0.50000   0.00000  Uiso   1.00
O818   O     0.38474   0.38024   0.52319   0.00000  Uiso   1.00
O819   O     0.60261   0.57431   0.41503   0.00000  Uiso   1.00
O820   O     0.61294   0.61988   0.48214   0.00000  Uiso   1.00
O821   O     0.63591   0.37863   0.51333   0.00000  Uiso   1.00
O822   O     0.60854   0.40867   0.44047   0.00000  Uiso   1.00
O823   O     0.38885   0.60288   0.53042   0.00000  Uiso   1.00
O824   O     0.36131   0.62055   0.45341   0.00000  Uiso   1.00
O825   O     0.41955   0.39794   0.43094   0.00000  Uiso   1.00
O826   O     0.46943   0.38965   0.37691   0.00000  Uiso   1.00
O827   O     0.57868   0.60000   0.57096   0.00000  Uiso   1.00
O828   O     0.56012   0.46042   0.50000   0.00000  Uiso   1.00
O829   O     0.52901   0.61335   0.62422   0.00000  Uiso   1.00
O830   O     0.57341   0.40021   0.57424   0.00000  Uiso   1.00
O831   O     0.52587   0.37787   0.62608   0.00000  Uiso   1.00
O832   O     0.43328   0.59423   0.42150   0.00000  Uiso   1.00
O833   O     0.47639   0.62858   0.37174   0.00000  Uiso   1.00
O834   O     0.56012   0.53958   0.50000   0.00000  Uiso   1.00
O835   O     0.43988   0.46042   0.50000   0.00000  Uiso   1.00
O836   O     0.50000   0.53959   0.42946   0.00000  Uiso   1.00
O837   O     0.50000   0.46041   0.57054   0.00000  Uiso   1.00
O838   O     0.50000   0.53959   0.57054   0.00000  Uiso   1.00
O839   O     0.50000   0.46041   0.42946   0.00000  Uiso   1.00
O840   O     0.39128   0.43131   0.58591   0.00000  Uiso   1.00
C841   C     0.75417   0.50087   0.50293   0.00000  Uiso   1.00
C842   C     0.68525   0.54332   0.49193   0.00000  Uiso   1.00
C843   C     0.95692   0.49832   0.48980   0.00000  Uiso   1.00
C844   C     0.70900   0.50271   0.50570   0.00000  Uiso   1.00
C845   C     0.81278   0.35901   0.46275   0.00000  Uiso   1.00
C846   C     0.85380   0.64108   0.53734   0.00000  Uiso   1.00
C847   C     0.85368   0.35707   0.53742   0.00000  Uiso   1.00
C848   C     0.81371   0.64302   0.46200   0.00000  Uiso   1.00
C849   C     0.71105   0.42344   0.54389   0.00000  Uiso   1.00
C850   C     0.95234   0.57906   0.45637   0.00000  Uiso   1.00
C851   C     0.96384   0.41229   0.48617   0.00000  Uiso   1.00
C852   C     0.91219   0.49934   0.49566   0.00000  Uiso   1.00
C853   C     0.70264   0.59016   0.49331   0.00000  Uiso   1.00
C854   C     0.78766   0.38428   0.42352   0.00000  Uiso   1.00
C855   C     0.87783   0.61600   0.57759   0.00000  Uiso   1.00
C856   C     0.87503   0.38018   0.57957   0.00000  Uiso   1.00
C857   C     0.79485   0.62025   0.41792   0.00000  Uiso   1.00
C858   C     0.83321   0.50009   0.40702   0.00000  Uiso   1.00
C859   C     0.83349   0.49991   0.59299   0.00000  Uiso   1.00
C860   C     0.83332   0.50013   0.35522   0.00000  Uiso   1.00
C861   C     0.83340   0.49989   0.64478   0.00000  Uiso   1.00
C862   C     0.68913   0.46107   0.51450   0.00000  Uiso   1.00
C863   C     0.97634   0.53992   0.48053   0.00000  Uiso   1.00
C864   C     0.98070   0.45762   0.50022   0.00000  Uiso   1.00
Cu865  Cu    0.83333   0.54689   0.50000   0.00000  Uiso   1.00
Cu866  Cu    0.83333   0.45311   0.50000   0.00000  Uiso   1.00
H867   H     0.73500   0.35866   0.54651   0.00000  Uiso   1.00
H868   H     0.92427   0.64062   0.46497   0.00000  Uiso   1.00
H869   H     0.93182   0.37662   0.43351   0.00000  Uiso   1.00
H870   H     0.70777   0.65144   0.45875   0.00000  Uiso   1.00
H871   H     0.78242   0.40643   0.35278   0.00000  Uiso   1.00
H872   H     0.88186   0.59630   0.64909   0.00000  Uiso   1.00
H873   H     0.87655   0.39454   0.65223   0.00000  Uiso   1.00
H874   H     0.79425   0.61140   0.34436   0.00000  Uiso   1.00
N875   N     0.83333   0.61736   0.50000   0.00000  Uiso   1.00
N876   N     0.83333   0.38264   0.50000   0.00000  Uiso   1.00
O877   O     0.77321   0.53958   0.50000   0.00000  Uiso   1.00
O878   O     0.71807   0.38024   0.52319   0.00000  Uiso   1.00
O879   O     0.93595   0.57431   0.41503   0.00000  Uiso   1.00
O880   O     0.94627   0.61988   0.48214   0.00000  Uiso   1.00
O881   O     0.96924   0.37863   0.51333   0.00000  Uiso   1.00
O882   O     0.94187   0.40867   0.44047   0.00000  Uiso   1.00
O883   O     0.72218   0.60288   0.53042   0.00000  Uiso   1.00
O884   O     0.69464   0.62055   0.45341   0.00000  Uiso   1.00
O885   O     0.75289   0.39794   0.43094   0.00000  Uiso   1.00
O886   O     0.80276   0.38965   0.37691   0.00000  Uiso   1.00
O887   O     0.91201   0.60000   0.57096   0.00000  Uiso   1.00
O888   O     0.89345   0.46042   0.50000   0.00000  Uiso   1.00
O889   O     0.86235   0.61335   0.62422   0.00000  Uiso   1.00
O890   O     0.90674   0.40021   0.57424   0.00000  Uiso   1.00
O891   O     0.85920   0.37787   0.62608   0.00000  Uiso   1.00
O892   O     0.76661   0.59423   0.42150   0.00000  Uiso   1.00
O893   O     0.80972   0.62858   0.37174   0.00000  Uiso   1.00
O894   O     0.89345   0.53958   0.50000   0.00000  Uiso   1.00
O895   O     0.77321   0.46042   0.50000   0.00000  Uiso   1.00
O896   O     0.83333   0.53959   0.42946   0.00000  Uiso   1.00
O897   O     0.83333   0.46041   0.57054   0.00000  Uiso   1.00
O898   O     0.83333   0.53959   0.57054   0.00000  Uiso   1.00
O899   O     0.83333   0.46041   0.42946   0.00000  Uiso   1.00
O900   O     0.72461   0.43131   0.58591   0.00000  Uiso   1.00
C901   C     0.08751   0.83421   0.50293   0.00000  Uiso   1.00
C902   C     0.01859   0.87666   0.49193   0.00000  Uiso   1.00
C903   C     0.29026   0.83165   0.48980   0.00000  Uiso   1.00
C904   C     0.04233   0.83604   0.50570   0.00000  Uiso   1.00
C905   C     0.14611   0.69235   0.46275   0.00000  Uiso   1.00
C906   C     0.18714   0.97441   0.53734   0.00000  Uiso   1.00
C907   C     0.18702   0.69040   0.53742   0.00000  Uiso   1.00
C908   C     0.14704   0.97635   0.46200   0.00000  Uiso   1.00
C909   C     0.04439   0.75678   0.54389   0.00000  Uiso   1.00
C910   C     0.28567   0.91239   0.45637   0.00000  Uiso   1.00
C911   C     0.29718   0.74562   0.48617   0.00000  Uiso   1.00
C912   C     0.24553   0.83267   0.49566   0.00000  Uiso   1.00
C913   C     0.03598   0.92349   0.49331   0.00000  Uiso   1.00
C914   C     0.12099   0.71761   0.42352   0.00000  Uiso   1.00
C915   C     0.21116   0.94933   0.57759   0.00000  Uiso   1.00
C916   C     0.20836   0.71352   0.57957   0.00000  Uiso   1.00
C917   C     0.12819   0.95359   0.41792   0.00000  Uiso   1.00
C918   C     0.16655   0.83342   0.40702   0.00000  Uiso   1.00
C919   C     0.16682   0.83324   0.59299   0.00000  Uiso   1.00
C920   C     0.16665   0.83347   0.35522   0.00000  Uiso   1.00
C921   C     0.16674   0.83322   0.64478   0.00000  Uiso   1.00
C922   C     0.02246   0.79440   0.51450   0.00000  Uiso   1.00
C923   C     0.30968   0.87325   0.48053   0.00000  Uiso   1.00
C924   C     0.31403   0.79096   0.50022   0.00000  Uiso   1.00
Cu925  Cu    0.16667   0.88022   0.50000   0.00000  Uiso   1.00
Cu926  Cu    0.16667   0.78645   0.50000   0.00000  Uiso   1.00
H927   H     0.06834   0.69200   0.54651   0.00000  Uiso   1.00
H928   H     0.25760   0.97395   0.46497   0.00000  Uiso   1.00
H929   H     0.26515   0.70995   0.43351   0.00000  Uiso   1.00
H930   H     0.04110   0.98477   0.45875   0.00000  Uiso   1.00
H931   H     0.11576   0.73977   0.35278   0.00000  Uiso   1.00
H932   H     0.21519   0.92964   0.64909   0.00000  Uiso   1.00
H933   H     0.20988   0.72787   0.65223   0.00000  Uiso   1.00
H934   H     0.12758   0.94473   0.34436   0.00000  Uiso   1.00
N935   N     0.16667   0.95069   0.50000   0.00000  Uiso   1.00
N936   N     0.16667   0.71598   0.50000   0.00000  Uiso   1.00
O937   O     0.10655   0.87291   0.50000   0.00000  Uiso   1.00
O938   O     0.05141   0.71357   0.52319   0.00000  Uiso   1.00
O939   O     0.26928   0.90765   0.41503   0.00000  Uiso   1.00
O940   O     0.27960   0.95321   0.48214   0.00000  Uiso   1.00
O941   O     0.30258   0.71196   0.51333   0.00000  Uiso   1.00
O942   O     0.27521   0.74200   0.44047   0.00000  Uiso   1.00
O943   O     0.05552   0.93621   0.53042   0.00000  Uiso   1.00
O944   O     0.02797   0.95389   0.45341   0.00000  Uiso   1.00
O945   O     0.08622   0.73127   0.43094   0.00000  Uiso   1.00
O946   O     0.13610   0.72299   0.37691   0.00000  Uiso   1.00
O947   O     0.24535   0.93333   0.57096   0.00000  Uiso   1.00
O948   O     0.22679   0.79375   0.50000   0.00000  Uiso   1.00
O949   O     0.19568   0.94668   0.62422   0.00000  Uiso   1.00
O950   O     0.24008   0.73354   0.57424   0.00000  Uiso   1.00
O951   O     0.19253   0.71120   0.62608   0.00000  Uiso   1.00
O952   O     0.09995   0.92757   0.42150   0.00000  Uiso   1.00
O953   O     0.14306   0.96191   0.37174   0.00000  Uiso   1.00
O954   O     0.22679   0.87291   0.50000   0.00000  Uiso   1.00
O955   O     0.10655   0.79375   0.50000   0.00000  Uiso   1.00
O956   O     0.16667   0.87292   0.42946   0.00000  Uiso   1.00
O957   O     0.16667   0.79375   0.57054   0.00000  Uiso   1.00
O958   O     0.16667   0.87292   0.57054   0.00000  Uiso   1.00
O959   O     0.16667   0.79375   0.42946   0.00000  Uiso   1.00
O960   O     0.05794   0.76464   0.58591   0.00000  Uiso   1.00
C961   C     0.42084   0.83421   0.50293   0.00000  Uiso   1.00
C962   C     0.35192   0.87666   0.49193   0.00000  Uiso   1.00
C963   C     0.62359   0.83165   0.48980   0.00000  Uiso   1.00
C964   C     0.37567   0.83604   0.50570   0.00000  Uiso   1.00
C965   C     0.47945   0.69235   0.46275   0.00000  Uiso   1.00
C966   C     0.52047   0.97441   0.53734   0.00000  Uiso   1.00
C967   C     0.52035   0.69040   0.53742   0.00000  Uiso   1.00
C968   C     0.48037   0.97635   0.46200   0.00000  Uiso   1.00
C969   C     0.37772   0.75678   0.54389   0.00000  Uiso   1.00
C970   C     0.61901   0.91239   0.45637   0.00000  Uiso   1.00
C971   C     0.63051   0.74562   0.48617   0.00000  Uiso   1.00
C972   C     0.57886   0.83267   0.49566   0.00000  Uiso   1.00
C973   C     0.36931   0.92349   0.49331   0.00000  Uiso   1.00
C974   C     0.45432   0.71761   0.42352   0.00000  Uiso   1.00
C975   C     0.54449   0.94933   0.57759   0.00000  Uiso   1.00
C976   C     0.54169   0.71352   0.57957   0.00000  Uiso   1.00
C977   C     0.46152   0.95359   0.41792   0.00000  Uiso   1.00
C978   C     0.49988   0.83342   0.40702   0.00000  Uiso   1.00
C979   C     0.50015   0.83324   0.59299   0.00000  Uiso   1.00
C980   C     0.49999   0.83347   0.35522   0.00000  Uiso   1.00
C981   C     0.50007   0.83322   0.64478   0.00000  Uiso   1.00
C982   C     0.35580   0.79440   0.51450   0.00000  Uiso   1.00
C983   C     0.64301   0.87325   0.48053   0.00000  Uiso   1.00
C984   C     0.64736   0.79096   0.50022   0.00000  Uiso   1.00
Cu985  Cu    0.50000   0.88022   0.50000   0.00000  Uiso   1.00
Cu986  Cu    0.50000   0.78645   0.50000   0.00000  Uiso   1.00
H987   H     0.40167   0.69200   0.54651   0.00000  Uiso   1.00
H988   H     0.59093   0.97395   0.46497   0.00000  Uiso   1.00
H989   H     0.59848   0.70995   0.43351   0.00000  Uiso   1.00
H990   H     0.37444   0.98477   0.45875   0.00000  Uiso   1.00
H991   H     0.44909   0.73977   0.35278   0.00000  Uiso   1.00
H992   H     0.54852   0.92964   0.64909   0.00000  Uiso   1.00
H993   H     0.54321   0.72787   0.65223   0.00000  Uiso   1.00
H994   H     0.46092   0.94473   0.34436   0.00000  Uiso   1.00
N995   N     0.50000   0.95069   0.50000   0.00000  Uiso   1.00
N996   N     0.50000   0.71598   0.50000   0.00000  Uiso   1.00
O997   O     0.43988   0.87291   0.50000   0.00000  Uiso   1.00
O998   O     0.38474   0.71357   0.52319   0.00000  Uiso   1.00
O999   O     0.60261   0.90765   0.41503   0.00000  Uiso   1.00
O1000  O     0.61294   0.95321   0.48214   0.00000  Uiso   1.00
O1001  O     0.63591   0.71196   0.51333   0.00000  Uiso   1.00
O1002  O     0.60854   0.74200   0.44047   0.00000  Uiso   1.00
O1003  O     0.38885   0.93621   0.53042   0.00000  Uiso   1.00
O1004  O     0.36131   0.95389   0.45341   0.00000  Uiso   1.00
O1005  O     0.41955   0.73127   0.43094   0.00000  Uiso   1.00
O1006  O     0.46943   0.72299   0.37691   0.00000  Uiso   1.00
O1007  O     0.57868   0.93333   0.57096   0.00000  Uiso   1.00
O1008  O     0.56012   0.79375   0.50000   0.00000  Uiso   1.00
O1009  O     0.52901   0.94668   0.62422   0.00000  Uiso   1.00
O1010  O     0.57341   0.73354   0.57424   0.00000  Uiso   1.00
O1011  O     0.52587   0.71120   0.62608   0.00000  Uiso   1.00
O1012  O     0.43328   0.92757   0.42150   0.00000  Uiso   1.00
O1013  O     0.47639   0.96191   0.37174   0.00000  Uiso   1.00
O1014  O     0.56012   0.87291   0.50000   0.00000  Uiso   1.00
O1015  O     0.43988   0.79375   0.50000   0.00000  Uiso   1.00
O1016  O     0.50000   0.87292   0.42946   0.00000  Uiso   1.00
O1017  O     0.50000   0.79375   0.57054   0.00000  Uiso   1.00
O1018  O     0.50000   0.87292   0.57054   0.00000  Uiso   1.00
O1019  O     0.50000   0.79375   0.42946   0.00000  Uiso   1.00
O1020  O     0.39128   0.76464   0.58591   0.00000  Uiso   1.00
C1021  C     0.75417   0.83421   0.50293   0.00000  Uiso   1.00
C1022  C     0.68525   0.87666   0.49193   0.00000  Uiso   1.00
C1023  C     0.95692   0.83165   0.48980   0.00000  Uiso   1.00
C1024  C     0.70900   0.83604   0.50570   0.00000  Uiso   1.00
C1025  C     0.81278   0.69235   0.46275   0.00000  Uiso   1.00
C1026  C     0.85380   0.97441   0.53734   0.00000  Uiso   1.00
C1027  C     0.85368   0.69040   0.53742   0.00000  Uiso   1.00
C1028  C     0.81371   0.97635   0.46200   0.00000  Uiso   1.00
C1029  C     0.71105   0.75678   0.54389   0.00000  Uiso   1.00
C1030  C     0.95234   0.91239   0.45637   0.00000  Uiso   1.00
C1031  C     0.96384   0.74562   0.48617   0.00000  Uiso   1.00
C1032  C     0.91219   0.83267   0.49566   0.00000  Uiso   1.00
C1033  C     0.70264   0.92349   0.49331   0.00000  Uiso   1.00
C1034  C     0.78766   0.71761   0.42352   0.00000  Uiso   1.00
C1035  C     0.87783   0.94933   0.57759   0.00000  Uiso   1.00
C1036  C     0.87503   0.71352   0.57957   0.00000  Uiso   1.00
C1037  C     0.79485   0.95359   0.41792   0.00000  Uiso   1.00
C1038  C     0.83321   0.83342   0.40702   0.00000  Uiso   1.00
C1039  C     0.83349   0.83324   0.59299   0.00000  Uiso   1.00
C1040  C     0.83332   0.83347   0.35522   0.00000  Uiso   1.00
C1041  C     0.83340   0.83322   0.64478   0.00000  Uiso   1.00
C1042  C     0.68913   0.79440   0.51450   0.00000  Uiso   1.00
C1043  C     0.97634   0.87325   0.48053   0.00000  Uiso   1.00
C1044  C     0.98070   0.79096   0.50022   0.00000  Uiso   1.00
Cu1045 Cu    0.83333   0.88022   0.50000   0.00000  Uiso   1.00
Cu1046 Cu    0.83333   0.78645   0.50000   0.00000  Uiso   1.00
H1047  H     0.73500   0.69200   0.54651   0.00000  Uiso   1.00
H1048  H     0.92427   0.97395   0.46497   0.00000  Uiso   1.00
H1049  H     0.93182   0.70995   0.43351   0.00000  Uiso   1.00
H1050  H     0.70777   0.98477   0.45875   0.00000  Uiso   1.00
H1051  H     0.78242   0.73977   0.35278   0.00000  Uiso   1.00
H1052  H     0.88186   0.92964   0.64909   0.00000  Uiso   1.00
H1053  H     0.87655   0.72787   0.65223   0.00000  Uiso   1.00
H1054  H     0.79425   0.94473   0.34436   0.00000  Uiso   1.00
N1055  N     0.83333   0.95069   0.50000   0.00000  Uiso   1.00
N1056  N     0.83333   0.71598   0.50000   0.00000  Uiso   1.00
O1057  O     0.77321   0.87291   0.50000   0.00000  Uiso   1.00
O1058  O     0.71807   0.71357   0.52319   0.00000  Uiso   1.00
O1059  O     0.93595   0.90765   0.41503   0.00000  Uiso   1.00
O1060  O     0.94627   0.95321   0.48214   0.00000  Uiso   1.00
O1061  O     0.96924   0.71196   0.51333   0.00000  Uiso   1.00
O1062  O     0.94187   0.74200   0.44047   0.00000  Uiso   1.00
O1063  O     0.72218   0.93621   0.53042   0.00000  Uiso   1.00
O1064  O     0.69464   0.95389   0.45341   0.00000  Uiso   1.00
O1065  O     0.75289   0.73127   0.43094   0.00000  Uiso   1.00
O1066  O     0.80276   0.72299   0.37691   0.00000  Uiso   1.00
O1067  O     0.91201   0.93333   0.57096   0.00000  Uiso   1.00
O1068  O     0.89345   0.79375   0.50000   0.00000  Uiso   1.00
O1069  O     0.86235   0.94668   0.62422   0.00000  Uiso   1.00
O1070  O     0.90674   0.73354   0.57424   0.00000  Uiso   1.00
O1071  O     0.85920   0.71120   0.62608   0.00000  Uiso   1.00
O1072  O     0.76661   0.92757   0.42150   0.00000  Uiso   1.00
O1073  O     0.80972   0.96191   0.37174   0.00000  Uiso   1.00
O1074  O     0.89345   0.87291   0.50000   0.00000  Uiso   1.00
O1075  O     0.77321   0.79375   0.50000   0.00000  Uiso   1.00
O1076  O     0.83333   0.87292   0.42946   0.00000  Uiso   1.00
O1077  O     0.83333   0.79375   0.57054   0.00000  Uiso   1.00
O1078  O     0.83333   0.87292   0.57054   0.00000  Uiso   1.00
O1079  O     0.83333   0.79375   0.42946   0.00000  Uiso   1.00
O1080  O     0.72461   0.76464   0.58591   0.00000  Uiso   1.00
C1081  C     0.08751   0.16754   0.83626   0.00000  Uiso   1.00
C1082  C     0.01859   0.20999   0.82526   0.00000  Uiso   1.00
C1083  C     0.29026   0.16498   0.82313   0.00000  Uiso   1.00
C1084  C     0.04233   0.16937   0.83903   0.00000  Uiso   1.00
C1085  C     0.14611   0.02568   0.79608   0.00000  Uiso   1.00
C1086  C     0.18714   0.30775   0.87067   0.00000  Uiso   1.00
C1087  C     0.18702   0.02374   0.87075   0.00000  Uiso   1.00
C1088  C     0.14704   0.30969   0.79533   0.00000  Uiso   1.00
C1089  C     0.04439   0.09011   0.87722   0.00000  Uiso   1.00
C1090  C     0.28567   0.24572   0.78971   0.00000  Uiso   1.00
C1091  C     0.29718   0.07896   0.81950   0.00000  Uiso   1.00
C1092  C     0.24553   0.16601   0.82899   0.00000  Uiso   1.00
C1093  C     0.03598   0.25683   0.82665   0.00000  Uiso   1.00
C1094  C     0.12099   0.05094   0.75685   0.00000  Uiso   1.00
C1095  C     0.21116   0.28266   0.91092   0.00000  Uiso   1.00
C1096  C     0.20836   0.04685   0.91291   0.00000  Uiso   1.00
C1097  C     0.12819   0.28692   0.75125   0.00000  Uiso   1.00
C1098  C     0.16655   0.16676   0.74035   0.00000  Uiso   1.00
C1099  C     0.16682   0.16658   0.92632   0.00000  Uiso   1.00
C1100  C     0.16665   0.16680   0.68856   0.00000  Uiso   1.00
C1101  C     0.16674   0.16655   0.97811   0.00000  Uiso   1.00
C1102  C     0.02246   0.12773   0.84783   0.00000  Uiso   1.00
C1103  C     0.30968   0.20659   0.81387   0.00000  Uiso   1.00
C1104  C     0.31403   0.12429   0.83355   0.00000  Uiso   1.00
Cu1105 Cu    0.16667   0.21355   0.83333   0.00000  Uiso   1.00
Cu1106 Cu    0.16667   0.11978   0.83333   0.00000  Uiso   1.00
H1107  H     0.06834   0.02533   0.87984   0.00000  Uiso   1.00
H1108  H     0.25760   0.30729   0.79831   0.00000  Uiso   1.00
H1109  H     0.26515   0.04328   0.76684   0.00000  Uiso   1.00
H1110  H     0.04110   0.31810   0.79208   0.00000  Uiso   1.00
H1111  H     0.11576   0.07310   0.68612   0.00000  Uiso   1.00
H1112  H     0.21519   0.26297   0.98243   0.00000  Uiso   1.00
H1113  H     0.20988   0.06121   0.98556   0.00000  Uiso   1.00
H1114  H     0.12758   0.27807   0.67769   0.00000  Uiso   1.00
N1115  N     0.16667   0.28402   0.83333   0.00000  Uiso   1.00
N1116  N     0.16667   0.04931   0.83333   0.00000  Uiso   1.00
O1117  O     0.10655   0.20625   0.83333   0.00000  Uiso   1.00
O1118  O     0.05141   0.04690   0.85653   0.00000  Uiso   1.00
O1119  O     0.26928   0.24098   0.74836   0.00000  Uiso   1.00
O1120  O     0.27960   0.28654   0.81548   0.00000  Uiso   1.00
O1121  O     0.30258   0.04530   0.84666   0.00000  Uiso   1.00
O1122  O     0.27521   0.07533   0.77380   0.00000  Uiso   1.00
O1123  O     0.05552   0.26954   0.86375   0.00000  Uiso   1.00
O1124  O     0.02797   0.28722   0.78674   0.00000  Uiso   1.00
O1125  O     0.08622   0.06461   0.76427   0.00000  Uiso   1.00
O1126  O     0.13610   0.05632   0.71024   0.00000  Uiso   1.00
O1127  O     0.24535   0.26666   0.90429   0.00000  Uiso   1.00
O1128  O     0.22679   0.12709   0.83334   0.00000  Uiso   1.00
O1129  O     0.19568   0.28002   0.95755   0.00000  Uiso   1.00
O1130  O     0.24008   0.06688   0.90757   0.00000  Uiso   1.00
O1131  O     0.19253   0.04454   0.95942   0.00000  Uiso   1.00
O1132  O     0.09995   0.26090   0.75484   0.00000  Uiso   1.00
O1133  O     0.14306   0.29525   0.70508   0.00000  Uiso   1.00
O1134  O     0.22679   0.20625   0.83334   0.00000  Uiso   1.00
O1135  O     0.10655   0.12709   0.83333   0.00000  Uiso   1.00
O1136  O     0.16667   0.20625   0.76280   0.00000  Uiso   1.00
O1137  O     0.16667   0.12708   0.90387   0.00000  Uiso   1.00
O1138  O     0.16667   0.20625   0.90387   0.00000  Uiso   1.00
O1139  O     0.16667   0.12708   0.76280   0.00000  Uiso   1.00
O1140  O     0.05794   0.09798   0.91924   0.00000  Uiso   1.00
C1141  C     0.42084   0.16754   0.83626   0.00000  Uiso   1.00
C1142  C     0.35192   0.20999   0.82526   0.00000  Uiso   1.00
C1143  C     0.62359   0.16498   0.82313   0.00000  Uiso   1.00
C1144  C     0.37567   0.16937   0.83903   0.00000  Uiso   1.00
C1145  C     0.47945   0.02568   0.79608   0.00000  Uiso   1.00
C1146  C     0.52047   0.30775   0.87067   0.00000  Uiso   1.00
C1147  C     0.52035   0.02374   0.87075   0.00000  Uiso   1.00
C1148  C     0.48037   0.30969   0.79533   0.00000  Uiso   1.00
C1149  C     0.37772   0.09011   0.87722   0.00000  Uiso   1.00
C1150  C     0.61901   0.24572   0.78971   0.00000  Uiso   1.00
C1151  C     0.63051   0.07896   0.81950   0.00000  Uiso   1.00
C1152  C     0.57886   0.16601   0.82899   0.00000  Uiso   1.00
C1153  C     0.36931   0.25683   0.82665   0.00000  Uiso   1.00
C1154  C     0.45432   0.05094   0.75685   0.00000  Uiso   1.00
C1155  C     0.54449   0.28266   0.91092   0.00000  Uiso   1.00
C1156  C     0.54169   0.04685   0.91291   0.00000  Uiso   1.00
C1157  C     0.46152   0.28692   0.75125   0.00000  Uiso   1.00
C1158  C     0.49988   0.16676   0.74035   0.00000  Uiso   1.00
C1159  C     0.50015   0.16658   0.92632   0.00000  Uiso   1.00
C1160  C     0.49999   0.16680   0.68856   0.00000  Uiso   1.00
C1161  C     0.50007   0.16655   0.97811   0.00000  Uiso   1.00
C1162  C     0.35580   0.12773   0.84783   0.00000  Uiso   1.00
C1163  C     0.64301   0.20659   0.81387   0.00000  Uiso   1.00
C1164  C     0.64736   0.12429   0.83355   0.00000  Uiso   1.00
Cu1165 Cu    0.50000   0.21355   0.83333   0.00000  Uiso   1.00
Cu1166 Cu    0.50000   0.11978   0.83333   0.00000  Uiso   1.00
H1167  H     0.40167   0.02533   0.87984   0.00000  Uiso   1.00
H1168  H     0.59093   0.30729   0.79831   0.00000  Uiso   1.00
H1169  H     0.59848   0.04328   0.76684   0.00000  Uiso   1.00
H1170  H     0.37444   0.31810   0.79208   0.00000  Uiso   1.00
H1171  H     0.44909   0.07310   0.68612   0.00000  Uiso   1.00
H1172  H     0.54852   0.26297   0.98243   0.00000  Uiso   1.00
H1173  H     0.54321   0.06121   0.98556   0.00000  Uiso   1.00
H1174  H     0.46092   0.27807   0.67769   0.00000  Uiso   1.00
N1175  N     0.50000   0.28402   0.83333   0.00000  Uiso   1.00
N1176  N     0.50000   0.04931   0.83333   0.00000  Uiso   1.00
O1177  O     0.43988   0.20625   0.83333   0.00000  Uiso   1.00
O1178  O     0.38474   0.04690   0.85653   0.00000  Uiso   1.00
O1179  O     0.60261   0.24098   0.74836   0.00000  Uiso   1.00
O1180  O     0.61294   0.28654   0.81548   0.00000  Uiso   1.00
O1181  O     0.63591   0.04530   0.84666   0.00000  Uiso   1.00
O1182  O     0.60854   0.07533   0.77380   0.00000  Uiso   1.00
O1183  O     0.38885   0.26954   0.86375   0.00000  Uiso   1.00
O1184  O     0.36131   0.28722   0.78674   0.00000  Uiso   1.00
O1185  O     0.41955   0.06461   0.76427   0.00000  Uiso   1.00
O1186  O     0.46943   0.05632   0.71024   0.00000  Uiso   1.00
O1187  O     0.57868   0.26666   0.90429   0.00000  Uiso   1.00
O1188  O     0.56012   0.12709   0.83334   0.00000  Uiso   1.00
O1189  O     0.52901   0.28002   0.95755   0.00000  Uiso   1.00
O1190  O     0.57341   0.06688   0.90757   0.00000  Uiso   1.00
O1191  O     0.52587   0.04454   0.95942   0.00000  Uiso   1.00
O1192  O     0.43328   0.26090   0.75484   0.00000  Uiso   1.00
O1193  O     0.47639   0.29525   0.70508   0.00000  Uiso   1.00
O1194  O     0.56012   0.20625   0.83334   0.00000  Uiso   1.00
O1195  O     0.43988   0.12709   0.83333   0.00000  Uiso   1.00
O1196  O     0.50000   0.20625   0.76280   0.00000  Uiso   1.00
O1197  O     0.50000   0.12708   0.90387   0.00000  Uiso   1.00
O1198  O     0.50000   0.20625   0.90387   0.00000  Uiso   1.00
O1199  O     0.50000   0.12708   0.76280   0.00000  Uiso   1.00
O1200  O     0.39128   0.09798   0.91924   0.00000  Uiso   1.00
C1201  C     0.75417   0.16754   0.83626   0.00000  Uiso   1.00
C1202  C     0.68525   0.20999   0.82526   0.00000  Uiso   1.00
C1203  C     0.95692   0.16498   0.82313   0.00000  Uiso   1.00
C1204  C     0.70900   0.16937   0.83903   0.00000  Uiso   1.00
C1205  C     0.81278   0.02568   0.79608   0.00000  Uiso   1.00
C1206  C     0.85380   0.30775   0.87067   0.00000  Uiso   1.00
C1207  C     0.85368   0.02374   0.87075   0.00000  Uiso   1.00
C1208  C     0.81371   0.30969   0.79533   0.00000  Uiso   1.00
C1209  C     0.71105   0.09011   0.87722   0.00000  Uiso   1.00
C1210  C     0.95234   0.24572   0.78971   0.00000  Uiso   1.00
C1211  C     0.96384   0.07896   0.81950   0.00000  Uiso   1.00
C1212  C     0.91219   0.16601   0.82899   0.00000  Uiso   1.00
C1213  C     0.70264   0.25683   0.82665   0.00000  Uiso   1.00
C1214  C     0.78766   0.05094   0.75685   0.00000  Uiso   1.00
C1215  C     0.87783   0.28266   0.91092   0.00000  Uiso   1.00
C1216  C     0.87503   0.04685   0.91291   0.00000  Uiso   1.00
C1217  C     0.79485   0.28692   0.75125   0.00000  Uiso   1.00
C1218  C     0.83321   0.16676   0.74035   0.00000  Uiso   1.00
C1219  C     0.83349   0.16658   0.92632   0.00000  Uiso   1.00
C1220  C     0.83332   0.16680   0.68856   0.00000  Uiso   1.00
C1221  C     0.83340   0.16655   0.97811   0.00000  Uiso   1.00
C1222  C     0.68913   0.12773   0.84783   0.00000  Uiso   1.00
C1223  C     0.97634   0.20659   0.81387   0.00000  Uiso   1.00
C1224  C     0.98070   0.12429   0.83355   0.00000  Uiso   1.00
Cu1225 Cu    0.83333   0.21355   0.83333   0.00000  Uiso   1.00
Cu1226 Cu    0.83333   0.11978   0.83333   0.00000  Uiso   1.00
H1227  H     0.73500   0.02533   0.87984   0.00000  Uiso   1.00
H1228  H     0.92427   0.30729   0.79831   0.00000  Uiso   1.00
H1229  H     0.93182   0.04328   0.76684   0.00000  Uiso   1.00
H1230  H     0.70777   0.31810   0.79208   0.00000  Uiso   1.00
H1231  H     0.78242   0.07310   0.68612   0.00000  Uiso   1.00
H1232  H     0.88186   0.26297   0.98243   0.00000  Uiso   1.00
H1233  H     0.87655   0.06121   0.98556   0.00000  Uiso   1.00
H1234  H     0.79425   0.27807   0.67769   0.00000  Uiso   1.00
N1235  N     0.83333   0.28402   0.83333   0.00000  Uiso   1.00
N1236  N     0.83333   0.04931   0.83333   0.00000  Uiso   1.00
O1237  O     0.77321   0.20625   0.83333   0.00000  Uiso   1.00
O1238  O     0.71807   0.04690   0.85653   0.00000  Uiso   1.00
O1239  O     0.93595   0.24098   0.74836   0.00000  Uiso   1.00
O1240  O     0.94627   0.28654   0.81548   0.00000  Uiso   1.00
O1241  O     0.96924   0.04530   0.84666   0.00000  Uiso   1.00
O1242  O     0.94187   0.07533   0.77380   0.00000  Uiso   1.00
O1243  O     0.72218   0.26954   0.86375   0.00000  Uiso   1.00
O1244  O     0.69464   0.28722   0.78674   0.00000  Uiso   1.00
O1245  O     0.75289   0.06461   0.76427   0.00000  Uiso   1.00
O1246  O     0.80276   0.05632   0.71024   0.00000  Uiso   1.00
O1247  O     0.91201   0.26666   0.90429   0.00000  Uiso   1.00
O1248  O     0.89345   0.12709   0.83334   0.00000  Uiso   1.00
O1249  O     0.86235   0.28002   0.95755   0.00000  Uiso   1.00
O1250  O     0.90674   0.06688   0.90757   0.00000  Uiso   1.00
O1251  O     0.85920   0.04454   0.95942   0.00000  Uiso   1.00
O1252  O     0.76661   0.26090   0.75484   0.00000  Uiso   1.00
O1253  O     0.80972   0.29525   0.70508   0.00000  Uiso   1.00
O1254  O     0.89345   0.20625   0.83334   0.00000  Uiso   1.00
O1255  O     0.77321   0.12709   0.83333   0.00000  Uiso   1.00
O1256  O     0.83333   0.20625   0.76280   0.00000  Uiso   1.00
O1257  O     0.83333   0.12708   0.90387   0.00000  Uiso   1.00
O1258  O     0.83333   0.20625   0.90387   0.00000  Uiso   1.00
O1259  O     0.83333   0.12708   0.76280   0.00000  Uiso   1.00
O1260  O     0.72461   0.09798   0.91924   0.00000  Uiso   1.00
C1261  C     0.08751   0.50087   0.83626   0.00000  Uiso   1.00
C1262  C     0.01859   0.54332   0.82526   0.00000  Uiso   1.00
C1263  C     0.29026   0.49832   0.82313   0.00000  Uiso   1.00
C1264  C     0.04233   0.50271   0.83903   0.00000  Uiso   1.00
C1265  C     0.14611   0.35901   0.79608   0.00000  Uiso   1.00
C1266  C     0.18714   0.64108   0.87067   0.00000  Uiso   1.00
C1267  C     0.18702   0.35707   0.87075   0.00000  Uiso   1.00
C1268  C     0.14704   0.64302   0.79533   0.00000  Uiso   1.00
C1269  C     0.04439   0.42344   0.87722   0.00000  Uiso   1.00
C1270  C     0.28567   0.57906   0.78971   0.00000  Uiso   1.00
C1271  C     0.29718   0.41229   0.81950   0.00000  Uiso   1.00
C1272  C     0.24553   0.49934   0.82899   0.00000  Uiso   1.00
C1273  C     0.03598   0.59016   0.82665   0.00000  Uiso   1.00
C1274  C     0.12099   0.38428   0.75685   0.00000  Uiso   1.00
C1275  C     0.21116   0.61600   0.91092   0.00000  Uiso   1.00
C1276  C     0.20836   0.38018   0.91291   0.00000  Uiso   1.00
C1277  C     0.12819   0.62025   0.75125   0.00000  Uiso   1.00
C1278  C     0.16655   0.50009   0.74035   0.00000  Uiso   1.00
C1279  C     0.16682   0.49991   0.92632   0.00000  Uiso   1.00
C1280  C     0.16665   0.50013   0.68856   0.00000  Uiso   1.00
C1281  C     0.16674   0.49989   0.97811   0.00000  Uiso   1.00
C1282  C     0.02246   0.46107   0.84783   0.00000  Uiso   1.00
C1283  C     0.30968   0.53992   0.81387   0.00000  Uiso   1.00
C1284  C     0.31403   0.45762   0.83355   0.00000  Uiso   1.00
Cu1285 Cu    0.16667   0.54689   0.83333   0.00000  Uiso   1.00
Cu1286 Cu    0.16667   0.45311   0.83333   0.00000  Uiso   1.00
H1287  H     0.06834   0.35866   0.87984   0.00000  Uiso   1.00
H1288  H     0.25760   0.64062   0.79831   0.00000  Uiso   1.00
H1289  H     0.26515   0.37662   0.76684   0.00000  Uiso   1.00
H1290  H     0.04110   0.65144   0.79208   0.00000  Uiso   1.00
H1291  H     0.11576   0.40643   0.68612   0.00000  Uiso   1.00
H1292  H     0.21519   0.59630   0.98243   0.00000  Uiso   1.00
H1293  H     0.20988   0.39454   0.98556   0.00000  Uiso   1.00
H1294  H     0.12758   0.61140   0.67769   0.00000  Uiso   1.00
N1295  N     0.16667   0.61736   0.83333   0.00000  Uiso   1.00
N1296  N     0.16667   0.38264   0.83333   0.00000  Uiso   1.00
O1297  O     0.10655   0.53958   0.83333   0.00000  Uiso   1.00
O1298  O     0.05141   0.38024   0.85653   0.00000  Uiso   1.00
O1299  O     0.26928   0.57431   0.74836   0.00000  Uiso   1.00
O1300  O     0.27960   0.61988   0.81548   0.00000  Uiso   1.00
O1301  O     0.30258   0.37863   0.84666   0.00000  Uiso   1.00
O1302  O     0.27521   0.40867   0.77380   0.00000  Uiso   1.00
O1303  O     0.05552   0.60288   0.86375   0.00000  Uiso   1.00
O1304  O     0.02797   0.62055   0.78674   0.00000  Uiso   1.00
O1305  O     0.08622   0.39794   0.76427   0.00000  Uiso   1.00
O1306  O     0.13610   0.38965   0.71024   0.00000  Uiso   1.00
O1307  O     0.24535   0.60000   0.90429   0.00000  Uiso   1.00
O1308  O     0.22679   0.46042   0.83334   0.00000  Uiso   1.00
O1309  O     0.19568   0.61335   0.95755   0.00000  Uiso   1.00
O1310  O     0.24008   0.40021   0.90757   0.00000  Uiso   1.00
O1311  O     0.19253   0.37787   0.95942   0.00000  Uiso   1.00
O1312  O     0.09995   0.59423   0.75484   0.00000  Uiso   1.00
O1313  O     0.14306   0.62858   0.70508   0.00000  Uiso   1.00
O1314  O     0.22679   0.53958   0.83334   0.00000  Uiso   1.00
O1315  O     0.10655   0.46042   0.83333   0.00000  Uiso   1.00
O1316  O     0.16667   0.53959   0.76280   0.00000  Uiso   1.00
O1317  O     0.16667   0.46041   0.90387   0.00000  Uiso   1.00
O1318  O     0.16667   0.53959   0.90387   0.00000  Uiso   1.00
O1319  O     0.16667   0.46041   0.76280   0.00000  Uiso   1.00
O1320  O     0.05794   0.43131   0.91924   0.00000  Uiso   1.00
C1321  C     0.42084   0.50087   0.83626   0.00000  Uiso   1.00
C1322  C     0.35192   0.54332   0.82526   0.00000  Uiso   1.00
C1323  C     0.62359   0.49832   0.82313   0.00000  Uiso   1.00
C1324  C     0.37567   0.50271   0.83903   0.00000  Uiso   1.00
C1325  C     0.47945   0.35901   0.79608   0.00000  Uiso   1.00
C1326  C     0.52047   0.64108   0.87067   0.00000  Uiso   1.00
C1327  C     0.52035   0.35707   0.87075   0.00000  Uiso   1.00
C1328  C     0.48037   0.64302   0.79533   0.00000  Uiso   1.00
C1329  C     0.37772   0.42344   0.87722   0.00000  Uiso   1.00
C1330  C     0.61901   0.57906   0.78971   0.00000  Uiso   1.00
C1331  C     0.63051   0.41229   0.81950   0.00000  Uiso   1.00
C1332  C     0.57886   0.49934   0.82899   0.00000  Uiso   1.00
C1333  C     0.36931   0.59016   0.82665   0.00000  Uiso   1.00
C1334  C     0.45432   0.38428   0.75685   0.00000  Uiso   1.00
C1335  C     0.54449   0.61600   0.91092   0.00000  Uiso   1.00
C1336  C     0.54169   0.38018   0.91291   0.00000  Uiso   1.00
C1337  C     0.46152   0.62025   0.75125   0.00000  Uiso   1.00
C1338  C     0.49988   0.50009   0.74035   0.00000  Uiso   1.00
C1339  C     0.50015   0.49991   0.92632   0.00000  Uiso   1.00
C1340  C     0.49999   0.50013   0.68856   0.00000  Uiso   1.00
C1341  C     0.50007   0.49989   0.97811   0.00000  Uiso   1.00
C1342  C     0.35580   0.46107   0.84783   0.00000  Uiso   1.00
C1343  C     0.64301   0.53992   0.81387   0.00000  Uiso   1.00
C1344  C     0.64736   0.45762   0.83355   0.00000  Uiso   1.00
Cu1345 Cu    0.50000   0.54689   0.83333   0.00000  Uiso   1.00
Cu1346 Cu    0.50000   0.45311   0.83333   0.00000  Uiso   1.00
H1347  H     0.40167   0.35866   0.87984   0.00000  Uiso   1.00
H1348  H     0.59093   0.64062   0.79831   0.00000  Uiso   1.00
H1349  H     0.59848   0.37662   0.76684   0.00000  Uiso   1.00
H1350  H     0.37444   0.65144   0.79208   0.00000  Uiso   1.00
H1351  H     0.44909   0.40643   0.68612   0.00000  Uiso   1.00
H1352  H     0.54852   0.59630   0.98243   0.00000  Uiso   1.00
H1353  H     0.54321   0.39454   0.98556   0.00000  Uiso   1.00
H1354  H     0.46092   0.61140   0.67769   0.00000  Uiso   1.00
N1355  N     0.50000   0.61736   0.83333   0.00000  Uiso   1.00
N1356  N     0.50000   0.38264   0.83333   0.00000  Uiso   1.00
O1357  O     0.43988   0.53958   0.83333   0.00000  Uiso   1.00
O1358  O     0.38474   0.38024   0.85653   0.00000  Uiso   1.00
O1359  O     0.60261   0.57431   0.74836   0.00000  Uiso   1.00
O1360  O     0.61294   0.61988   0.81548   0.00000  Uiso   1.00
O1361  O     0.63591   0.37863   0.84666   0.00000  Uiso   1.00
O1362  O     0.60854   0.40867   0.77380   0.00000  Uiso   1.00
O1363  O     0.38885   0.60288   0.86375   0.00000  Uiso   1.00
O1364  O     0.36131   0.62055   0.78674   0.00000  Uiso   1.00
O1365  O     0.41955   0.39794   0.76427   0.00000  Uiso   1.00
O1366  O     0.46943   0.38965   0.71024   0.00000  Uiso   1.00
O1367  O     0.57868   0.60000   0.90429   0.00000  Uiso   1.00
O1368  O     0.56012   0.46042   0.83334   0.00000  Uiso   1.00
O1369  O     0.52901   0.61335   0.95755   0.00000  Uiso   1.00
O1370  O     0.57341   0.40021   0.90757   0.00000  Uiso   1.00
O1371  O     0.52587   0.37787   0.95942   0.00000  Uiso   1.00
O1372  O     0.43328   0.59423   0.75484   0.00000  Uiso   1.00
O1373  O     0.47639   0.62858   0.70508   0.00000  Uiso   1.00
O1374  O     0.56012   0.53958   0.83334   0.00000  Uiso   1.00
O1375  O     0.43988   0.46042   0.83333   0.00000  Uiso   1.00
O1376  O     0.50000   0.53959   0.76280   0.00000  Uiso   1.00
O1377  O     0.50000   0.46041   0.90387   0.00000  Uiso   1.00
O1378  O     0.50000   0.53959   0.90387   0.00000  Uiso   1.00
O1379  O     0.50000   0.46041   0.76280   0.00000  Uiso   1.00
O1380  O     0.39128   0.43131   0.91924   0.00000  Uiso   1.00
C1381  C     0.75417   0.50087   0.83626   0.00000  Uiso   1.00
C1382  C     0.68525   0.54332   0.82526   0.00000  Uiso   1.00
C1383  C     0.95692   0.49832   0.82313   0.00000  Uiso   1.00
C1384  C     0.70900   0.50271   0.83903   0.00000  Uiso   1.00
C1385  C     0.81278   0.35901   0.79608   0.00000  Uiso   1.00
C1386  C     0.85380   0.64108   0.87067   0.00000  Uiso   1.00
C1387  C     0.85368   0.35707   0.87075   0.00000  Uiso   1.00
C1388  C     0.81371   0.64302   0.79533   0.00000  Uiso   1.00
C1389  C     0.71105   0.42344   0.87722   0.00000  Uiso   1.00
C1390  C     0.95234   0.57906   0.78971   0.00000  Uiso   1.00
C1391  C     0.96384   0.41229   0.81950   0.00000  Uiso   1.00
C1392  C     0.91219   0.49934   0.82899   0.00000  Uiso   1.00
C1393  C     0.70264   0.59016   0.82665   0.00000  Uiso   1.00
C1394  C     0.78766   0.38428   0.75685   0.00000  Uiso   1.00
C1395  C     0.87783   0.61600   0.91092   0.00000  Uiso   1.00
C1396  C     0.87503   0.38018   0.91291   0.00000  Uiso   1.00
C1397  C     0.79485   0.62025   0.75125   0.00000  Uiso   1.00
C1398  C     0.83321   0.50009   0.74035   0.00000  Uiso   1.00
C1399  C     0.83349   0.49991   0.92632   0.00000  Uiso   1.00
C1400  C     0.83332   0.50013   0.68856   0.00000  Uiso   1.00
C1401  C     0.83340   0.49989   0.97811   0.00000  Uiso   1.00
C1402  C     0.68913   0.46107   0.84783   0.00000  Uiso   1.00
C1403  C     0.97634   0.53992   0.81387   0.00000  Uiso   1.00
C1404  C     0.98070   0.45762   0.83355   0.00000  Uiso   1.00
Cu1405 Cu    0.83333   0.54689   0.83333   0.00000  Uiso   1.00
Cu1406 Cu    0.83333   0.45311   0.83333   0.00000  Uiso   1.00
H1407  H     0.73500   0.35866   0.87984   0.00000  Uiso   1.00
H1408  H     0.92427   0.64062   0.79831   0.00000  Uiso   1.00
H1409  H     0.93182   0.37662   0.76684   0.00000  Uiso   1.00
H1410  H     0.70777   0.65144   0.79208   0.00000  Uiso   1.00
H1411  H     0.78242   0.40643   0.68612   0.00000  Uiso   1.00
H1412  H     0.88186   0.59630   0.98243   0.00000  Uiso   1.00
H1413  H     0.87655   0.39454   0.98556   0.00000  Uiso   1.00
H1414  H     0.79425   0.61140   0.67769   0.00000  Uiso   1.00
N1415  N     0.83333   0.61736   0.83333   0.00000  Uiso   1.00
N1416  N     0.83333   0.38264   0.83333   0.00000  Uiso   1.00
O1417  O     0.77321   0.53958   0.83333   0.00000  Uiso   1.00
O1418  O     0.71807   0.38024   0.85653   0.00000  Uiso   1.00
O1419  O     0.93595   0.57431   0.74836   0.00000  Uiso   1.00
O1420  O     0.94627   0.61988   0.81548   0.00000  Uiso   1.00
O1421  O     0.96924   0.37863   0.84666   0.00000  Uiso   1.00
O1422  O     0.94187   0.40867   0.77380   0.00000  Uiso   1.00
O1423  O     0.72218   0.60288   0.86375   0.00000  Uiso   1.00
O1424  O     0.69464   0.62055   0.78674   0.00000  Uiso   1.00
O1425  O     0.75289   0.39794   0.76427   0.00000  Uiso   1.00
O1426  O     0.80276   0.38965   0.71024   0.00000  Uiso   1.00
O1427  O     0.91201   0.60000   0.90429   0.00000  Uiso   1.00
O1428  O     0.89345   0.46042   0.83334   0.00000  Uiso   1.00
O1429  O     0.86235   0.61335   0.95755   0.00000  Uiso   1.00
O1430  O     0.90674   0.40021   0.90757   0.00000  Uiso   1.00
O1431  O     0.85920   0.37787   0.95942   0.00000  Uiso   1.00
O1432  O     0.76661   0.59423   0.75484   0.00000  Uiso   1.00
O1433  O     0.80972   0.62858   0.70508   0.00000  Uiso   1.00
O1434  O     0.89345   0.53958   0.83334   0.00000  Uiso   1.00
O1435  O     0.77321   0.46042   0.83333   0.00000  Uiso   1.00
O1436  O     0.83333   0.53959   0.76280   0.00000  Uiso   1.00
O1437  O     0.83333   0.46041   0.90387   0.00000  Uiso   1.00
O1438  O     0.83333   0.53959   0.90387   0.00000  Uiso   1.00
O1439  O     0.83333   0.46041   0.76280   0.00000  Uiso   1.00
O1440  O     0.72461   0.43131   0.91924   0.00000  Uiso   1.00
C1441  C     0.08751   0.83421   0.83626   0.00000  Uiso   1.00
C1442  C     0.01859   0.87666   0.82526   0.00000  Uiso   1.00
C1443  C     0.29026   0.83165   0.82313   0.00000  Uiso   1.00
C1444  C     0.04233   0.83604   0.83903   0.00000  Uiso   1.00
C1445  C     0.14611   0.69235   0.79608   0.00000  Uiso   1.00
C1446  C     0.18714   0.97441   0.87067   0.00000  Uiso   1.00
C1447  C     0.18702   0.69040   0.87075   0.00000  Uiso   1.00
C1448  C     0.14704   0.97635   0.79533   0.00000  Uiso   1.00
C1449  C     0.04439   0.75678   0.87722   0.00000  Uiso   1.00
C1450  C     0.28567   0.91239   0.78971   0.00000  Uiso   1.00
C1451  C     0.29718   0.74562   0.81950   0.00000  Uiso   1.00
C1452  C     0.24553   0.83267   0.82899   0.00000  Uiso   1.00
C1453  C     0.03598   0.92349   0.82665   0.00000  Uiso   1.00
C1454  C     0.12099   0.71761   0.75685   0.00000  Uiso   1.00
C1455  C     0.21116   0.94933   0.91092   0.00000  Uiso   1.00
C1456  C     0.20836   0.71352   0.91291   0.00000  Uiso   1.00
C1457  C     0.12819   0.95359   0.75125   0.00000  Uiso   1.00
C1458  C     0.16655   0.83342   0.74035   0.00000  Uiso   1.00
C1459  C     0.16682   0.83324   0.92632   0.00000  Uiso   1.00
C1460  C     0.16665   0.83347   0.68856   0.00000  Uiso   1.00
C1461  C     0.16674   0.83322   0.97811   0.00000  Uiso   1.00
C1462  C     0.02246   0.79440   0.84783   0.00000  Uiso   1.00
C1463  C     0.30968   0.87325   0.81387   0.00000  Uiso   1.00
C1464  C     0.31403   0.79096   0.83355   0.00000  Uiso   1.00
Cu1465 Cu    0.16667   0.88022   0.83333   0.00000  Uiso   1.00
Cu1466 Cu    0.16667   0.78645   0.83333   0.00000  Uiso   1.00
H1467  H     0.06834   0.69200   0.87984   0.00000  Uiso   1.00
H1468  H     0.25760   0.97395   0.79831   0.00000  Uiso   1.00
H1469  H     0.26515   0.70995   0.76684   0.00000  Uiso   1.00
H1470  H     0.04110   0.98477   0.79208   0.00000  Uiso   1.00
H1471  H     0.11576   0.73977   0.68612   0.00000  Uiso   1.00
H1472  H     0.21519   0.92964   0.98243   0.00000  Uiso   1.00
H1473  H     0.20988   0.72787   0.98556   0.00000  Uiso   1.00
H1474  H     0.12758   0.94473   0.67769   0.00000  Uiso   1.00
N1475  N     0.16667   0.95069   0.83333   0.00000  Uiso   1.00
N1476  N     0.16667   0.71598   0.83333   0.00000  Uiso   1.00
O1477  O     0.10655   0.87291   0.83333   0.00000  Uiso   1.00
O1478  O     0.05141   0.71357   0.85653   0.00000  Uiso   1.00
O1479  O     0.26928   0.90765   0.74836   0.00000  Uiso   1.00
O1480  O     0.27960   0.95321   0.81548   0.00000  Uiso   1.00
O1481  O     0.30258   0.71196   0.84666   0.00000  Uiso   1.00
O1482  O     0.27521   0.74200   0.77380   0.00000  Uiso   1.00
O1483  O     0.05552   0.93621   0.86375   0.00000  Uiso   1.00
O1484  O     0.02797   0.95389   0.78674   0.00000  Uiso   1.00
O1485  O     0.08622   0.73127   0.76427   0.00000  Uiso   1.00
O1486  O     0.13610   0.72299   0.71024   0.00000  Uiso   1.00
O1487  O     0.24535   0.93333   0.90429   0.00000  Uiso   1.00
O1488  O     0.22679   0.79375   0.83334   0.00000  Uiso   1.00
O1489  O     0.19568   0.94668   0.95755   0.00000  Uiso   1.00
O1490  O     0.24008   0.73354   0.90757   0.00000  Uiso   1.00
O1491  O     0.19253   0.71120   0.95942   0.00000  Uiso   1.00
O1492  O     0.09995   0.92757   0.75484   0.00000  Uiso   1.00
O1493  O     0.14306   0.96191   0.70508   0.00000  Uiso   1.00
O1494  O     0.22679   0.87291   0.83334   0.00000  Uiso   1.00
O1495  O     0.10655   0.79375   0.83333   0.00000  Uiso   1.00
O1496  O     0.16667   0.87292   0.76280   0.00000  Uiso   1.00
O1497  O     0.16667   0.79375   0.90387   0.00000  Uiso   1.00
O1498  O     0.16667   0.87292   0.90387   0.00000  Uiso   1.00
O1499  O     0.16667   0.79375   0.76280   0.00000  Uiso   1.00
O1500  O     0.05794   0.76464   0.91924   0.00000  Uiso   1.00
C1501  C     0.42084   0.83421   0.83626   0.00000  Uiso   1.00
C1502  C     0.35192   0.87666   0.82526   0.00000  Uiso   1.00
C1503  C     0.62359   0.83165   0.82313   0.00000  Uiso   1.00
C1504  C     0.37567   0.83604   0.83903   0.00000  Uiso   1.00
C1505  C     0.47945   0.69235   0.79608   0.00000  Uiso   1.00
C1506  C     0.52047   0.97441   0.87067   0.00000  Uiso   1.00
C1507  C     0.52035   0.69040   0.87075   0.00000  Uiso   1.00
C1508  C     0.48037   0.97635   0.79533   0.00000  Uiso   1.00
C1509  C     0.37772   0.75678   0.87722   0.00000  Uiso   1.00
C1510  C     0.61901   0.91239   0.78971   0.00000  Uiso   1.00
C1511  C     0.63051   0.74562   0.81950   0.00000  Uiso   1.00
C1512  C     0.57886   0.83267   0.82899   0.00000  Uiso   1.00
C1513  C     0.36931   0.92349   0.82665   0.00000  Uiso   1.00
C1514  C     0.45432   0.71761   0.75685   0.00000  Uiso   1.00
C1515  C     0.54449   0.94933   0.91092   0.00000  Uiso   1.00
C1516  C     0.54169   0.71352   0.91291   0.00000  Uiso   1.00
C1517  C     0.46152   0.95359   0.75125   0.00000  Uiso   1.00
C1518  C     0.49988   0.83342   0.74035   0.00000  Uiso   1.00
C1519  C     0.50015   0.83324   0.92632   0.00000  Uiso   1.00
C1520  C     0.49999   0.83347   0.68856   0.00000  Uiso   1.00
C1521  C     0.50007   0.83322   0.97811   0.00000  Uiso   1.00
C1522  C     0.35580   0.79440   0.84783   0.00000  Uiso   1.00
C1523  C     0.64301   0.87325   0.81387   0.00000  Uiso   1.00
C1524  C     0.64736   0.79096   0.83355   0.00000  Uiso   1.00
Cu1525 Cu    0.50000   0.88022   0.83333   0.00000  Uiso   1.00
Cu1526 Cu    0.50000   0.78645   0.83333   0.00000  Uiso   1.00
H1527  H     0.40167   0.69200   0.87984   0.00000  Uiso   1.00
H1528  H     0.59093   0.97395   0.79831   0.00000  Uiso   1.00
H1529  H     0.59848   0.70995   0.76684   0.00000  Uiso   1.00
H1530  H     0.37444   0.98477   0.79208   0.00000  Uiso   1.00
H1531  H     0.44909   0.73977   0.68612   0.00000  Uiso   1.00
H1532  H     0.54852   0.92964   0.98243   0.00000  Uiso   1.00
H1533  H     0.54321   0.72787   0.98556   0.00000  Uiso   1.00
H1534  H     0.46092   0.94473   0.67769   0.00000  Uiso   1.00
N1535  N     0.50000   0.95069   0.83333   0.00000  Uiso   1.00
N1536  N     0.50000   0.71598   0.83333   0.00000  Uiso   1.00
O1537  O     0.43988   0.87291   0.83333   0.00000  Uiso   1.00
O1538  O     0.38474   0.71357   0.85653   0.00000  Uiso   1.00
O1539  O     0.60261   0.90765   0.74836   0.00000  Uiso   1.00
O1540  O     0.61294   0.95321   0.81548   0.00000  Uiso   1.00
O1541  O     0.63591   0.71196   0.84666   0.00000  Uiso   1.00
O1542  O     0.60854   0.74200   0.77380   0.00000  Uiso   1.00
O1543  O     0.38885   0.93621   0.86375   0.00000  Uiso   1.00
O1544  O     0.36131   0.95389   0.78674   0.00000  Uiso   1.00
O1545  O     0.41955   0.73127   0.76427   0.00000  Uiso   1.00
O1546  O     0.46943   0.72299   0.71024   0.00000  Uiso   1.00
O1547  O     0.57868   0.93333   0.90429   0.00000  Uiso   1.00
O1548  O     0.56012   0.79375   0.83334   0.00000  Uiso   1.00
O1549  O     0.52901   0.94668   0.95755   0.00000  Uiso   1.00
O1550  O     0.57341   0.73354   0.90757   0.00000  Uiso   1.00
O1551  O     0.52587   0.71120   0.95942   0.00000  Uiso   1.00
O1552  O     0.43328   0.92757   0.75484   0.00000  Uiso   1.00
O1553  O     0.47639   0.96191   0.70508   0.00000  Uiso   1.00
O1554  O     0.56012   0.87291   0.83334   0.00000  Uiso   1.00
O1555  O     0.43988   0.79375   0.83333   0.00000  Uiso   1.00
O1556  O     0.50000   0.87292   0.76280   0.00000  Uiso   1.00
O1557  O     0.50000   0.79375   0.90387   0.00000  Uiso   1.00
O1558  O     0.50000   0.87292   0.90387   0.00000  Uiso   1.00
O1559  O     0.50000   0.79375   0.76280   0.00000  Uiso   1.00
O1560  O     0.39128   0.76464   0.91924   0.00000  Uiso   1.00
C1561  C     0.75417   0.83421   0.83626   0.00000  Uiso   1.00
C1562  C     0.68525   0.87666   0.82526   0.00000  Uiso   1.00
C1563  C     0.95692   0.83165   0.82313   0.00000  Uiso   1.00
C1564  C     0.70900   0.83604   0.83903   0.00000  Uiso   1.00
C1565  C     0.81278   0.69235   0.79608   0.00000  Uiso   1.00
C1566  C     0.85380   0.97441   0.87067   0.00000  Uiso   1.00
C1567  C     0.85368   0.69040   0.87075   0.00000  Uiso   1.00
C1568  C     0.81371   0.97635   0.79533   0.00000  Uiso   1.00
C1569  C     0.71105   0.75678   0.87722   0.00000  Uiso   1.00
C1570  C     0.95234   0.91239   0.78971   0.00000  Uiso   1.00
C1571  C     0.96384   0.74562   0.81950   0.00000  Uiso   1.00
C1572  C     0.91219   0.83267   0.82899   0.00000  Uiso   1.00
C1573  C     0.70264   0.92349   0.82665   0.00000  Uiso   1.00
C1574  C     0.78766   0.71761   0.75685   0.00000  Uiso   1.00
C1575  C     0.87783   0.94933   0.91092   0.00000  Uiso   1.00
C1576  C     0.87503   0.71352   0.91291   0.00000  Uiso   1.00
C1577  C     0.79485   0.95359   0.75125   0.00000  Uiso   1.00
C1578  C     0.83321   0.83342   0.74035   0.00000  Uiso   1.00
C1579  C     0.83349   0.83324   0.92632   0.00000  Uiso   1.00
C1580  C     0.83332   0.83347   0.68856   0.00000  Uiso   1.00
C1581  C     0.83340   0.83322   0.97811   0.00000  Uiso   1.00
C1582  C     0.68913   0.79440   0.84783   0.00000  Uiso   1.00
C1583  C     0.97634   0.87325   0.81387   0.00000  Uiso   1.00
C1584  C     0.98070   0.79096   0.83355   0.00000  Uiso   1.00
Cu1585 Cu    0.83333   0.88022   0.83333   0.00000  Uiso   1.00
Cu1586 Cu    0.83333   0.78645   0.83333   0.00000  Uiso   1.00
H1587  H     0.73500   0.69200   0.87984   0.00000  Uiso   1.00
H1588  H     0.92427   0.97395   0.79831   0.00000  Uiso   1.00
H1589  H     0.93182   0.70995   0.76684   0.00000  Uiso   1.00
H1590  H     0.70777   0.98477   0.79208   0.00000  Uiso   1.00
H1591  H     0.78242   0.73977   0.68612   0.00000  Uiso   1.00
H1592  H     0.88186   0.92964   0.98243   0.00000  Uiso   1.00
H1593  H     0.87655   0.72787   0.98556   0.00000  Uiso   1.00
H1594  H     0.79425   0.94473   0.67769   0.00000  Uiso   1.00
N1595  N     0.83333   0.95069   0.83333   0.00000  Uiso   1.00
N1596  N     0.83333   0.71598   0.83333   0.00000  Uiso   1.00
O1597  O     0.77321   0.87291   0.83333   0.00000  Uiso   1.00
O1598  O     0.71807   0.71357   0.85653   0.00000  Uiso   1.00
O1599  O     0.93595   0.90765   0.74836   0.00000  Uiso   1.00
O1600  O     0.94627   0.95321   0.81548   0.00000  Uiso   1.00
O1601  O     0.96924   0.71196   0.84666   0.00000  Uiso   1.00
O1602  O     0.94187   0.74200   0.77380   0.00000  Uiso   1.00
O1603  O     0.72218   0.93621   0.86375   0.00000  Uiso   1.00
O1604  O     0.69464   0.95389   0.78674   0.00000  Uiso   1.00
O1605  O     0.75289   0.73127   0.76427   0.00000  Uiso   1.00
O1606  O     0.80276   0.72299   0.71024   0.00000  Uiso   1.00
O1607  O     0.91201   0.93333   0.90429   0.00000  Uiso   1.00
O1608  O     0.89345   0.79375   0.83334   0.00000  Uiso   1.00
O1609  O     0.86235   0.94668   0.95755   0.00000  Uiso   1.00
O1610  O     0.90674   0.73354   0.90757   0.00000  Uiso   1.00
O1611  O     0.85920   0.71120   0.95942   0.00000  Uiso   1.00
O1612  O     0.76661   0.92757   0.75484   0.00000  Uiso   1.00
O1613  O     0.80972   0.96191   0.70508   0.00000  Uiso   1.00
O1614  O     0.89345   0.87291   0.83334   0.00000  Uiso   1.00
O1615  O     0.77321   0.79375   0.83333   0.00000  Uiso   1.00
O1616  O     0.83333   0.87292   0.76280   0.00000  Uiso   1.00
O1617  O     0.83333   0.79375   0.90387   0.00000  Uiso   1.00
O1618  O     0.83333   0.87292   0.90387   0.00000  Uiso   1.00
O1619  O     0.83333   0.79375   0.76280   0.00000  Uiso   1.00
O1620  O     0.72461   0.76464   0.91924   0.00000  Uiso   1.00
loop_
_geom_bond_atom_site_label_1
_geom_bond_atom_site_label_2
_geom_bond_distance
_geom_bond_site_symmetry_2
_ccdc_geom_bond_type
C1     C4      1.482   .     S
C1     O55     1.316   .     A
C1     O37     1.304   .     A
C2     C4      1.425   .     A
C2     C13     1.488   .     S
C2     C143    1.401   1_455 S
C3     C12     1.480   .     S
C3     C23     1.409   .     A
C3     C24     1.409   .     A
C4     C22     1.415   .     A
C5     C14     1.479   .     S
C5     N36     1.376   .     A
C5     C368    1.430   1_545 S
C6     C15     1.478   .     S
C6     N35     1.378   .     A
C6     C187    1.430   .     S
C7     N36     1.378   .     A
C7     C16     1.477   .     S
C7     C366    1.430   1_545 S
C8     C17     1.479   .     S
C8     N35     1.381   .     A
C8     C185    1.430   .     S
C9     O60     1.223   .     D
C9     C22     1.486   .     S
C9     O38     1.395   .     S
C10    C23     1.484   .     S
C10    O40     1.394   .     S
C10    O39     1.223   .     D
C11    O41     1.221   .     D
C11    C24     1.483   .     S
C11    O42     1.399   .     S
C12    O48     1.309   .     A
C12    O54     1.310   .     A
C13    O43     1.223   .     D
C13    O44     1.399   .     S
C14    O46     1.398   .     S
C14    O45     1.221   .     D
C15    O49     1.397   .     S
C15    O47     1.221   .     D
C16    O51     1.398   .     S
C16    O50     1.219   .     D
C17    O52     1.218   .     D
C17    O53     1.397   .     S
C18    O59     1.299   .     A
C18    O56     1.301   .     A
C18    C20     1.407   .     S
C19    O57     1.301   .     A
C19    C21     1.407   .     S
C19    O58     1.299   .     A
C20    C1101   1.189   1_554 S
C21    C560    1.189   .     S
C22    C144    1.401   1_455 S
C23    C62     1.401   .     S
C24    C82     1.401   .     S
Cu25   O56     1.929   .     S
Cu25   Cu26    2.719   .     S
Cu25   N35     2.043   .     S
Cu25   O58     1.927   .     S
Cu25   O54     1.969   .     S
Cu25   O37     1.982   .     S
Cu26   O48     1.982   .     S
Cu26   O55     1.969   .     S
Cu26   N36     2.043   .     S
Cu26   O57     1.929   .     S
Cu26   O59     1.927   .     S
H27    O38     1.014   .     S
H28    O40     1.011   .     S
H29    O42     1.010   .     S
H30    O44     1.012   .     S
H31    O46     1.014   .     S
H32    O49     1.014   .     S
H33    O51     1.014   .     S
H34    O53     1.014   .     S
C61    C64     1.482   .     S
C61    O115    1.316   .     A
C61    O97     1.304   .     A
C62    C64     1.425   .     A
C62    C73     1.488   .     S
C63    C72     1.480   .     S
C63    C83     1.409   .     A
C63    C84     1.409   .     A
C64    C82     1.415   .     A
C65    C74     1.479   .     S
C65    N96     1.376   .     A
C65    C428    1.430   1_545 S
C66    C75     1.478   .     S
C66    N95     1.378   .     A
C66    C247    1.430   .     S
C67    N96     1.378   .     A
C67    C76     1.477   .     S
C67    C426    1.430   1_545 S
C68    C77     1.479   .     S
C68    N95     1.381   .     A
C68    C245    1.430   .     S
C69    O120    1.223   .     D
C69    C82     1.486   .     S
C69    O98     1.395   .     S
C70    C83     1.484   .     S
C70    O100    1.394   .     S
C70    O99     1.223   .     D
C71    O101    1.221   .     D
C71    C84     1.483   .     S
C71    O102    1.399   .     S
C72    O108    1.309   .     A
C72    O114    1.310   .     A
C73    O103    1.223   .     D
C73    O104    1.399   .     S
C74    O106    1.398   .     S
C74    O105    1.221   .     D
C75    O109    1.397   .     S
C75    O107    1.221   .     D
C76    O111    1.398   .     S
C76    O110    1.219   .     D
C77    O112    1.218   .     D
C77    O113    1.397   .     S
C78    O119    1.299   .     A
C78    O116    1.301   .     A
C78    C80     1.407   .     S
C79    O117    1.301   .     A
C79    C81     1.407   .     S
C79    O118    1.299   .     A
C80    C1161   1.189   1_554 S
C81    C620    1.189   .     S
C83    C122    1.401   .     S
C84    C142    1.401   .     S
Cu85   O116    1.929   .     S
Cu85   Cu86    2.719   .     S
Cu85   N95     2.043   .     S
Cu85   O118    1.927   .     S
Cu85   O114    1.969   .     S
Cu85   O97     1.982   .     S
Cu86   O108    1.982   .     S
Cu86   O115    1.969   .     S
Cu86   N96     2.043   .     S
Cu86   O117    1.929   .     S
Cu86   O119    1.927   .     S
H87    O98     1.014   .     S
H88    O100    1.011   .     S
H89    O102    1.010   .     S
H90    O104    1.012   .     S
H91    O106    1.014   .     S
H92    O109    1.014   .     S
H93    O111    1.014   .     S
H94    O113    1.014   .     S
C121   C124    1.482   .     S
C121   O175    1.316   .     A
C121   O157    1.304   .     A
C122   C124    1.425   .     A
C122   C133    1.488   .     S
C123   C132    1.480   .     S
C123   C143    1.409   .     A
C123   C144    1.409   .     A
C124   C142    1.415   .     A
C125   C134    1.479   .     S
C125   N156    1.376   .     A
C125   C488    1.430   1_545 S
C126   C135    1.478   .     S
C126   N155    1.378   .     A
C126   C307    1.430   .     S
C127   N156    1.378   .     A
C127   C136    1.477   .     S
C127   C486    1.430   1_545 S
C128   C137    1.479   .     S
C128   N155    1.381   .     A
C128   C305    1.430   .     S
C129   O180    1.223   .     D
C129   C142    1.486   .     S
C129   O158    1.395   .     S
C130   C143    1.484   .     S
C130   O160    1.394   .     S
C130   O159    1.223   .     D
C131   O161    1.221   .     D
C131   C144    1.483   .     S
C131   O162    1.399   .     S
C132   O168    1.309   .     A
C132   O174    1.310   .     A
C133   O163    1.223   .     D
C133   O164    1.399   .     S
C134   O166    1.398   .     S
C134   O165    1.221   .     D
C135   O169    1.397   .     S
C135   O167    1.221   .     D
C136   O171    1.398   .     S
C136   O170    1.219   .     D
C137   O172    1.218   .     D
C137   O173    1.397   .     S
C138   O179    1.299   .     A
C138   O176    1.301   .     A
C138   C140    1.407   .     S
C139   O177    1.301   .     A
C139   C141    1.407   .     S
C139   O178    1.299   .     A
C140   C1221   1.189   1_554 S
C141   C680    1.189   .     S
C143   C2      1.401   1_655 S
C144   C22     1.401   1_655 S
Cu145  O176    1.929   .     S
Cu145  Cu146   2.719   .     S
Cu145  N155    2.043   .     S
Cu145  O178    1.927   .     S
Cu145  O174    1.969   .     S
Cu145  O157    1.982   .     S
Cu146  O168    1.982   .     S
Cu146  O175    1.969   .     S
Cu146  N156    2.043   .     S
Cu146  O177    1.929   .     S
Cu146  O179    1.927   .     S
H147   O158    1.014   .     S
H148   O160    1.011   .     S
H149   O162    1.010   .     S
H150   O164    1.012   .     S
H151   O166    1.014   .     S
H152   O169    1.014   .     S
H153   O171    1.014   .     S
H154   O173    1.014   .     S
C181   C184    1.482   .     S
C181   O235    1.316   .     A
C181   O217    1.304   .     A
C182   C184    1.425   .     A
C182   C193    1.488   .     S
C182   C323    1.401   1_455 S
C183   C192    1.480   .     S
C183   C203    1.409   .     A
C183   C204    1.409   .     A
C184   C202    1.415   .     A
C185   C194    1.479   .     S
C185   N216    1.376   .     A
C186   C195    1.478   .     S
C186   N215    1.378   .     A
C186   C367    1.430   .     S
C187   N216    1.378   .     A
C187   C196    1.477   .     S
C188   C197    1.479   .     S
C188   N215    1.381   .     A
C188   C365    1.430   .     S
C189   O240    1.223   .     D
C189   C202    1.486   .     S
C189   O218    1.395   .     S
C190   C203    1.484   .     S
C190   O220    1.394   .     S
C190   O219    1.223   .     D
C191   O221    1.221   .     D
C191   C204    1.483   .     S
C191   O222    1.399   .     S
C192   O228    1.309   .     A
C192   O234    1.310   .     A
C193   O223    1.223   .     D
C193   O224    1.399   .     S
C194   O226    1.398   .     S
C194   O225    1.221   .     D
C195   O229    1.397   .     S
C195   O227    1.221   .     D
C196   O231    1.398   .     S
C196   O230    1.219   .     D
C197   O232    1.218   .     D
C197   O233    1.397   .     S
C198   O239    1.299   .     A
C198   O236    1.301   .     A
C198   C200    1.407   .     S
C199   O237    1.301   .     A
C199   C201    1.407   .     S
C199   O238    1.299   .     A
C200   C1281   1.189   1_554 S
C201   C740    1.189   .     S
C202   C324    1.401   1_455 S
C203   C242    1.401   .     S
C204   C262    1.401   .     S
Cu205  O236    1.929   .     S
Cu205  Cu206   2.719   .     S
Cu205  N215    2.043   .     S
Cu205  O238    1.927   .     S
Cu205  O234    1.969   .     S
Cu205  O217    1.982   .     S
Cu206  O228    1.982   .     S
Cu206  O235    1.969   .     S
Cu206  N216    2.043   .     S
Cu206  O237    1.929   .     S
Cu206  O239    1.927   .     S
H207   O218    1.014   .     S
H208   O220    1.011   .     S
H209   O222    1.010   .     S
H210   O224    1.012   .     S
H211   O226    1.014   .     S
H212   O229    1.014   .     S
H213   O231    1.014   .     S
H214   O233    1.014   .     S
C241   C244    1.482   .     S
C241   O295    1.316   .     A
C241   O277    1.304   .     A
C242   C244    1.425   .     A
C242   C253    1.488   .     S
C243   C252    1.480   .     S
C243   C263    1.409   .     A
C243   C264    1.409   .     A
C244   C262    1.415   .     A
C245   C254    1.479   .     S
C245   N276    1.376   .     A
C246   C255    1.478   .     S
C246   N275    1.378   .     A
C246   C427    1.430   .     S
C247   N276    1.378   .     A
C247   C256    1.477   .     S
C248   C257    1.479   .     S
C248   N275    1.381   .     A
C248   C425    1.430   .     S
C249   O300    1.223   .     D
C249   C262    1.486   .     S
C249   O278    1.395   .     S
C250   C263    1.484   .     S
C250   O280    1.394   .     S
C250   O279    1.223   .     D
C251   O281    1.221   .     D
C251   C264    1.483   .     S
C251   O282    1.399   .     S
C252   O288    1.309   .     A
C252   O294    1.310   .     A
C253   O283    1.223   .     D
C253   O284    1.399   .     S
C254   O286    1.398   .     S
C254   O285    1.221   .     D
C255   O289    1.397   .     S
C255   O287    1.221   .     D
C256   O291    1.398   .     S
C256   O290    1.219   .     D
C257   O292    1.218   .     D
C257   O293    1.397   .     S
C258   O299    1.299   .     A
C258   O296    1.301   .     A
C258   C260    1.407   .     S
C259   O297    1.301   .     A
C259   C261    1.407   .     S
C259   O298    1.299   .     A
C260   C1341   1.189   1_554 S
C261   C800    1.189   .     S
C263   C302    1.401   .     S
C264   C322    1.401   .     S
Cu265  O296    1.929   .     S
Cu265  Cu266   2.719   .     S
Cu265  N275    2.043   .     S
Cu265  O298    1.927   .     S
Cu265  O294    1.969   .     S
Cu265  O277    1.982   .     S
Cu266  O288    1.982   .     S
Cu266  O295    1.969   .     S
Cu266  N276    2.043   .     S
Cu266  O297    1.929   .     S
Cu266  O299    1.927   .     S
H267   O278    1.014   .     S
H268   O280    1.011   .     S
H269   O282    1.010   .     S
H270   O284    1.012   .     S
H271   O286    1.014   .     S
H272   O289    1.014   .     S
H273   O291    1.014   .     S
H274   O293    1.014   .     S
C301   C304    1.482   .     S
C301   O355    1.316   .     A
C301   O337    1.304   .     A
C302   C304    1.425   .     A
C302   C313    1.488   .     S
C303   C312    1.480   .     S
C303   C323    1.409   .     A
C303   C324    1.409   .     A
C304   C322    1.415   .     A
C305   C314    1.479   .     S
C305   N336    1.376   .     A
C306   C315    1.478   .     S
C306   N335    1.378   .     A
C306   C487    1.430   .     S
C307   N336    1.378   .     A
C307   C316    1.477   .     S
C308   C317    1.479   .     S
C308   N335    1.381   .     A
C308   C485    1.430   .     S
C309   O360    1.223   .     D
C309   C322    1.486   .     S
C309   O338    1.395   .     S
C310   C323    1.484   .     S
C310   O340    1.394   .     S
C310   O339    1.223   .     D
C311   O341    1.221   .     D
C311   C324    1.483   .     S
C311   O342    1.399   .     S
C312   O348    1.309   .     A
C312   O354    1.310   .     A
C313   O343    1.223   .     D
C313   O344    1.399   .     S
C314   O346    1.398   .     S
C314   O345    1.221   .     D
C315   O349    1.397   .     S
C315   O347    1.221   .     D
C316   O351    1.398   .     S
C316   O350    1.219   .     D
C317   O352    1.218   .     D
C317   O353    1.397   .     S
C318   O359    1.299   .     A
C318   O356    1.301   .     A
C318   C320    1.407   .     S
C319   O357    1.301   .     A
C319   C321    1.407   .     S
C319   O358    1.299   .     A
C320   C1401   1.189   1_554 S
C321   C860    1.189   .     S
C323   C182    1.401   1_655 S
C324   C202    1.401   1_655 S
Cu325  O356    1.929   .     S
Cu325  Cu326   2.719   .     S
Cu325  N335    2.043   .     S
Cu325  O358    1.927   .     S
Cu325  O354    1.969   .     S
Cu325  O337    1.982   .     S
Cu326  O348    1.982   .     S
Cu326  O355    1.969   .     S
Cu326  N336    2.043   .     S
Cu326  O357    1.929   .     S
Cu326  O359    1.927   .     S
H327   O338    1.014   .     S
H328   O340    1.011   .     S
H329   O342    1.010   .     S
H330   O344    1.012   .     S
H331   O346    1.014   .     S
H332   O349    1.014   .     S
H333   O351    1.014   .     S
H334   O353    1.014   .     S
C361   C364    1.482   .     S
C361   O415    1.316   .     A
C361   O397    1.304   .     A
C362   C364    1.425   .     A
C362   C373    1.488   .     S
C362   C503    1.401   1_455 S
C363   C372    1.480   .     S
C363   C383    1.409   .     A
C363   C384    1.409   .     A
C364   C382    1.415   .     A
C365   C374    1.479   .     S
C365   N396    1.376   .     A
C366   C375    1.478   .     S
C366   N395    1.378   .     A
C366   C7      1.430   1_565 S
C367   N396    1.378   .     A
C367   C376    1.477   .     S
C368   C377    1.479   .     S
C368   N395    1.381   .     A
C368   C5      1.430   1_565 S
C369   O420    1.223   .     D
C369   C382    1.486   .     S
C369   O398    1.395   .     S
C370   C383    1.484   .     S
C370   O400    1.394   .     S
C370   O399    1.223   .     D
C371   O401    1.221   .     D
C371   C384    1.483   .     S
C371   O402    1.399   .     S
C372   O408    1.309   .     A
C372   O414    1.310   .     A
C373   O403    1.223   .     D
C373   O404    1.399   .     S
C374   O406    1.398   .     S
C374   O405    1.221   .     D
C375   O409    1.397   .     S
C375   O407    1.221   .     D
C376   O411    1.398   .     S
C376   O410    1.219   .     D
C377   O412    1.218   .     D
C377   O413    1.397   .     S
C378   O419    1.299   .     A
C378   O416    1.301   .     A
C378   C380    1.407   .     S
C379   O417    1.301   .     A
C379   C381    1.407   .     S
C379   O418    1.299   .     A
C380   C1461   1.189   1_554 S
C381   C920    1.189   .     S
C382   C504    1.401   1_455 S
C383   C422    1.401   .     S
C384   C442    1.401   .     S
Cu385  O416    1.929   .     S
Cu385  Cu386   2.719   .     S
Cu385  N395    2.043   .     S
Cu385  O418    1.927   .     S
Cu385  O414    1.969   .     S
Cu385  O397    1.982   .     S
Cu386  O408    1.982   .     S
Cu386  O415    1.969   .     S
Cu386  N396    2.043   .     S
Cu386  O417    1.929   .     S
Cu386  O419    1.927   .     S
H387   O398    1.014   .     S
H388   O400    1.011   .     S
H389   O402    1.010   .     S
H390   O404    1.012   .     S
H391   O406    1.014   .     S
H392   O409    1.014   .     S
H393   O411    1.014   .     S
H394   O413    1.014   .     S
C421   C424    1.482   .     S
C421   O475    1.316   .     A
C421   O457    1.304   .     A
C422   C424    1.425   .     A
C422   C433    1.488   .     S
C423   C432    1.480   .     S
C423   C443    1.409   .     A
C423   C444    1.409   .     A
C424   C442    1.415   .     A
C425   C434    1.479   .     S
C425   N456    1.376   .     A
C426   C435    1.478   .     S
C426   N455    1.378   .     A
C426   C67     1.430   1_565 S
C427   N456    1.378   .     A
C427   C436    1.477   .     S
C428   C437    1.479   .     S
C428   N455    1.381   .     A
C428   C65     1.430   1_565 S
C429   O480    1.223   .     D
C429   C442    1.486   .     S
C429   O458    1.395   .     S
C430   C443    1.484   .     S
C430   O460    1.394   .     S
C430   O459    1.223   .     D
C431   O461    1.221   .     D
C431   C444    1.483   .     S
C431   O462    1.399   .     S
C432   O468    1.309   .     A
C432   O474    1.310   .     A
C433   O463    1.223   .     D
C433   O464    1.399   .     S
C434   O466    1.398   .     S
C434   O465    1.221   .     D
C435   O469    1.397   .     S
C435   O467    1.221   .     D
C436   O471    1.398   .     S
C436   O470    1.219   .     D
C437   O472    1.218   .     D
C437   O473    1.397   .     S
C438   O479    1.299   .     A
C438   O476    1.301   .     A
C438   C440    1.407   .     S
C439   O477    1.301   .     A
C439   C441    1.407   .     S
C439   O478    1.299   .     A
C440   C1521   1.189   1_554 S
C441   C980    1.189   .     S
C443   C482    1.401   .     S
C444   C502    1.401   .     S
Cu445  O476    1.929   .     S
Cu445  Cu446   2.719   .     S
Cu445  N455    2.043   .     S
Cu445  O478    1.927   .     S
Cu445  O474    1.969   .     S
Cu445  O457    1.982   .     S
Cu446  O468    1.982   .     S
Cu446  O475    1.969   .     S
Cu446  N456    2.043   .     S
Cu446  O477    1.929   .     S
Cu446  O479    1.927   .     S
H447   O458    1.014   .     S
H448   O460    1.011   .     S
H449   O462    1.010   .     S
H450   O464    1.012   .     S
H451   O466    1.014   .     S
H452   O469    1.014   .     S
H453   O471    1.014   .     S
H454   O473    1.014   .     S
C481   C484    1.482   .     S
C481   O535    1.316   .     A
C481   O517    1.304   .     A
C482   C484    1.425   .     A
C482   C493    1.488   .     S
C483   C492    1.480   .     S
C483   C503    1.409   .     A
C483   C504    1.409   .     A
C484   C502    1.415   .     A
C485   C494    1.479   .     S
C485   N516    1.376   .     A
C486   C495    1.478   .     S
C486   N515    1.378   .     A
C486   C127    1.430   1_565 S
C487   N516    1.378   .     A
C487   C496    1.477   .     S
C488   C497    1.479   .     S
C488   N515    1.381   .     A
C488   C125    1.430   1_565 S
C489   O540    1.223   .     D
C489   C502    1.486   .     S
C489   O518    1.395   .     S
C490   C503    1.484   .     S
C490   O520    1.394   .     S
C490   O519    1.223   .     D
C491   O521    1.221   .     D
C491   C504    1.483   .     S
C491   O522    1.399   .     S
C492   O528    1.309   .     A
C492   O534    1.310   .     A
C493   O523    1.223   .     D
C493   O524    1.399   .     S
C494   O526    1.398   .     S
C494   O525    1.221   .     D
C495   O529    1.397   .     S
C495   O527    1.221   .     D
C496   O531    1.398   .     S
C496   O530    1.219   .     D
C497   O532    1.218   .     D
C497   O533    1.397   .     S
C498   O539    1.299   .     A
C498   O536    1.301   .     A
C498   C500    1.407   .     S
C499   O537    1.301   .     A
C499   C501    1.407   .     S
C499   O538    1.299   .     A
C500   C1581   1.189   1_554 S
C501   C1040   1.189   .     S
C503   C362    1.401   1_655 S
C504   C382    1.401   1_655 S
Cu505  O536    1.929   .     S
Cu505  Cu506   2.719   .     S
Cu505  N515    2.043   .     S
Cu505  O538    1.927   .     S
Cu505  O534    1.969   .     S
Cu505  O517    1.982   .     S
Cu506  O528    1.982   .     S
Cu506  O535    1.969   .     S
Cu506  N516    2.043   .     S
Cu506  O537    1.929   .     S
Cu506  O539    1.927   .     S
H507   O518    1.014   .     S
H508   O520    1.011   .     S
H509   O522    1.010   .     S
H510   O524    1.012   .     S
H511   O526    1.014   .     S
H512   O529    1.014   .     S
H513   O531    1.014   .     S
H514   O533    1.014   .     S
C541   C544    1.482   .     S
C541   O595    1.316   .     A
C541   O577    1.304   .     A
C542   C544    1.425   .     A
C542   C553    1.488   .     S
C542   C683    1.401   1_455 S
C543   C552    1.480   .     S
C543   C563    1.409   .     A
C543   C564    1.409   .     A
C544   C562    1.415   .     A
C545   C554    1.479   .     S
C545   N576    1.376   .     A
C545   C908    1.430   1_545 S
C546   C555    1.478   .     S
C546   N575    1.378   .     A
C546   C727    1.430   .     S
C547   N576    1.378   .     A
C547   C556    1.477   .     S
C547   C906    1.430   1_545 S
C548   C557    1.479   .     S
C548   N575    1.381   .     A
C548   C725    1.430   .     S
C549   O600    1.223   .     D
C549   C562    1.486   .     S
C549   O578    1.395   .     S
C550   C563    1.484   .     S
C550   O580    1.394   .     S
C550   O579    1.223   .     D
C551   O581    1.221   .     D
C551   C564    1.483   .     S
C551   O582    1.399   .     S
C552   O588    1.309   .     A
C552   O594    1.310   .     A
C553   O583    1.223   .     D
C553   O584    1.399   .     S
C554   O586    1.398   .     S
C554   O585    1.221   .     D
C555   O589    1.397   .     S
C555   O587    1.221   .     D
C556   O591    1.398   .     S
C556   O590    1.219   .     D
C557   O592    1.218   .     D
C557   O593    1.397   .     S
C558   O599    1.299   .     A
C558   O596    1.301   .     A
C558   C560    1.407   .     S
C559   O597    1.301   .     A
C559   C561    1.407   .     S
C559   O598    1.299   .     A
C561   C1100   1.189   .     S
C562   C684    1.401   1_455 S
C563   C602    1.401   .     S
C564   C622    1.401   .     S
Cu565  O596    1.929   .     S
Cu565  Cu566   2.719   .     S
Cu565  N575    2.043   .     S
Cu565  O598    1.927   .     S
Cu565  O594    1.969   .     S
Cu565  O577    1.982   .     S
Cu566  O588    1.982   .     S
Cu566  O595    1.969   .     S
Cu566  N576    2.043   .     S
Cu566  O597    1.929   .     S
Cu566  O599    1.927   .     S
H567   O578    1.014   .     S
H568   O580    1.011   .     S
H569   O582    1.010   .     S
H570   O584    1.012   .     S
H571   O586    1.014   .     S
H572   O589    1.014   .     S
H573   O591    1.014   .     S
H574   O593    1.014   .     S
C601   C604    1.482   .     S
C601   O655    1.316   .     A
C601   O637    1.304   .     A
C602   C604    1.425   .     A
C602   C613    1.488   .     S
C603   C612    1.480   .     S
C603   C623    1.409   .     A
C603   C624    1.409   .     A
C604   C622    1.415   .     A
C605   C614    1.479   .     S
C605   N636    1.376   .     A
C605   C968    1.430   1_545 S
C606   C615    1.478   .     S
C606   N635    1.378   .     A
C606   C787    1.430   .     S
C607   N636    1.378   .     A
C607   C616    1.477   .     S
C607   C966    1.430   1_545 S
C608   C617    1.479   .     S
C608   N635    1.381   .     A
C608   C785    1.430   .     S
C609   O660    1.223   .     D
C609   C622    1.486   .     S
C609   O638    1.395   .     S
C610   C623    1.484   .     S
C610   O640    1.394   .     S
C610   O639    1.223   .     D
C611   O641    1.221   .     D
C611   C624    1.483   .     S
C611   O642    1.399   .     S
C612   O648    1.309   .     A
C612   O654    1.310   .     A
C613   O643    1.223   .     D
C613   O644    1.399   .     S
C614   O646    1.398   .     S
C614   O645    1.221   .     D
C615   O649    1.397   .     S
C615   O647    1.221   .     D
C616   O651    1.398   .     S
C616   O650    1.219   .     D
C617   O652    1.218   .     D
C617   O653    1.397   .     S
C618   O659    1.299   .     A
C618   O656    1.301   .     A
C618   C620    1.407   .     S
C619   O657    1.301   .     A
C619   C621    1.407   .     S
C619   O658    1.299   .     A
C621   C1160   1.189   .     S
C623   C662    1.401   .     S
C624   C682    1.401   .     S
Cu625  O656    1.929   .     S
Cu625  Cu626   2.719   .     S
Cu625  N635    2.043   .     S
Cu625  O658    1.927   .     S
Cu625  O654    1.969   .     S
Cu625  O637    1.982   .     S
Cu626  O648    1.982   .     S
Cu626  O655    1.969   .     S
Cu626  N636    2.043   .     S
Cu626  O657    1.929   .     S
Cu626  O659    1.927   .     S
H627   O638    1.014   .     S
H628   O640    1.011   .     S
H629   O642    1.010   .     S
H630   O644    1.012   .     S
H631   O646    1.014   .     S
H632   O649    1.014   .     S
H633   O651    1.014   .     S
H634   O653    1.014   .     S
C661   C664    1.482   .     S
C661   O715    1.316   .     A
C661   O697    1.304   .     A
C662   C664    1.425   .     A
C662   C673    1.488   .     S
C663   C672    1.480   .     S
C663   C683    1.409   .     A
C663   C684    1.409   .     A
C664   C682    1.415   .     A
C665   C674    1.479   .     S
C665   N696    1.376   .     A
C665   C1028   1.430   1_545 S
C666   C675    1.478   .     S
C666   N695    1.378   .     A
C666   C847    1.430   .     S
C667   N696    1.378   .     A
C667   C676    1.477   .     S
C667   C1026   1.430   1_545 S
C668   C677    1.479   .     S
C668   N695    1.381   .     A
C668   C845    1.430   .     S
C669   O720    1.223   .     D
C669   C682    1.486   .     S
C669   O698    1.395   .     S
C670   C683    1.484   .     S
C670   O700    1.394   .     S
C670   O699    1.223   .     D
C671   O701    1.221   .     D
C671   C684    1.483   .     S
C671   O702    1.399   .     S
C672   O708    1.309   .     A
C672   O714    1.310   .     A
C673   O703    1.223   .     D
C673   O704    1.399   .     S
C674   O706    1.398   .     S
C674   O705    1.221   .     D
C675   O709    1.397   .     S
C675   O707    1.221   .     D
C676   O711    1.398   .     S
C676   O710    1.219   .     D
C677   O712    1.218   .     D
C677   O713    1.397   .     S
C678   O719    1.299   .     A
C678   O716    1.301   .     A
C678   C680    1.407   .     S
C679   O717    1.301   .     A
C679   C681    1.407   .     S
C679   O718    1.299   .     A
C681   C1220   1.189   .     S
C683   C542    1.401   1_655 S
C684   C562    1.401   1_655 S
Cu685  O716    1.929   .     S
Cu685  Cu686   2.719   .     S
Cu685  N695    2.043   .     S
Cu685  O718    1.927   .     S
Cu685  O714    1.969   .     S
Cu685  O697    1.982   .     S
Cu686  O708    1.982   .     S
Cu686  O715    1.969   .     S
Cu686  N696    2.043   .     S
Cu686  O717    1.929   .     S
Cu686  O719    1.927   .     S
H687   O698    1.014   .     S
H688   O700    1.011   .     S
H689   O702    1.010   .     S
H690   O704    1.012   .     S
H691   O706    1.014   .     S
H692   O709    1.014   .     S
H693   O711    1.014   .     S
H694   O713    1.014   .     S
C721   C724    1.482   .     S
C721   O775    1.316   .     A
C721   O757    1.304   .     A
C722   C724    1.425   .     A
C722   C733    1.488   .     S
C722   C863    1.401   1_455 S
C723   C732    1.480   .     S
C723   C743    1.409   .     A
C723   C744    1.409   .     A
C724   C742    1.415   .     A
C725   C734    1.479   .     S
C725   N756    1.376   .     A
C726   C735    1.478   .     S
C726   N755    1.378   .     A
C726   C907    1.430   .     S
C727   N756    1.378   .     A
C727   C736    1.477   .     S
C728   C737    1.479   .     S
C728   N755    1.381   .     A
C728   C905    1.430   .     S
C729   O780    1.223   .     D
C729   C742    1.486   .     S
C729   O758    1.395   .     S
C730   C743    1.484   .     S
C730   O760    1.394   .     S
C730   O759    1.223   .     D
C731   O761    1.221   .     D
C731   C744    1.483   .     S
C731   O762    1.399   .     S
C732   O768    1.309   .     A
C732   O774    1.310   .     A
C733   O763    1.223   .     D
C733   O764    1.399   .     S
C734   O766    1.398   .     S
C734   O765    1.221   .     D
C735   O769    1.397   .     S
C735   O767    1.221   .     D
C736   O771    1.398   .     S
C736   O770    1.219   .     D
C737   O772    1.218   .     D
C737   O773    1.397   .     S
C738   O779    1.299   .     A
C738   O776    1.301   .     A
C738   C740    1.407   .     S
C739   O777    1.301   .     A
C739   C741    1.407   .     S
C739   O778    1.299   .     A
C741   C1280   1.189   .     S
C742   C864    1.401   1_455 S
C743   C782    1.401   .     S
C744   C802    1.401   .     S
Cu745  O776    1.929   .     S
Cu745  Cu746   2.719   .     S
Cu745  N755    2.043   .     S
Cu745  O778    1.927   .     S
Cu745  O774    1.969   .     S
Cu745  O757    1.982   .     S
Cu746  O768    1.982   .     S
Cu746  O775    1.969   .     S
Cu746  N756    2.043   .     S
Cu746  O777    1.929   .     S
Cu746  O779    1.927   .     S
H747   O758    1.014   .     S
H748   O760    1.011   .     S
H749   O762    1.010   .     S
H750   O764    1.012   .     S
H751   O766    1.014   .     S
H752   O769    1.014   .     S
H753   O771    1.014   .     S
H754   O773    1.014   .     S
C781   C784    1.482   .     S
C781   O835    1.316   .     A
C781   O817    1.304   .     A
C782   C784    1.425   .     A
C782   C793    1.488   .     S
C783   C792    1.480   .     S
C783   C803    1.409   .     A
C783   C804    1.409   .     A
C784   C802    1.415   .     A
C785   C794    1.479   .     S
C785   N816    1.376   .     A
C786   C795    1.478   .     S
C786   N815    1.378   .     A
C786   C967    1.430   .     S
C787   N816    1.378   .     A
C787   C796    1.477   .     S
C788   C797    1.479   .     S
C788   N815    1.381   .     A
C788   C965    1.430   .     S
C789   O840    1.223   .     D
C789   C802    1.486   .     S
C789   O818    1.395   .     S
C790   C803    1.484   .     S
C790   O820    1.394   .     S
C790   O819    1.223   .     D
C791   O821    1.221   .     D
C791   C804    1.483   .     S
C791   O822    1.399   .     S
C792   O828    1.309   .     A
C792   O834    1.310   .     A
C793   O823    1.223   .     D
C793   O824    1.399   .     S
C794   O826    1.398   .     S
C794   O825    1.221   .     D
C795   O829    1.397   .     S
C795   O827    1.221   .     D
C796   O831    1.398   .     S
C796   O830    1.219   .     D
C797   O832    1.218   .     D
C797   O833    1.397   .     S
C798   O839    1.299   .     A
C798   O836    1.301   .     A
C798   C800    1.407   .     S
C799   O837    1.301   .     A
C799   C801    1.407   .     S
C799   O838    1.299   .     A
C801   C1340   1.189   .     S
C803   C842    1.401   .     S
C804   C862    1.401   .     S
Cu805  O836    1.929   .     S
Cu805  Cu806   2.719   .     S
Cu805  N815    2.043   .     S
Cu805  O838    1.927   .     S
Cu805  O834    1.969   .     S
Cu805  O817    1.982   .     S
Cu806  O828    1.982   .     S
Cu806  O835    1.969   .     S
Cu806  N816    2.043   .     S
Cu806  O837    1.929   .     S
Cu806  O839    1.927   .     S
H807   O818    1.014   .     S
H808   O820    1.011   .     S
H809   O822    1.010   .     S
H810   O824    1.012   .     S
H811   O826    1.014   .     S
H812   O829    1.014   .     S
H813   O831    1.014   .     S
H814   O833    1.014   .     S
C841   C844    1.482   .     S
C841   O895    1.316   .     A
C841   O877    1.304   .     A
C842   C844    1.425   .     A
C842   C853    1.488   .     S
C843   C852    1.480   .     S
C843   C863    1.409   .     A
C843   C864    1.409   .     A
C844   C862    1.415   .     A
C845   C854    1.479   .     S
C845   N876    1.376   .     A
C846   C855    1.478   .     S
C846   N875    1.378   .     A
C846   C1027   1.430   .     S
C847   N876    1.378   .     A
C847   C856    1.477   .     S
C848   C857    1.479   .     S
C848   N875    1.381   .     A
C848   C1025   1.430   .     S
C849   O900    1.223   .     D
C849   C862    1.486   .     S
C849   O878    1.395   .     S
C850   C863    1.484   .     S
C850   O880    1.394   .     S
C850   O879    1.223   .     D
C851   O881    1.221   .     D
C851   C864    1.483   .     S
C851   O882    1.399   .     S
C852   O888    1.309   .     A
C852   O894    1.310   .     A
C853   O883    1.223   .     D
C853   O884    1.399   .     S
C854   O886    1.398   .     S
C854   O885    1.221   .     D
C855   O889    1.397   .     S
C855   O887    1.221   .     D
C856   O891    1.398   .     S
C856   O890    1.219   .     D
C857   O892    1.218   .     D
C857   O893    1.397   .     S
C858   O899    1.299   .     A
C858   O896    1.301   .     A
C858   C860    1.407   .     S
C859   O897    1.301   .     A
C859   C861    1.407   .     S
C859   O898    1.299   .     A
C861   C1400   1.189   .     S
C863   C722    1.401   1_655 S
C864   C742    1.401   1_655 S
Cu865  O896    1.929   .     S
Cu865  Cu866   2.719   .     S
Cu865  N875    2.043   .     S
Cu865  O898    1.927   .     S
Cu865  O894    1.969   .     S
Cu865  O877    1.982   .     S
Cu866  O888    1.982   .     S
Cu866  O895    1.969   .     S
Cu866  N876    2.043   .     S
Cu866  O897    1.929   .     S
Cu866  O899    1.927   .     S
H867   O878    1.014   .     S
H868   O880    1.011   .     S
H869   O882    1.010   .     S
H870   O884    1.012   .     S
H871   O886    1.014   .     S
H872   O889    1.014   .     S
H873   O891    1.014   .     S
H874   O893    1.014   .     S
C901   C904    1.482   .     S
C901   O955    1.316   .     A
C901   O937    1.304   .     A
C902   C904    1.425   .     A
C902   C913    1.488   .     S
C902   C1043   1.401   1_455 S
C903   C912    1.480   .     S
C903   C923    1.409   .     A
C903   C924    1.409   .     A
C904   C922    1.415   .     A
C905   C914    1.479   .     S
C905   N936    1.376   .     A
C906   C915    1.478   .     S
C906   N935    1.378   .     A
C906   C547    1.430   1_565 S
C907   N936    1.378   .     A
C907   C916    1.477   .     S
C908   C917    1.479   .     S
C908   N935    1.381   .     A
C908   C545    1.430   1_565 S
C909   O960    1.223   .     D
C909   C922    1.486   .     S
C909   O938    1.395   .     S
C910   C923    1.484   .     S
C910   O940    1.394   .     S
C910   O939    1.223   .     D
C911   O941    1.221   .     D
C911   C924    1.483   .     S
C911   O942    1.399   .     S
C912   O948    1.309   .     A
C912   O954    1.310   .     A
C913   O943    1.223   .     D
C913   O944    1.399   .     S
C914   O946    1.398   .     S
C914   O945    1.221   .     D
C915   O949    1.397   .     S
C915   O947    1.221   .     D
C916   O951    1.398   .     S
C916   O950    1.219   .     D
C917   O952    1.218   .     D
C917   O953    1.397   .     S
C918   O959    1.299   .     A
C918   O956    1.301   .     A
C918   C920    1.407   .     S
C919   O957    1.301   .     A
C919   C921    1.407   .     S
C919   O958    1.299   .     A
C921   C1460   1.189   .     S
C922   C1044   1.401   1_455 S
C923   C962    1.401   .     S
C924   C982    1.401   .     S
Cu925  O956    1.929   .     S
Cu925  Cu926   2.719   .     S
Cu925  N935    2.043   .     S
Cu925  O958    1.927   .     S
Cu925  O954    1.969   .     S
Cu925  O937    1.982   .     S
Cu926  O948    1.982   .     S
Cu926  O955    1.969   .     S
Cu926  N936    2.043   .     S
Cu926  O957    1.929   .     S
Cu926  O959    1.927   .     S
H927   O938    1.014   .     S
H928   O940    1.011   .     S
H929   O942    1.010   .     S
H930   O944    1.012   .     S
H931   O946    1.014   .     S
H932   O949    1.014   .     S
H933   O951    1.014   .     S
H934   O953    1.014   .     S
C961   C964    1.482   .     S
C961   O1015   1.316   .     A
C961   O997    1.304   .     A
C962   C964    1.425   .     A
C962   C973    1.488   .     S
C963   C972    1.480   .     S
C963   C983    1.409   .     A
C963   C984    1.409   .     A
C964   C982    1.415   .     A
C965   C974    1.479   .     S
C965   N996    1.376   .     A
C966   C975    1.478   .     S
C966   N995    1.378   .     A
C966   C607    1.430   1_565 S
C967   N996    1.378   .     A
C967   C976    1.477   .     S
C968   C977    1.479   .     S
C968   N995    1.381   .     A
C968   C605    1.430   1_565 S
C969   O1020   1.223   .     D
C969   C982    1.486   .     S
C969   O998    1.395   .     S
C970   C983    1.484   .     S
C970   O1000   1.394   .     S
C970   O999    1.223   .     D
C971   O1001   1.221   .     D
C971   C984    1.483   .     S
C971   O1002   1.399   .     S
C972   O1008   1.309   .     A
C972   O1014   1.310   .     A
C973   O1003   1.223   .     D
C973   O1004   1.399   .     S
C974   O1006   1.398   .     S
C974   O1005   1.221   .     D
C975   O1009   1.397   .     S
C975   O1007   1.221   .     D
C976   O1011   1.398   .     S
C976   O1010   1.219   .     D
C977   O1012   1.218   .     D
C977   O1013   1.397   .     S
C978   O1019   1.299   .     A
C978   O1016   1.301   .     A
C978   C980    1.407   .     S
C979   O1017   1.301   .     A
C979   C981    1.407   .     S
C979   O1018   1.299   .     A
C981   C1520   1.189   .     S
C983   C1022   1.401   .     S
C984   C1042   1.401   .     S
Cu985  O1016   1.929   .     S
Cu985  Cu986   2.719   .     S
Cu985  N995    2.043   .     S
Cu985  O1018   1.927   .     S
Cu985  O1014   1.969   .     S
Cu985  O997    1.982   .     S
Cu986  O1008   1.982   .     S
Cu986  O1015   1.969   .     S
Cu986  N996    2.043   .     S
Cu986  O1017   1.929   .     S
Cu986  O1019   1.927   .     S
H987   O998    1.014   .     S
H988   O1000   1.011   .     S
H989   O1002   1.010   .     S
H990   O1004   1.012   .     S
H991   O1006   1.014   .     S
H992   O1009   1.014   .     S
H993   O1011   1.014   .     S
H994   O1013   1.014   .     S
C1021  C1024   1.482   .     S
C1021  O1075   1.316   .     A
C1021  O1057   1.304   .     A
C1022  C1024   1.425   .     A
C1022  C1033   1.488   .     S
C1023  C1032   1.480   .     S
C1023  C1043   1.409   .     A
C1023  C1044   1.409   .     A
C1024  C1042   1.415   .     A
C1025  C1034   1.479   .     S
C1025  N1056   1.376   .     A
C1026  C1035   1.478   .     S
C1026  N1055   1.378   .     A
C1026  C667    1.430   1_565 S
C1027  N1056   1.378   .     A
C1027  C1036   1.477   .     S
C1028  C1037   1.479   .     S
C1028  N1055   1.381   .     A
C1028  C665    1.430   1_565 S
C1029  O1080   1.223   .     D
C1029  C1042   1.486   .     S
C1029  O1058   1.395   .     S
C1030  C1043   1.484   .     S
C1030  O1060   1.394   .     S
C1030  O1059   1.223   .     D
C1031  O1061   1.221   .     D
C1031  C1044   1.483   .     S
C1031  O1062   1.399   .     S
C1032  O1068   1.309   .     A
C1032  O1074   1.310   .     A
C1033  O1063   1.223   .     D
C1033  O1064   1.399   .     S
C1034  O1066   1.398   .     S
C1034  O1065   1.221   .     D
C1035  O1069   1.397   .     S
C1035  O1067   1.221   .     D
C1036  O1071   1.398   .     S
C1036  O1070   1.219   .     D
C1037  O1072   1.218   .     D
C1037  O1073   1.397   .     S
C1038  O1079   1.299   .     A
C1038  O1076   1.301   .     A
C1038  C1040   1.407   .     S
C1039  O1077   1.301   .     A
C1039  C1041   1.407   .     S
C1039  O1078   1.299   .     A
C1041  C1580   1.189   .     S
C1043  C902    1.401   1_655 S
C1044  C922    1.401   1_655 S
Cu1045 O1076   1.929   .     S
Cu1045 Cu1046  2.719   .     S
Cu1045 N1055   2.043   .     S
Cu1045 O1078   1.927   .     S
Cu1045 O1074   1.969   .     S
Cu1045 O1057   1.982   .     S
Cu1046 O1068   1.982   .     S
Cu1046 O1075   1.969   .     S
Cu1046 N1056   2.043   .     S
Cu1046 O1077   1.929   .     S
Cu1046 O1079   1.927   .     S
H1047  O1058   1.014   .     S
H1048  O1060   1.011   .     S
H1049  O1062   1.010   .     S
H1050  O1064   1.012   .     S
H1051  O1066   1.014   .     S
H1052  O1069   1.014   .     S
H1053  O1071   1.014   .     S
H1054  O1073   1.014   .     S
C1081  C1084   1.482   .     S
C1081  O1135   1.316   .     A
C1081  O1117   1.304   .     A
C1082  C1084   1.425   .     A
C1082  C1093   1.488   .     S
C1082  C1223   1.401   1_455 S
C1083  C1092   1.480   .     S
C1083  C1103   1.409   .     A
C1083  C1104   1.409   .     A
C1084  C1102   1.415   .     A
C1085  C1094   1.479   .     S
C1085  N1116   1.376   .     A
C1085  C1448   1.430   1_545 S
C1086  C1095   1.478   .     S
C1086  N1115   1.378   .     A
C1086  C1267   1.430   .     S
C1087  N1116   1.378   .     A
C1087  C1096   1.477   .     S
C1087  C1446   1.430   1_545 S
C1088  C1097   1.479   .     S
C1088  N1115   1.381   .     A
C1088  C1265   1.430   .     S
C1089  O1140   1.223   .     D
C1089  C1102   1.486   .     S
C1089  O1118   1.395   .     S
C1090  C1103   1.484   .     S
C1090  O1120   1.394   .     S
C1090  O1119   1.223   .     D
C1091  O1121   1.221   .     D
C1091  C1104   1.483   .     S
C1091  O1122   1.399   .     S
C1092  O1128   1.309   .     A
C1092  O1134   1.310   .     A
C1093  O1123   1.223   .     D
C1093  O1124   1.399   .     S
C1094  O1126   1.398   .     S
C1094  O1125   1.221   .     D
C1095  O1129   1.397   .     S
C1095  O1127   1.221   .     D
C1096  O1131   1.398   .     S
C1096  O1130   1.219   .     D
C1097  O1132   1.218   .     D
C1097  O1133   1.397   .     S
C1098  O1139   1.299   .     A
C1098  O1136   1.301   .     A
C1098  C1100   1.407   .     S
C1099  O1137   1.301   .     A
C1099  C1101   1.407   .     S
C1099  O1138   1.299   .     A
C1101  C20     1.189   1_556 S
C1102  C1224   1.401   1_455 S
C1103  C1142   1.401   .     S
C1104  C1162   1.401   .     S
Cu1105 O1136   1.929   .     S
Cu1105 Cu1106  2.719   .     S
Cu1105 N1115   2.043   .     S
Cu1105 O1138   1.927   .     S
Cu1105 O1134   1.969   .     S
Cu1105 O1117   1.982   .     S
Cu1106 O1128   1.982   .     S
Cu1106 O1135   1.969   .     S
Cu1106 N1116   2.043   .     S
Cu1106 O1137   1.929   .     S
Cu1106 O1139   1.927   .     S
H1107  O1118   1.014   .     S
H1108  O1120   1.011   .     S
H1109  O1122   1.010   .     S
H1110  O1124   1.012   .     S
H1111  O1126   1.014   .     S
H1112  O1129   1.014   .     S
H1113  O1131   1.014   .     S
H1114  O1133   1.014   .     S
C1141  C1144   1.482   .     S
C1141  O1195   1.316   .     A
C1141  O1177   1.304   .     A
C1142  C1144   1.425   .     A
C1142  C1153   1.488   .     S
C1143  C1152   1.480   .     S
C1143  C1163   1.409   .     A
C1143  C1164   1.409   .     A
C1144  C1162   1.415   .     A
C1145  C1154   1.479   .     S
C1145  N1176   1.376   .     A
C1145  C1508   1.430   1_545 S
C1146  C1155   1.478   .     S
C1146  N1175   1.378   .     A
C1146  C1327   1.430   .     S
C1147  N1176   1.378   .     A
C1147  C1156   1.477   .     S
C1147  C1506   1.430   1_545 S
C1148  C1157   1.479   .     S
C1148  N1175   1.381   .     A
C1148  C1325   1.430   .     S
C1149  O1200   1.223   .     D
C1149  C1162   1.486   .     S
C1149  O1178   1.395   .     S
C1150  C1163   1.484   .     S
C1150  O1180   1.394   .     S
C1150  O1179   1.223   .     D
C1151  O1181   1.221   .     D
C1151  C1164   1.483   .     S
C1151  O1182   1.399   .     S
C1152  O1188   1.309   .     A
C1152  O1194   1.310   .     A
C1153  O1183   1.223   .     D
C1153  O1184   1.399   .     S
C1154  O1186   1.398   .     S
C1154  O1185   1.221   .     D
C1155  O1189   1.397   .     S
C1155  O1187   1.221   .     D
C1156  O1191   1.398   .     S
C1156  O1190   1.219   .     D
C1157  O1192   1.218   .     D
C1157  O1193   1.397   .     S
C1158  O1199   1.299   .     A
C1158  O1196   1.301   .     A
C1158  C1160   1.407   .     S
C1159  O1197   1.301   .     A
C1159  C1161   1.407   .     S
C1159  O1198   1.299   .     A
C1161  C80     1.189   1_556 S
C1163  C1202   1.401   .     S
C1164  C1222   1.401   .     S
Cu1165 O1196   1.929   .     S
Cu1165 Cu1166  2.719   .     S
Cu1165 N1175   2.043   .     S
Cu1165 O1198   1.927   .     S
Cu1165 O1194   1.969   .     S
Cu1165 O1177   1.982   .     S
Cu1166 O1188   1.982   .     S
Cu1166 O1195   1.969   .     S
Cu1166 N1176   2.043   .     S
Cu1166 O1197   1.929   .     S
Cu1166 O1199   1.927   .     S
H1167  O1178   1.014   .     S
H1168  O1180   1.011   .     S
H1169  O1182   1.010   .     S
H1170  O1184   1.012   .     S
H1171  O1186   1.014   .     S
H1172  O1189   1.014   .     S
H1173  O1191   1.014   .     S
H1174  O1193   1.014   .     S
C1201  C1204   1.482   .     S
C1201  O1255   1.316   .     A
C1201  O1237   1.304   .     A
C1202  C1204   1.425   .     A
C1202  C1213   1.488   .     S
C1203  C1212   1.480   .     S
C1203  C1223   1.409   .     A
C1203  C1224   1.409   .     A
C1204  C1222   1.415   .     A
C1205  C1214   1.479   .     S
C1205  N1236   1.376   .     A
C1205  C1568   1.430   1_545 S
C1206  C1215   1.478   .     S
C1206  N1235   1.378   .     A
C1206  C1387   1.430   .     S
C1207  N1236   1.378   .     A
C1207  C1216   1.477   .     S
C1207  C1566   1.430   1_545 S
C1208  C1217   1.479   .     S
C1208  N1235   1.381   .     A
C1208  C1385   1.430   .     S
C1209  O1260   1.223   .     D
C1209  C1222   1.486   .     S
C1209  O1238   1.395   .     S
C1210  C1223   1.484   .     S
C1210  O1240   1.394   .     S
C1210  O1239   1.223   .     D
C1211  O1241   1.221   .     D
C1211  C1224   1.483   .     S
C1211  O1242   1.399   .     S
C1212  O1248   1.309   .     A
C1212  O1254   1.310   .     A
C1213  O1243   1.223   .     D
C1213  O1244   1.399   .     S
C1214  O1246   1.398   .     S
C1214  O1245   1.221   .     D
C1215  O1249   1.397   .     S
C1215  O1247   1.221   .     D
C1216  O1251   1.398   .     S
C1216  O1250   1.219   .     D
C1217  O1252   1.218   .     D
C1217  O1253   1.397   .     S
C1218  O1259   1.299   .     A
C1218  O1256   1.301   .     A
C1218  C1220   1.407   .     S
C1219  O1257   1.301   .     A
C1219  C1221   1.407   .     S
C1219  O1258   1.299   .     A
C1221  C140    1.189   1_556 S
C1223  C1082   1.401   1_655 S
C1224  C1102   1.401   1_655 S
Cu1225 O1256   1.929   .     S
Cu1225 Cu1226  2.719   .     S
Cu1225 N1235   2.043   .     S
Cu1225 O1258   1.927   .     S
Cu1225 O1254   1.969   .     S
Cu1225 O1237   1.982   .     S
Cu1226 O1248   1.982   .     S
Cu1226 O1255   1.969   .     S
Cu1226 N1236   2.043   .     S
Cu1226 O1257   1.929   .     S
Cu1226 O1259   1.927   .     S
H1227  O1238   1.014   .     S
H1228  O1240   1.011   .     S
H1229  O1242   1.010   .     S
H1230  O1244   1.012   .     S
H1231  O1246   1.014   .     S
H1232  O1249   1.014   .     S
H1233  O1251   1.014   .     S
H1234  O1253   1.014   .     S
C1261  C1264   1.482   .     S
C1261  O1315   1.316   .     A
C1261  O1297   1.304   .     A
C1262  C1264   1.425   .     A
C1262  C1273   1.488   .     S
C1262  C1403   1.401   1_455 S
C1263  C1272   1.480   .     S
C1263  C1283   1.409   .     A
C1263  C1284   1.409   .     A
C1264  C1282   1.415   .     A
C1265  C1274   1.479   .     S
C1265  N1296   1.376   .     A
C1266  C1275   1.478   .     S
C1266  N1295   1.378   .     A
C1266  C1447   1.430   .     S
C1267  N1296   1.378   .     A
C1267  C1276   1.477   .     S
C1268  C1277   1.479   .     S
C1268  N1295   1.381   .     A
C1268  C1445   1.430   .     S
C1269  O1320   1.223   .     D
C1269  C1282   1.486   .     S
C1269  O1298   1.395   .     S
C1270  C1283   1.484   .     S
C1270  O1300   1.394   .     S
C1270  O1299   1.223   .     D
C1271  O1301   1.221   .     D
C1271  C1284   1.483   .     S
C1271  O1302   1.399   .     S
C1272  O1308   1.309   .     A
C1272  O1314   1.310   .     A
C1273  O1303   1.223   .     D
C1273  O1304   1.399   .     S
C1274  O1306   1.398   .     S
C1274  O1305   1.221   .     D
C1275  O1309   1.397   .     S
C1275  O1307   1.221   .     D
C1276  O1311   1.398   .     S
C1276  O1310   1.219   .     D
C1277  O1312   1.218   .     D
C1277  O1313   1.397   .     S
C1278  O1319   1.299   .     A
C1278  O1316   1.301   .     A
C1278  C1280   1.407   .     S
C1279  O1317   1.301   .     A
C1279  C1281   1.407   .     S
C1279  O1318   1.299   .     A
C1281  C200    1.189   1_556 S
C1282  C1404   1.401   1_455 S
C1283  C1322   1.401   .     S
C1284  C1342   1.401   .     S
Cu1285 O1316   1.929   .     S
Cu1285 Cu1286  2.719   .     S
Cu1285 N1295   2.043   .     S
Cu1285 O1318   1.927   .     S
Cu1285 O1314   1.969   .     S
Cu1285 O1297   1.982   .     S
Cu1286 O1308   1.982   .     S
Cu1286 O1315   1.969   .     S
Cu1286 N1296   2.043   .     S
Cu1286 O1317   1.929   .     S
Cu1286 O1319   1.927   .     S
H1287  O1298   1.014   .     S
H1288  O1300   1.011   .     S
H1289  O1302   1.010   .     S
H1290  O1304   1.012   .     S
H1291  O1306   1.014   .     S
H1292  O1309   1.014   .     S
H1293  O1311   1.014   .     S
H1294  O1313   1.014   .     S
C1321  C1324   1.482   .     S
C1321  O1375   1.316   .     A
C1321  O1357   1.304   .     A
C1322  C1324   1.425   .     A
C1322  C1333   1.488   .     S
C1323  C1332   1.480   .     S
C1323  C1343   1.409   .     A
C1323  C1344   1.409   .     A
C1324  C1342   1.415   .     A
C1325  C1334   1.479   .     S
C1325  N1356   1.376   .     A
C1326  C1335   1.478   .     S
C1326  N1355   1.378   .     A
C1326  C1507   1.430   .     S
C1327  N1356   1.378   .     A
C1327  C1336   1.477   .     S
C1328  C1337   1.479   .     S
C1328  N1355   1.381   .     A
C1328  C1505   1.430   .     S
C1329  O1380   1.223   .     D
C1329  C1342   1.486   .     S
C1329  O1358   1.395   .     S
C1330  C1343   1.484   .     S
C1330  O1360   1.394   .     S
C1330  O1359   1.223   .     D
C1331  O1361   1.221   .     D
C1331  C1344   1.483   .     S
C1331  O1362   1.399   .     S
C1332  O1368   1.309   .     A
C1332  O1374   1.310   .     A
C1333  O1363   1.223   .     D
C1333  O1364   1.399   .     S
C1334  O1366   1.398   .     S
C1334  O1365   1.221   .     D
C1335  O1369   1.397   .     S
C1335  O1367   1.221   .     D
C1336  O1371   1.398   .     S
C1336  O1370   1.219   .     D
C1337  O1372   1.218   .     D
C1337  O1373   1.397   .     S
C1338  O1379   1.299   .     A
C1338  O1376   1.301   .     A
C1338  C1340   1.407   .     S
C1339  O1377   1.301   .     A
C1339  C1341   1.407   .     S
C1339  O1378   1.299   .     A
C1341  C260    1.189   1_556 S
C1343  C1382   1.401   .     S
C1344  C1402   1.401   .     S
Cu1345 O1376   1.929   .     S
Cu1345 Cu1346  2.719   .     S
Cu1345 N1355   2.043   .     S
Cu1345 O1378   1.927   .     S
Cu1345 O1374   1.969   .     S
Cu1345 O1357   1.982   .     S
Cu1346 O1368   1.982   .     S
Cu1346 O1375   1.969   .     S
Cu1346 N1356   2.043   .     S
Cu1346 O1377   1.929   .     S
Cu1346 O1379   1.927   .     S
H1347  O1358   1.014   .     S
H1348  O1360   1.011   .     S
H1349  O1362   1.010   .     S
H1350  O1364   1.012   .     S
H1351  O1366   1.014   .     S
H1352  O1369   1.014   .     S
H1353  O1371   1.014   .     S
H1354  O1373   1.014   .     S
C1381  C1384   1.482   .     S
C1381  O1435   1.316   .     A
C1381  O1417   1.304   .     A
C1382  C1384   1.425   .     A
C1382  C1393   1.488   .     S
C1383  C1392   1.480   .     S
C1383  C1403   1.409   .     A
C1383  C1404   1.409   .     A
C1384  C1402   1.415   .     A
C1385  C1394   1.479   .     S
C1385  N1416   1.376   .     A
C1386  C1395   1.478   .     S
C1386  N1415   1.378   .     A
C1386  C1567   1.430   .     S
C1387  N1416   1.378   .     A
C1387  C1396   1.477   .     S
C1388  C1397   1.479   .     S
C1388  N1415   1.381   .     A
C1388  C1565   1.430   .     S
C1389  O1440   1.223   .     D
C1389  C1402   1.486   .     S
C1389  O1418   1.395   .     S
C1390  C1403   1.484   .     S
C1390  O1420   1.394   .     S
C1390  O1419   1.223   .     D
C1391  O1421   1.221   .     D
C1391  C1404   1.483   .     S
C1391  O1422   1.399   .     S
C1392  O1428   1.309   .     A
C1392  O1434   1.310   .     A
C1393  O1423   1.223   .     D
C1393  O1424   1.399   .     S
C1394  O1426   1.398   .     S
C1394  O1425   1.221   .     D
C1395  O1429   1.397   .     S
C1395  O1427   1.221   .     D
C1396  O1431   1.398   .     S
C1396  O1430   1.219   .     D
C1397  O1432   1.218   .     D
C1397  O1433   1.397   .     S
C1398  O1439   1.299   .     A
C1398  O1436   1.301   .     A
C1398  C1400   1.407   .     S
C1399  O1437   1.301   .     A
C1399  C1401   1.407   .     S
C1399  O1438   1.299   .     A
C1401  C320    1.189   1_556 S
C1403  C1262   1.401   1_655 S
C1404  C1282   1.401   1_655 S
Cu1405 O1436   1.929   .     S
Cu1405 Cu1406  2.719   .     S
Cu1405 N1415   2.043   .     S
Cu1405 O1438   1.927   .     S
Cu1405 O1434   1.969   .     S
Cu1405 O1417   1.982   .     S
Cu1406 O1428   1.982   .     S
Cu1406 O1435   1.969   .     S
Cu1406 N1416   2.043   .     S
Cu1406 O1437   1.929   .     S
Cu1406 O1439   1.927   .     S
H1407  O1418   1.014   .     S
H1408  O1420   1.011   .     S
H1409  O1422   1.010   .     S
H1410  O1424   1.012   .     S
H1411  O1426   1.014   .     S
H1412  O1429   1.014   .     S
H1413  O1431   1.014   .     S
H1414  O1433   1.014   .     S
C1441  C1444   1.482   .     S
C1441  O1495   1.316   .     A
C1441  O1477   1.304   .     A
C1442  C1444   1.425   .     A
C1442  C1453   1.488   .     S
C1442  C1583   1.401   1_455 S
C1443  C1452   1.480   .     S
C1443  C1463   1.409   .     A
C1443  C1464   1.409   .     A
C1444  C1462   1.415   .     A
C1445  C1454   1.479   .     S
C1445  N1476   1.376   .     A
C1446  C1455   1.478   .     S
C1446  N1475   1.378   .     A
C1446  C1087   1.430   1_565 S
C1447  N1476   1.378   .     A
C1447  C1456   1.477   .     S
C1448  C1457   1.479   .     S
C1448  N1475   1.381   .     A
C1448  C1085   1.430   1_565 S
C1449  O1500   1.223   .     D
C1449  C1462   1.486   .     S
C1449  O1478   1.395   .     S
C1450  C1463   1.484   .     S
C1450  O1480   1.394   .     S
C1450  O1479   1.223   .     D
C1451  O1481   1.221   .     D
C1451  C1464   1.483   .     S
C1451  O1482   1.399   .     S
C1452  O1488   1.309   .     A
C1452  O1494   1.310   .     A
C1453  O1483   1.223   .     D
C1453  O1484   1.399   .     S
C1454  O1486   1.398   .     S
C1454  O1485   1.221   .     D
C1455  O1489   1.397   .     S
C1455  O1487   1.221   .     D
C1456  O1491   1.398   .     S
C1456  O1490   1.219   .     D
C1457  O1492   1.218   .     D
C1457  O1493   1.397   .     S
C1458  O1499   1.299   .     A
C1458  O1496   1.301   .     A
C1458  C1460   1.407   .     S
C1459  O1497   1.301   .     A
C1459  C1461   1.407   .     S
C1459  O1498   1.299   .     A
C1461  C380    1.189   1_556 S
C1462  C1584   1.401   1_455 S
C1463  C1502   1.401   .     S
C1464  C1522   1.401   .     S
Cu1465 O1496   1.929   .     S
Cu1465 Cu1466  2.719   .     S
Cu1465 N1475   2.043   .     S
Cu1465 O1498   1.927   .     S
Cu1465 O1494   1.969   .     S
Cu1465 O1477   1.982   .     S
Cu1466 O1488   1.982   .     S
Cu1466 O1495   1.969   .     S
Cu1466 N1476   2.043   .     S
Cu1466 O1497   1.929   .     S
Cu1466 O1499   1.927   .     S
H1467  O1478   1.014   .     S
H1468  O1480   1.011   .     S
H1469  O1482   1.010   .     S
H1470  O1484   1.012   .     S
H1471  O1486   1.014   .     S
H1472  O1489   1.014   .     S
H1473  O1491   1.014   .     S
H1474  O1493   1.014   .     S
C1501  C1504   1.482   .     S
C1501  O1555   1.316   .     A
C1501  O1537   1.304   .     A
C1502  C1504   1.425   .     A
C1502  C1513   1.488   .     S
C1503  C1512   1.480   .     S
C1503  C1523   1.409   .     A
C1503  C1524   1.409   .     A
C1504  C1522   1.415   .     A
C1505  C1514   1.479   .     S
C1505  N1536   1.376   .     A
C1506  C1515   1.478   .     S
C1506  N1535   1.378   .     A
C1506  C1147   1.430   1_565 S
C1507  N1536   1.378   .     A
C1507  C1516   1.477   .     S
C1508  C1517   1.479   .     S
C1508  N1535   1.381   .     A
C1508  C1145   1.430   1_565 S
C1509  O1560   1.223   .     D
C1509  C1522   1.486   .     S
C1509  O1538   1.395   .     S
C1510  C1523   1.484   .     S
C1510  O1540   1.394   .     S
C1510  O1539   1.223   .     D
C1511  O1541   1.221   .     D
C1511  C1524   1.483   .     S
C1511  O1542   1.399   .     S
C1512  O1548   1.309   .     A
C1512  O1554   1.310   .     A
C1513  O1543   1.223   .     D
C1513  O1544   1.399   .     S
C1514  O1546   1.398   .     S
C1514  O1545   1.221   .     D
C1515  O1549   1.397   .     S
C1515  O1547   1.221   .     D
C1516  O1551   1.398   .     S
C1516  O1550   1.219   .     D
C1517  O1552   1.218   .     D
C1517  O1553   1.397   .     S
C1518  O1559   1.299   .     A
C1518  O1556   1.301   .     A
C1518  C1520   1.407   .     S
C1519  O1557   1.301   .     A
C1519  C1521   1.407   .     S
C1519  O1558   1.299   .     A
C1521  C440    1.189   1_556 S
C1523  C1562   1.401   .     S
C1524  C1582   1.401   .     S
Cu1525 O1556   1.929   .     S
Cu1525 Cu1526  2.719   .     S
Cu1525 N1535   2.043   .     S
Cu1525 O1558   1.927   .     S
Cu1525 O1554   1.969   .     S
Cu1525 O1537   1.982   .     S
Cu1526 O1548   1.982   .     S
Cu1526 O1555   1.969   .     S
Cu1526 N1536   2.043   .     S
Cu1526 O1557   1.929   .     S
Cu1526 O1559   1.927   .     S
H1527  O1538   1.014   .     S
H1528  O1540   1.011   .     S
H1529  O1542   1.010   .     S
H1530  O1544   1.012   .     S
H1531  O1546   1.014   .     S
H1532  O1549   1.014   .     S
H1533  O1551   1.014   .     S
H1534  O1553   1.014   .     S
C1561  C1564   1.482   .     S
C1561  O1615   1.316   .     A
C1561  O1597   1.304   .     A
C1562  C1564   1.425   .     A
C1562  C1573   1.488   .     S
C1563  C1572   1.480   .     S
C1563  C1583   1.409   .     A
C1563  C1584   1.409   .     A
C1564  C1582   1.415   .     A
C1565  C1574   1.479   .     S
C1565  N1596   1.376   .     A
C1566  C1575   1.478   .     S
C1566  N1595   1.378   .     A
C1566  C1207   1.430   1_565 S
C1567  N1596   1.378   .     A
C1567  C1576   1.477   .     S
C1568  C1577   1.479   .     S
C1568  N1595   1.381   .     A
C1568  C1205   1.430   1_565 S
C1569  O1620   1.223   .     D
C1569  C1582   1.486   .     S
C1569  O1598   1.395   .     S
C1570  C1583   1.484   .     S
C1570  O1600   1.394   .     S
C1570  O1599   1.223   .     D
C1571  O1601   1.221   .     D
C1571  C1584   1.483   .     S
C1571  O1602   1.399   .     S
C1572  O1608   1.309   .     A
C1572  O1614   1.310   .     A
C1573  O1603   1.223   .     D
C1573  O1604   1.399   .     S
C1574  O1606   1.398   .     S
C1574  O1605   1.221   .     D
C1575  O1609   1.397   .     S
C1575  O1607   1.221   .     D
C1576  O1611   1.398   .     S
C1576  O1610   1.219   .     D
C1577  O1612   1.218   .     D
C1577  O1613   1.397   .     S
C1578  O1619   1.299   .     A
C1578  O1616   1.301   .     A
C1578  C1580   1.407   .     S
C1579  O1617   1.301   .     A
C1579  C1581   1.407   .     S
C1579  O1618   1.299   .     A
C1581  C500    1.189   1_556 S
C1583  C1442   1.401   1_655 S
C1584  C1462   1.401   1_655 S
Cu1585 O1616   1.929   .     S
Cu1585 Cu1586  2.719   .     S
Cu1585 N1595   2.043   .     S
Cu1585 O1618   1.927   .     S
Cu1585 O1614   1.969   .     S
Cu1585 O1597   1.982   .     S
Cu1586 O1608   1.982   .     S
Cu1586 O1615   1.969   .     S
Cu1586 N1596   2.043   .     S
Cu1586 O1617   1.929   .     S
Cu1586 O1619   1.927   .     S
H1587  O1598   1.014   .     S
H1588  O1600   1.011   .     S
H1589  O1602   1.010   .     S
H1590  O1604   1.012   .     S
H1591  O1606   1.014   .     S
H1592  O1609   1.014   .     S
H1593  O1611   1.014   .     S
H1594  O1613   1.014   .     S
