data_str_m3_o1_o16_pcu_sym.67
_audit_creation_date              2020-01-03
_audit_creation_method            'Materials Studio'
_symmetry_space_group_name_H-M    'P1'
_symmetry_Int_Tables_number       1
_symmetry_cell_setting            triclinic
loop_
_symmetry_equiv_pos_as_xyz
  x,y,z
_cell_length_a                    29.4898
_cell_length_b                    32.2020
_cell_length_c                    26.1064
_cell_angle_alpha                 90.4296
_cell_angle_beta                  69.2511
_cell_angle_gamma                 90.7716
loop_
_atom_site_label
_atom_site_type_symbol
_atom_site_fract_x
_atom_site_fract_y
_atom_site_fract_z
_atom_site_U_iso_or_equiv
_atom_site_adp_type
_atom_site_occupancy
C1     C     0.16722   0.24666   0.24890   0.00000  Uiso   1.00
C2     C     0.12108   0.16530   0.41271   0.00000  Uiso   1.00
C3     C     0.21005   0.31267   0.24140   0.00000  Uiso   1.00
C4     C     0.13945   0.16583   0.35264   0.00000  Uiso   1.00
C5     C     0.20921   0.02183   0.24211   0.00000  Uiso   1.00
C6     C     0.16582   0.04227   0.24883   0.00000  Uiso   1.00
C7     C     0.12279   0.02006   0.25449   0.00000  Uiso   1.00
C8     C     0.12473   0.31076   0.25177   0.00000  Uiso   1.00
C9     C     0.16757   0.29067   0.24730   0.00000  Uiso   1.00
C10    C     0.31896   0.13962   0.21767   0.00000  Uiso   1.00
C11    C     0.03448   0.14001   0.21642   0.00000  Uiso   1.00
C12    C     0.14427   0.16254   0.49299   0.00000  Uiso   1.00
C13    C     0.01407   0.19306   0.28329   0.00000  Uiso   1.00
C14    C     0.29911   0.19399   0.28274   0.00000  Uiso   1.00
C15    C     0.16634   0.08655   0.24978   0.00000  Uiso   1.00
C16    C     0.19381   0.16591   0.14761   0.00000  Uiso   1.00
C17    C     0.25209   0.11373   0.01200   0.00000  Uiso   1.00
C18    C     0.21137   0.15882   0.08884   0.00000  Uiso   1.00
C19    C     0.07789   0.18601   0.44314   0.00000  Uiso   1.00
C20    C     0.06661   0.19256   0.49939   0.00000  Uiso   1.00
C21    C     0.09999   0.18167   0.02372   0.00000  Uiso   1.00
C22    C     0.04411   0.03237   0.30907   0.00000  Uiso   1.00
C23    C     0.15075   0.14905   0.43960   0.00000  Uiso   1.00
C24    C     0.33168   0.05516   0.31236   0.00000  Uiso   1.00
C25    C     0.06800   0.10406   0.13334   0.00000  Uiso   1.00
C26    C     0.05090   0.05986   0.12842   0.00000  Uiso   1.00
C27    C     0.27941   0.25910   0.32570   0.00000  Uiso   1.00
C28    C     0.27958   0.26402   0.38373   0.00000  Uiso   1.00
C29    C     0.18857   0.24600   0.06552   0.00000  Uiso   1.00
C30    C     0.15945   0.28501   0.08755   0.00000  Uiso   1.00
C31    C     0.18141   0.15460   0.01425   0.00000  Uiso   1.00
C32    C     0.21809   0.12523   0.48773   0.00000  Uiso   1.00
C33    C     0.21934   0.10747   0.43823   0.00000  Uiso   1.00
C34    C     0.18676   0.11961   0.41414   0.00000  Uiso   1.00
C35    C     0.18397   0.17562   0.06041   0.00000  Uiso   1.00
C36    C     0.24699   0.12906   0.06414   0.00000  Uiso   1.00
H37    H     0.24263   0.03854   0.23726   0.00000  Uiso   1.00
H38    H     0.31263   0.11780   0.06941   0.00000  Uiso   1.00
H39    H     0.05600   0.04378   0.34277   0.00000  Uiso   1.00
H40    H     0.03461   0.33211   0.31519   0.00000  Uiso   1.00
H41    H     0.30141   0.04520   0.34966   0.00000  Uiso   1.00
H42    H     0.00402   0.08920   0.31438   0.00000  Uiso   1.00
H43    H     0.32181   0.04771   0.27599   0.00000  Uiso   1.00
H44    H     0.10590   0.10730   0.10432   0.00000  Uiso   1.00
H45    H     0.04644   0.12669   0.11964   0.00000  Uiso   1.00
H46    H     0.01334   0.05478   0.15751   0.00000  Uiso   1.00
H47    H     0.05167   0.05429   0.08609   0.00000  Uiso   1.00
H48    H     0.09248   0.29349   0.25335   0.00000  Uiso   1.00
H49    H     0.07517   0.03732   0.13758   0.00000  Uiso   1.00
H50    H     0.25291   0.28152   0.32108   0.00000  Uiso   1.00
H51    H     0.31514   0.26835   0.29482   0.00000  Uiso   1.00
H52    H     0.30404   0.24118   0.39165   0.00000  Uiso   1.00
H53    H     0.29201   0.29584   0.38944   0.00000  Uiso   1.00
H54    H     0.24237   0.25894   0.41380   0.00000  Uiso   1.00
H55    H     0.27456   0.05646   0.48092   0.00000  Uiso   1.00
H56    H     0.31158   0.09648   0.44791   0.00000  Uiso   1.00
H57    H     0.20522   0.24855   0.02010   0.00000  Uiso   1.00
H58    H     0.21776   0.24435   0.08326   0.00000  Uiso   1.00
H59    H     0.30718   0.11747   0.19358   0.00000  Uiso   1.00
H60    H     0.14276   0.28345   0.13290   0.00000  Uiso   1.00
H61    H     0.18361   0.31279   0.07612   0.00000  Uiso   1.00
H62    H     0.13036   0.28798   0.07006   0.00000  Uiso   1.00
H63    H     0.01201   0.18732   0.43548   0.00000  Uiso   1.00
H64    H     0.04282   0.23319   0.42305   0.00000  Uiso   1.00
H65    H     0.03061   0.23938   0.04810   0.00000  Uiso   1.00
H66    H     0.00332   0.19238   0.06366   0.00000  Uiso   1.00
H67    H     0.02493   0.21289   0.31055   0.00000  Uiso   1.00
H68    H     0.24578   0.08448   0.41722   0.00000  Uiso   1.00
H69    H     0.08936   0.18675   0.06726   0.00000  Uiso   1.00
H70    H     0.18919   0.10476   0.37592   0.00000  Uiso   1.00
H71    H     0.24383   0.29718   0.23589   0.00000  Uiso   1.00
H72    H     0.26980   0.08093   0.09788   0.00000  Uiso   1.00
N73    N     0.04760   0.16668   0.25002   0.00000  Uiso   1.00
N74    N     0.28573   0.16665   0.25001   0.00000  Uiso   1.00
N75    N     0.27611   0.11295   0.09317   0.00000  Uiso   1.00
N76    N     0.29010   0.08479   0.48621   0.00000  Uiso   1.00
N77    N     0.04619   0.20110   0.41678   0.00000  Uiso   1.00
N78    N     0.02209   0.21212   0.03127   0.00000  Uiso   1.00
O79    O     0.12846   0.22775   0.25001   0.00000  Uiso   1.00
O80    O     0.06823   0.11096   0.18688   0.00000  Uiso   1.00
O81    O     0.26315   0.21865   0.31848   0.00000  Uiso   1.00
O82    O     0.15731   0.21107   0.08047   0.00000  Uiso   1.00
O83    O     0.20490   0.22774   0.25001   0.00000  Uiso   1.00
O84    O     0.10947   0.16666   0.32681   0.00000  Uiso   1.00
O85    O     0.18591   0.16665   0.32681   0.00000  Uiso   1.00
O86    O     0.12843   0.10559   0.25000   0.00000  Uiso   1.00
O87    O     0.20488   0.10558   0.25000   0.00000  Uiso   1.00
O88    O     0.14742   0.16668   0.17319   0.00000  Uiso   1.00
O89    O     0.22387   0.16667   0.17319   0.00000  Uiso   1.00
O90    O     0.08045   0.03985   0.25743   0.00000  Uiso   1.00
Zn91   Zn    0.11562   0.16667   0.25000   0.00000  Uiso   1.00
Zn92   Zn    0.21771   0.16666   0.25000   0.00000  Uiso   1.00
C93    C     0.50055   0.24666   0.24890   0.00000  Uiso   1.00
C94    C     0.45441   0.16530   0.41271   0.00000  Uiso   1.00
C95    C     0.54338   0.31267   0.24140   0.00000  Uiso   1.00
C96    C     0.47278   0.16583   0.35264   0.00000  Uiso   1.00
C97    C     0.54255   0.02183   0.24211   0.00000  Uiso   1.00
C98    C     0.49915   0.04227   0.24883   0.00000  Uiso   1.00
C99    C     0.45612   0.02006   0.25449   0.00000  Uiso   1.00
C100   C     0.45806   0.31076   0.25177   0.00000  Uiso   1.00
C101   C     0.50090   0.29067   0.24730   0.00000  Uiso   1.00
C102   C     0.65229   0.13962   0.21767   0.00000  Uiso   1.00
C103   C     0.36781   0.14001   0.21642   0.00000  Uiso   1.00
C104   C     0.47760   0.16254   0.49299   0.00000  Uiso   1.00
C105   C     0.34740   0.19306   0.28329   0.00000  Uiso   1.00
C106   C     0.63244   0.19399   0.28274   0.00000  Uiso   1.00
C107   C     0.49967   0.08655   0.24978   0.00000  Uiso   1.00
C108   C     0.52715   0.16591   0.14761   0.00000  Uiso   1.00
C109   C     0.58543   0.11373   0.01200   0.00000  Uiso   1.00
C110   C     0.54470   0.15882   0.08884   0.00000  Uiso   1.00
C111   C     0.41122   0.18601   0.44314   0.00000  Uiso   1.00
C112   C     0.39994   0.19256   0.49939   0.00000  Uiso   1.00
C113   C     0.43332   0.18167   0.02372   0.00000  Uiso   1.00
C114   C     0.37744   0.03237   0.30907   0.00000  Uiso   1.00
C115   C     0.48409   0.14905   0.43960   0.00000  Uiso   1.00
C116   C     0.66502   0.05516   0.31236   0.00000  Uiso   1.00
C117   C     0.40134   0.10406   0.13334   0.00000  Uiso   1.00
C118   C     0.38423   0.05986   0.12842   0.00000  Uiso   1.00
C119   C     0.61274   0.25910   0.32570   0.00000  Uiso   1.00
C120   C     0.61291   0.26402   0.38373   0.00000  Uiso   1.00
C121   C     0.52191   0.24600   0.06552   0.00000  Uiso   1.00
C122   C     0.49278   0.28501   0.08755   0.00000  Uiso   1.00
C123   C     0.51474   0.15460   0.01425   0.00000  Uiso   1.00
C124   C     0.55142   0.12523   0.48773   0.00000  Uiso   1.00
C125   C     0.55267   0.10747   0.43823   0.00000  Uiso   1.00
C126   C     0.52009   0.11961   0.41414   0.00000  Uiso   1.00
C127   C     0.51730   0.17562   0.06041   0.00000  Uiso   1.00
C128   C     0.58032   0.12906   0.06414   0.00000  Uiso   1.00
H129   H     0.57596   0.03854   0.23726   0.00000  Uiso   1.00
H130   H     0.64597   0.11780   0.06941   0.00000  Uiso   1.00
H131   H     0.38933   0.04378   0.34277   0.00000  Uiso   1.00
H132   H     0.36794   0.33211   0.31519   0.00000  Uiso   1.00
H133   H     0.63475   0.04520   0.34966   0.00000  Uiso   1.00
H134   H     0.33736   0.08920   0.31438   0.00000  Uiso   1.00
H135   H     0.65514   0.04771   0.27599   0.00000  Uiso   1.00
H136   H     0.43924   0.10730   0.10432   0.00000  Uiso   1.00
H137   H     0.37977   0.12669   0.11964   0.00000  Uiso   1.00
H138   H     0.34668   0.05478   0.15751   0.00000  Uiso   1.00
H139   H     0.38501   0.05429   0.08609   0.00000  Uiso   1.00
H140   H     0.42581   0.29349   0.25335   0.00000  Uiso   1.00
H141   H     0.40850   0.03732   0.13758   0.00000  Uiso   1.00
H142   H     0.58624   0.28152   0.32108   0.00000  Uiso   1.00
H143   H     0.64847   0.26835   0.29482   0.00000  Uiso   1.00
H144   H     0.63737   0.24118   0.39165   0.00000  Uiso   1.00
H145   H     0.62534   0.29584   0.38944   0.00000  Uiso   1.00
H146   H     0.57570   0.25894   0.41380   0.00000  Uiso   1.00
H147   H     0.60790   0.05646   0.48092   0.00000  Uiso   1.00
H148   H     0.64491   0.09648   0.44791   0.00000  Uiso   1.00
H149   H     0.53855   0.24855   0.02010   0.00000  Uiso   1.00
H150   H     0.55109   0.24435   0.08326   0.00000  Uiso   1.00
H151   H     0.64051   0.11747   0.19358   0.00000  Uiso   1.00
H152   H     0.47609   0.28345   0.13290   0.00000  Uiso   1.00
H153   H     0.51694   0.31279   0.07612   0.00000  Uiso   1.00
H154   H     0.46369   0.28798   0.07006   0.00000  Uiso   1.00
H155   H     0.34534   0.18732   0.43548   0.00000  Uiso   1.00
H156   H     0.37615   0.23319   0.42305   0.00000  Uiso   1.00
H157   H     0.36395   0.23938   0.04810   0.00000  Uiso   1.00
H158   H     0.33665   0.19238   0.06366   0.00000  Uiso   1.00
H159   H     0.35827   0.21289   0.31055   0.00000  Uiso   1.00
H160   H     0.57912   0.08448   0.41722   0.00000  Uiso   1.00
H161   H     0.42270   0.18675   0.06726   0.00000  Uiso   1.00
H162   H     0.52252   0.10476   0.37592   0.00000  Uiso   1.00
H163   H     0.57717   0.29718   0.23589   0.00000  Uiso   1.00
H164   H     0.60313   0.08093   0.09788   0.00000  Uiso   1.00
N165   N     0.38093   0.16668   0.25002   0.00000  Uiso   1.00
N166   N     0.61906   0.16665   0.25001   0.00000  Uiso   1.00
N167   N     0.60944   0.11295   0.09317   0.00000  Uiso   1.00
N168   N     0.62343   0.08479   0.48621   0.00000  Uiso   1.00
N169   N     0.37953   0.20110   0.41678   0.00000  Uiso   1.00
N170   N     0.35543   0.21212   0.03127   0.00000  Uiso   1.00
O171   O     0.46179   0.22775   0.25001   0.00000  Uiso   1.00
O172   O     0.40157   0.11096   0.18688   0.00000  Uiso   1.00
O173   O     0.59648   0.21865   0.31848   0.00000  Uiso   1.00
O174   O     0.49064   0.21107   0.08047   0.00000  Uiso   1.00
O175   O     0.53823   0.22774   0.25001   0.00000  Uiso   1.00
O176   O     0.44280   0.16666   0.32681   0.00000  Uiso   1.00
O177   O     0.51924   0.16665   0.32681   0.00000  Uiso   1.00
O178   O     0.46177   0.10559   0.25000   0.00000  Uiso   1.00
O179   O     0.53821   0.10558   0.25000   0.00000  Uiso   1.00
O180   O     0.48076   0.16668   0.17319   0.00000  Uiso   1.00
O181   O     0.55720   0.16667   0.17319   0.00000  Uiso   1.00
O182   O     0.41378   0.03985   0.25743   0.00000  Uiso   1.00
Zn183  Zn    0.44896   0.16667   0.25000   0.00000  Uiso   1.00
Zn184  Zn    0.55104   0.16666   0.25000   0.00000  Uiso   1.00
C185   C     0.83388   0.24666   0.24890   0.00000  Uiso   1.00
C186   C     0.78774   0.16530   0.41271   0.00000  Uiso   1.00
C187   C     0.87672   0.31267   0.24140   0.00000  Uiso   1.00
C188   C     0.80612   0.16583   0.35264   0.00000  Uiso   1.00
C189   C     0.87588   0.02183   0.24211   0.00000  Uiso   1.00
C190   C     0.83248   0.04227   0.24883   0.00000  Uiso   1.00
C191   C     0.78945   0.02006   0.25449   0.00000  Uiso   1.00
C192   C     0.79140   0.31076   0.25177   0.00000  Uiso   1.00
C193   C     0.83423   0.29067   0.24730   0.00000  Uiso   1.00
C194   C     0.98563   0.13962   0.21767   0.00000  Uiso   1.00
C195   C     0.70114   0.14001   0.21642   0.00000  Uiso   1.00
C196   C     0.81094   0.16254   0.49299   0.00000  Uiso   1.00
C197   C     0.68074   0.19306   0.28329   0.00000  Uiso   1.00
C198   C     0.96577   0.19399   0.28274   0.00000  Uiso   1.00
C199   C     0.83301   0.08655   0.24978   0.00000  Uiso   1.00
C200   C     0.86048   0.16591   0.14761   0.00000  Uiso   1.00
C201   C     0.91876   0.11373   0.01200   0.00000  Uiso   1.00
C202   C     0.87803   0.15882   0.08884   0.00000  Uiso   1.00
C203   C     0.74455   0.18601   0.44314   0.00000  Uiso   1.00
C204   C     0.73327   0.19256   0.49939   0.00000  Uiso   1.00
C205   C     0.76666   0.18167   0.02372   0.00000  Uiso   1.00
C206   C     0.71078   0.03237   0.30907   0.00000  Uiso   1.00
C207   C     0.81742   0.14905   0.43960   0.00000  Uiso   1.00
C208   C     0.99835   0.05516   0.31236   0.00000  Uiso   1.00
C209   C     0.73467   0.10406   0.13334   0.00000  Uiso   1.00
C210   C     0.71756   0.05986   0.12842   0.00000  Uiso   1.00
C211   C     0.94608   0.25910   0.32570   0.00000  Uiso   1.00
C212   C     0.94624   0.26402   0.38373   0.00000  Uiso   1.00
C213   C     0.85524   0.24600   0.06552   0.00000  Uiso   1.00
C214   C     0.82612   0.28501   0.08755   0.00000  Uiso   1.00
C215   C     0.84808   0.15460   0.01425   0.00000  Uiso   1.00
C216   C     0.88476   0.12523   0.48773   0.00000  Uiso   1.00
C217   C     0.88601   0.10747   0.43823   0.00000  Uiso   1.00
C218   C     0.85342   0.11961   0.41414   0.00000  Uiso   1.00
C219   C     0.85063   0.17562   0.06041   0.00000  Uiso   1.00
C220   C     0.91366   0.12906   0.06414   0.00000  Uiso   1.00
H221   H     0.90929   0.03854   0.23726   0.00000  Uiso   1.00
H222   H     0.97930   0.11780   0.06941   0.00000  Uiso   1.00
H223   H     0.72266   0.04378   0.34277   0.00000  Uiso   1.00
H224   H     0.70128   0.33211   0.31519   0.00000  Uiso   1.00
H225   H     0.96808   0.04520   0.34966   0.00000  Uiso   1.00
H226   H     0.67069   0.08920   0.31438   0.00000  Uiso   1.00
H227   H     0.98847   0.04771   0.27599   0.00000  Uiso   1.00
H228   H     0.77257   0.10730   0.10432   0.00000  Uiso   1.00
H229   H     0.71311   0.12669   0.11964   0.00000  Uiso   1.00
H230   H     0.68001   0.05478   0.15751   0.00000  Uiso   1.00
H231   H     0.71834   0.05429   0.08609   0.00000  Uiso   1.00
H232   H     0.75915   0.29349   0.25335   0.00000  Uiso   1.00
H233   H     0.74184   0.03732   0.13758   0.00000  Uiso   1.00
H234   H     0.91957   0.28152   0.32108   0.00000  Uiso   1.00
H235   H     0.98181   0.26835   0.29482   0.00000  Uiso   1.00
H236   H     0.97070   0.24118   0.39165   0.00000  Uiso   1.00
H237   H     0.95867   0.29584   0.38944   0.00000  Uiso   1.00
H238   H     0.90904   0.25894   0.41380   0.00000  Uiso   1.00
H239   H     0.94123   0.05646   0.48092   0.00000  Uiso   1.00
H240   H     0.97825   0.09648   0.44791   0.00000  Uiso   1.00
H241   H     0.87189   0.24855   0.02010   0.00000  Uiso   1.00
H242   H     0.88442   0.24435   0.08326   0.00000  Uiso   1.00
H243   H     0.97385   0.11747   0.19358   0.00000  Uiso   1.00
H244   H     0.80943   0.28345   0.13290   0.00000  Uiso   1.00
H245   H     0.85028   0.31279   0.07612   0.00000  Uiso   1.00
H246   H     0.79703   0.28798   0.07006   0.00000  Uiso   1.00
H247   H     0.67868   0.18732   0.43548   0.00000  Uiso   1.00
H248   H     0.70948   0.23319   0.42305   0.00000  Uiso   1.00
H249   H     0.69728   0.23938   0.04810   0.00000  Uiso   1.00
H250   H     0.66999   0.19238   0.06366   0.00000  Uiso   1.00
H251   H     0.69160   0.21289   0.31055   0.00000  Uiso   1.00
H252   H     0.91245   0.08448   0.41722   0.00000  Uiso   1.00
H253   H     0.75603   0.18675   0.06726   0.00000  Uiso   1.00
H254   H     0.85585   0.10476   0.37592   0.00000  Uiso   1.00
H255   H     0.91050   0.29718   0.23589   0.00000  Uiso   1.00
H256   H     0.93647   0.08093   0.09788   0.00000  Uiso   1.00
N257   N     0.71426   0.16668   0.25002   0.00000  Uiso   1.00
N258   N     0.95239   0.16665   0.25001   0.00000  Uiso   1.00
N259   N     0.94277   0.11295   0.09317   0.00000  Uiso   1.00
N260   N     0.95677   0.08479   0.48621   0.00000  Uiso   1.00
N261   N     0.71286   0.20110   0.41678   0.00000  Uiso   1.00
N262   N     0.68876   0.21212   0.03127   0.00000  Uiso   1.00
O263   O     0.79512   0.22775   0.25001   0.00000  Uiso   1.00
O264   O     0.73490   0.11096   0.18688   0.00000  Uiso   1.00
O265   O     0.92982   0.21865   0.31848   0.00000  Uiso   1.00
O266   O     0.82397   0.21107   0.08047   0.00000  Uiso   1.00
O267   O     0.87157   0.22774   0.25001   0.00000  Uiso   1.00
O268   O     0.77613   0.16666   0.32681   0.00000  Uiso   1.00
O269   O     0.85258   0.16665   0.32681   0.00000  Uiso   1.00
O270   O     0.79510   0.10559   0.25000   0.00000  Uiso   1.00
O271   O     0.87154   0.10558   0.25000   0.00000  Uiso   1.00
O272   O     0.81409   0.16668   0.17319   0.00000  Uiso   1.00
O273   O     0.89053   0.16667   0.17319   0.00000  Uiso   1.00
O274   O     0.74711   0.03985   0.25743   0.00000  Uiso   1.00
Zn275  Zn    0.78229   0.16667   0.25000   0.00000  Uiso   1.00
Zn276  Zn    0.88438   0.16666   0.25000   0.00000  Uiso   1.00
C277   C     0.16722   0.57999   0.24890   0.00000  Uiso   1.00
C278   C     0.12108   0.49863   0.41271   0.00000  Uiso   1.00
C279   C     0.21005   0.64600   0.24140   0.00000  Uiso   1.00
C280   C     0.13945   0.49916   0.35264   0.00000  Uiso   1.00
C281   C     0.20921   0.35516   0.24211   0.00000  Uiso   1.00
C282   C     0.16582   0.37561   0.24883   0.00000  Uiso   1.00
C283   C     0.12279   0.35339   0.25449   0.00000  Uiso   1.00
C284   C     0.12473   0.64409   0.25177   0.00000  Uiso   1.00
C285   C     0.16757   0.62400   0.24730   0.00000  Uiso   1.00
C286   C     0.31896   0.47295   0.21767   0.00000  Uiso   1.00
C287   C     0.03448   0.47334   0.21642   0.00000  Uiso   1.00
C288   C     0.14427   0.49587   0.49299   0.00000  Uiso   1.00
C289   C     0.01407   0.52639   0.28329   0.00000  Uiso   1.00
C290   C     0.29911   0.52732   0.28274   0.00000  Uiso   1.00
C291   C     0.16634   0.41988   0.24978   0.00000  Uiso   1.00
C292   C     0.19381   0.49924   0.14761   0.00000  Uiso   1.00
C293   C     0.25209   0.44706   0.01200   0.00000  Uiso   1.00
C294   C     0.21137   0.49216   0.08884   0.00000  Uiso   1.00
C295   C     0.07789   0.51935   0.44314   0.00000  Uiso   1.00
C296   C     0.06661   0.52590   0.49939   0.00000  Uiso   1.00
C297   C     0.09999   0.51501   0.02372   0.00000  Uiso   1.00
C298   C     0.04411   0.36570   0.30907   0.00000  Uiso   1.00
C299   C     0.15075   0.48238   0.43960   0.00000  Uiso   1.00
C300   C     0.33168   0.38849   0.31236   0.00000  Uiso   1.00
C301   C     0.06800   0.43740   0.13334   0.00000  Uiso   1.00
C302   C     0.05090   0.39319   0.12842   0.00000  Uiso   1.00
C303   C     0.27941   0.59244   0.32570   0.00000  Uiso   1.00
C304   C     0.27958   0.59736   0.38373   0.00000  Uiso   1.00
C305   C     0.18857   0.57933   0.06552   0.00000  Uiso   1.00
C306   C     0.15945   0.61834   0.08755   0.00000  Uiso   1.00
C307   C     0.18141   0.48793   0.01425   0.00000  Uiso   1.00
C308   C     0.21809   0.45857   0.48773   0.00000  Uiso   1.00
C309   C     0.21934   0.44080   0.43823   0.00000  Uiso   1.00
C310   C     0.18676   0.45294   0.41414   0.00000  Uiso   1.00
C311   C     0.18397   0.50895   0.06041   0.00000  Uiso   1.00
C312   C     0.24699   0.46240   0.06414   0.00000  Uiso   1.00
H313   H     0.24263   0.37187   0.23726   0.00000  Uiso   1.00
H314   H     0.31263   0.45114   0.06941   0.00000  Uiso   1.00
H315   H     0.05600   0.37712   0.34277   0.00000  Uiso   1.00
H316   H     0.03461   0.66545   0.31519   0.00000  Uiso   1.00
H317   H     0.30141   0.37853   0.34966   0.00000  Uiso   1.00
H318   H     0.00402   0.42253   0.31438   0.00000  Uiso   1.00
H319   H     0.32181   0.38104   0.27599   0.00000  Uiso   1.00
H320   H     0.10590   0.44064   0.10432   0.00000  Uiso   1.00
H321   H     0.04644   0.46002   0.11964   0.00000  Uiso   1.00
H322   H     0.01334   0.38811   0.15751   0.00000  Uiso   1.00
H323   H     0.05167   0.38762   0.08609   0.00000  Uiso   1.00
H324   H     0.09248   0.62683   0.25335   0.00000  Uiso   1.00
H325   H     0.07517   0.37065   0.13758   0.00000  Uiso   1.00
H326   H     0.25291   0.61486   0.32108   0.00000  Uiso   1.00
H327   H     0.31514   0.60169   0.29482   0.00000  Uiso   1.00
H328   H     0.30404   0.57451   0.39165   0.00000  Uiso   1.00
H329   H     0.29201   0.62918   0.38944   0.00000  Uiso   1.00
H330   H     0.24237   0.59227   0.41380   0.00000  Uiso   1.00
H331   H     0.27456   0.38980   0.48092   0.00000  Uiso   1.00
H332   H     0.31158   0.42982   0.44791   0.00000  Uiso   1.00
H333   H     0.20522   0.58188   0.02010   0.00000  Uiso   1.00
H334   H     0.21776   0.57768   0.08326   0.00000  Uiso   1.00
H335   H     0.30718   0.45081   0.19358   0.00000  Uiso   1.00
H336   H     0.14276   0.61678   0.13290   0.00000  Uiso   1.00
H337   H     0.18361   0.64613   0.07612   0.00000  Uiso   1.00
H338   H     0.13036   0.62131   0.07006   0.00000  Uiso   1.00
H339   H     0.01201   0.52065   0.43548   0.00000  Uiso   1.00
H340   H     0.04282   0.56653   0.42305   0.00000  Uiso   1.00
H341   H     0.03061   0.57271   0.04810   0.00000  Uiso   1.00
H342   H     0.00332   0.52571   0.06366   0.00000  Uiso   1.00
H343   H     0.02493   0.54622   0.31055   0.00000  Uiso   1.00
H344   H     0.24578   0.41782   0.41722   0.00000  Uiso   1.00
H345   H     0.08936   0.52008   0.06726   0.00000  Uiso   1.00
H346   H     0.18919   0.43809   0.37592   0.00000  Uiso   1.00
H347   H     0.24383   0.63052   0.23589   0.00000  Uiso   1.00
H348   H     0.26980   0.41426   0.09788   0.00000  Uiso   1.00
N349   N     0.04760   0.50001   0.25002   0.00000  Uiso   1.00
N350   N     0.28573   0.49998   0.25001   0.00000  Uiso   1.00
N351   N     0.27611   0.44628   0.09317   0.00000  Uiso   1.00
N352   N     0.29010   0.41812   0.48621   0.00000  Uiso   1.00
N353   N     0.04619   0.53443   0.41678   0.00000  Uiso   1.00
N354   N     0.02209   0.54545   0.03127   0.00000  Uiso   1.00
O355   O     0.12846   0.56108   0.25001   0.00000  Uiso   1.00
O356   O     0.06823   0.44429   0.18688   0.00000  Uiso   1.00
O357   O     0.26315   0.55198   0.31848   0.00000  Uiso   1.00
O358   O     0.15731   0.54440   0.08047   0.00000  Uiso   1.00
O359   O     0.20490   0.56107   0.25001   0.00000  Uiso   1.00
O360   O     0.10947   0.50000   0.32681   0.00000  Uiso   1.00
O361   O     0.18591   0.49999   0.32681   0.00000  Uiso   1.00
O362   O     0.12843   0.43893   0.25000   0.00000  Uiso   1.00
O363   O     0.20488   0.43892   0.25000   0.00000  Uiso   1.00
O364   O     0.14742   0.50001   0.17319   0.00000  Uiso   1.00
O365   O     0.22387   0.50000   0.17319   0.00000  Uiso   1.00
O366   O     0.08045   0.37319   0.25743   0.00000  Uiso   1.00
Zn367  Zn    0.11562   0.50001   0.25000   0.00000  Uiso   1.00
Zn368  Zn    0.21771   0.49999   0.25000   0.00000  Uiso   1.00
C369   C     0.50055   0.57999   0.24890   0.00000  Uiso   1.00
C370   C     0.45441   0.49863   0.41271   0.00000  Uiso   1.00
C371   C     0.54338   0.64600   0.24140   0.00000  Uiso   1.00
C372   C     0.47278   0.49916   0.35264   0.00000  Uiso   1.00
C373   C     0.54255   0.35516   0.24211   0.00000  Uiso   1.00
C374   C     0.49915   0.37561   0.24883   0.00000  Uiso   1.00
C375   C     0.45612   0.35339   0.25449   0.00000  Uiso   1.00
C376   C     0.45806   0.64409   0.25177   0.00000  Uiso   1.00
C377   C     0.50090   0.62400   0.24730   0.00000  Uiso   1.00
C378   C     0.65229   0.47295   0.21767   0.00000  Uiso   1.00
C379   C     0.36781   0.47334   0.21642   0.00000  Uiso   1.00
C380   C     0.47760   0.49587   0.49299   0.00000  Uiso   1.00
C381   C     0.34740   0.52639   0.28329   0.00000  Uiso   1.00
C382   C     0.63244   0.52732   0.28274   0.00000  Uiso   1.00
C383   C     0.49967   0.41988   0.24978   0.00000  Uiso   1.00
C384   C     0.52715   0.49924   0.14761   0.00000  Uiso   1.00
C385   C     0.58543   0.44706   0.01200   0.00000  Uiso   1.00
C386   C     0.54470   0.49216   0.08884   0.00000  Uiso   1.00
C387   C     0.41122   0.51935   0.44314   0.00000  Uiso   1.00
C388   C     0.39994   0.52590   0.49939   0.00000  Uiso   1.00
C389   C     0.43332   0.51501   0.02372   0.00000  Uiso   1.00
C390   C     0.37744   0.36570   0.30907   0.00000  Uiso   1.00
C391   C     0.48409   0.48238   0.43960   0.00000  Uiso   1.00
C392   C     0.66502   0.38849   0.31236   0.00000  Uiso   1.00
C393   C     0.40134   0.43740   0.13334   0.00000  Uiso   1.00
C394   C     0.38423   0.39319   0.12842   0.00000  Uiso   1.00
C395   C     0.61274   0.59244   0.32570   0.00000  Uiso   1.00
C396   C     0.61291   0.59736   0.38373   0.00000  Uiso   1.00
C397   C     0.52191   0.57933   0.06552   0.00000  Uiso   1.00
C398   C     0.49278   0.61834   0.08755   0.00000  Uiso   1.00
C399   C     0.51474   0.48793   0.01425   0.00000  Uiso   1.00
C400   C     0.55142   0.45857   0.48773   0.00000  Uiso   1.00
C401   C     0.55267   0.44080   0.43823   0.00000  Uiso   1.00
C402   C     0.52009   0.45294   0.41414   0.00000  Uiso   1.00
C403   C     0.51730   0.50895   0.06041   0.00000  Uiso   1.00
C404   C     0.58032   0.46240   0.06414   0.00000  Uiso   1.00
H405   H     0.57596   0.37187   0.23726   0.00000  Uiso   1.00
H406   H     0.64597   0.45114   0.06941   0.00000  Uiso   1.00
H407   H     0.38933   0.37712   0.34277   0.00000  Uiso   1.00
H408   H     0.36794   0.66545   0.31519   0.00000  Uiso   1.00
H409   H     0.63475   0.37853   0.34966   0.00000  Uiso   1.00
H410   H     0.33736   0.42253   0.31438   0.00000  Uiso   1.00
H411   H     0.65514   0.38104   0.27599   0.00000  Uiso   1.00
H412   H     0.43924   0.44064   0.10432   0.00000  Uiso   1.00
H413   H     0.37977   0.46002   0.11964   0.00000  Uiso   1.00
H414   H     0.34668   0.38811   0.15751   0.00000  Uiso   1.00
H415   H     0.38501   0.38762   0.08609   0.00000  Uiso   1.00
H416   H     0.42581   0.62683   0.25335   0.00000  Uiso   1.00
H417   H     0.40850   0.37065   0.13758   0.00000  Uiso   1.00
H418   H     0.58624   0.61486   0.32108   0.00000  Uiso   1.00
H419   H     0.64847   0.60169   0.29482   0.00000  Uiso   1.00
H420   H     0.63737   0.57451   0.39165   0.00000  Uiso   1.00
H421   H     0.62534   0.62918   0.38944   0.00000  Uiso   1.00
H422   H     0.57570   0.59227   0.41380   0.00000  Uiso   1.00
H423   H     0.60790   0.38980   0.48092   0.00000  Uiso   1.00
H424   H     0.64491   0.42982   0.44791   0.00000  Uiso   1.00
H425   H     0.53855   0.58188   0.02010   0.00000  Uiso   1.00
H426   H     0.55109   0.57768   0.08326   0.00000  Uiso   1.00
H427   H     0.64051   0.45081   0.19358   0.00000  Uiso   1.00
H428   H     0.47609   0.61678   0.13290   0.00000  Uiso   1.00
H429   H     0.51694   0.64613   0.07612   0.00000  Uiso   1.00
H430   H     0.46369   0.62131   0.07006   0.00000  Uiso   1.00
H431   H     0.34534   0.52065   0.43548   0.00000  Uiso   1.00
H432   H     0.37615   0.56653   0.42305   0.00000  Uiso   1.00
H433   H     0.36395   0.57271   0.04810   0.00000  Uiso   1.00
H434   H     0.33665   0.52571   0.06366   0.00000  Uiso   1.00
H435   H     0.35827   0.54622   0.31055   0.00000  Uiso   1.00
H436   H     0.57912   0.41782   0.41722   0.00000  Uiso   1.00
H437   H     0.42270   0.52008   0.06726   0.00000  Uiso   1.00
H438   H     0.52252   0.43809   0.37592   0.00000  Uiso   1.00
H439   H     0.57717   0.63052   0.23589   0.00000  Uiso   1.00
H440   H     0.60313   0.41426   0.09788   0.00000  Uiso   1.00
N441   N     0.38093   0.50001   0.25002   0.00000  Uiso   1.00
N442   N     0.61906   0.49998   0.25001   0.00000  Uiso   1.00
N443   N     0.60944   0.44628   0.09317   0.00000  Uiso   1.00
N444   N     0.62343   0.41812   0.48621   0.00000  Uiso   1.00
N445   N     0.37953   0.53443   0.41678   0.00000  Uiso   1.00
N446   N     0.35543   0.54545   0.03127   0.00000  Uiso   1.00
O447   O     0.46179   0.56108   0.25001   0.00000  Uiso   1.00
O448   O     0.40157   0.44429   0.18688   0.00000  Uiso   1.00
O449   O     0.59648   0.55198   0.31848   0.00000  Uiso   1.00
O450   O     0.49064   0.54440   0.08047   0.00000  Uiso   1.00
O451   O     0.53823   0.56107   0.25001   0.00000  Uiso   1.00
O452   O     0.44280   0.50000   0.32681   0.00000  Uiso   1.00
O453   O     0.51924   0.49999   0.32681   0.00000  Uiso   1.00
O454   O     0.46177   0.43893   0.25000   0.00000  Uiso   1.00
O455   O     0.53821   0.43892   0.25000   0.00000  Uiso   1.00
O456   O     0.48076   0.50001   0.17319   0.00000  Uiso   1.00
O457   O     0.55720   0.50000   0.17319   0.00000  Uiso   1.00
O458   O     0.41378   0.37319   0.25743   0.00000  Uiso   1.00
Zn459  Zn    0.44896   0.50001   0.25000   0.00000  Uiso   1.00
Zn460  Zn    0.55104   0.49999   0.25000   0.00000  Uiso   1.00
C461   C     0.83388   0.57999   0.24890   0.00000  Uiso   1.00
C462   C     0.78774   0.49863   0.41271   0.00000  Uiso   1.00
C463   C     0.87672   0.64600   0.24140   0.00000  Uiso   1.00
C464   C     0.80612   0.49916   0.35264   0.00000  Uiso   1.00
C465   C     0.87588   0.35516   0.24211   0.00000  Uiso   1.00
C466   C     0.83248   0.37561   0.24883   0.00000  Uiso   1.00
C467   C     0.78945   0.35339   0.25449   0.00000  Uiso   1.00
C468   C     0.79140   0.64409   0.25177   0.00000  Uiso   1.00
C469   C     0.83423   0.62400   0.24730   0.00000  Uiso   1.00
C470   C     0.98563   0.47295   0.21767   0.00000  Uiso   1.00
C471   C     0.70114   0.47334   0.21642   0.00000  Uiso   1.00
C472   C     0.81094   0.49587   0.49299   0.00000  Uiso   1.00
C473   C     0.68074   0.52639   0.28329   0.00000  Uiso   1.00
C474   C     0.96577   0.52732   0.28274   0.00000  Uiso   1.00
C475   C     0.83301   0.41988   0.24978   0.00000  Uiso   1.00
C476   C     0.86048   0.49924   0.14761   0.00000  Uiso   1.00
C477   C     0.91876   0.44706   0.01200   0.00000  Uiso   1.00
C478   C     0.87803   0.49216   0.08884   0.00000  Uiso   1.00
C479   C     0.74455   0.51935   0.44314   0.00000  Uiso   1.00
C480   C     0.73327   0.52590   0.49939   0.00000  Uiso   1.00
C481   C     0.76666   0.51501   0.02372   0.00000  Uiso   1.00
C482   C     0.71078   0.36570   0.30907   0.00000  Uiso   1.00
C483   C     0.81742   0.48238   0.43960   0.00000  Uiso   1.00
C484   C     0.99835   0.38849   0.31236   0.00000  Uiso   1.00
C485   C     0.73467   0.43740   0.13334   0.00000  Uiso   1.00
C486   C     0.71756   0.39319   0.12842   0.00000  Uiso   1.00
C487   C     0.94608   0.59244   0.32570   0.00000  Uiso   1.00
C488   C     0.94624   0.59736   0.38373   0.00000  Uiso   1.00
C489   C     0.85524   0.57933   0.06552   0.00000  Uiso   1.00
C490   C     0.82612   0.61834   0.08755   0.00000  Uiso   1.00
C491   C     0.84808   0.48793   0.01425   0.00000  Uiso   1.00
C492   C     0.88476   0.45857   0.48773   0.00000  Uiso   1.00
C493   C     0.88601   0.44080   0.43823   0.00000  Uiso   1.00
C494   C     0.85342   0.45294   0.41414   0.00000  Uiso   1.00
C495   C     0.85063   0.50895   0.06041   0.00000  Uiso   1.00
C496   C     0.91366   0.46240   0.06414   0.00000  Uiso   1.00
H497   H     0.90929   0.37187   0.23726   0.00000  Uiso   1.00
H498   H     0.97930   0.45114   0.06941   0.00000  Uiso   1.00
H499   H     0.72266   0.37712   0.34277   0.00000  Uiso   1.00
H500   H     0.70128   0.66545   0.31519   0.00000  Uiso   1.00
H501   H     0.96808   0.37853   0.34966   0.00000  Uiso   1.00
H502   H     0.67069   0.42253   0.31438   0.00000  Uiso   1.00
H503   H     0.98847   0.38104   0.27599   0.00000  Uiso   1.00
H504   H     0.77257   0.44064   0.10432   0.00000  Uiso   1.00
H505   H     0.71311   0.46002   0.11964   0.00000  Uiso   1.00
H506   H     0.68001   0.38811   0.15751   0.00000  Uiso   1.00
H507   H     0.71834   0.38762   0.08609   0.00000  Uiso   1.00
H508   H     0.75915   0.62683   0.25335   0.00000  Uiso   1.00
H509   H     0.74184   0.37065   0.13758   0.00000  Uiso   1.00
H510   H     0.91957   0.61486   0.32108   0.00000  Uiso   1.00
H511   H     0.98181   0.60169   0.29482   0.00000  Uiso   1.00
H512   H     0.97070   0.57451   0.39165   0.00000  Uiso   1.00
H513   H     0.95867   0.62918   0.38944   0.00000  Uiso   1.00
H514   H     0.90904   0.59227   0.41380   0.00000  Uiso   1.00
H515   H     0.94123   0.38980   0.48092   0.00000  Uiso   1.00
H516   H     0.97825   0.42982   0.44791   0.00000  Uiso   1.00
H517   H     0.87189   0.58188   0.02010   0.00000  Uiso   1.00
H518   H     0.88442   0.57768   0.08326   0.00000  Uiso   1.00
H519   H     0.97385   0.45081   0.19358   0.00000  Uiso   1.00
H520   H     0.80943   0.61678   0.13290   0.00000  Uiso   1.00
H521   H     0.85028   0.64613   0.07612   0.00000  Uiso   1.00
H522   H     0.79703   0.62131   0.07006   0.00000  Uiso   1.00
H523   H     0.67868   0.52065   0.43548   0.00000  Uiso   1.00
H524   H     0.70948   0.56653   0.42305   0.00000  Uiso   1.00
H525   H     0.69728   0.57271   0.04810   0.00000  Uiso   1.00
H526   H     0.66999   0.52571   0.06366   0.00000  Uiso   1.00
H527   H     0.69160   0.54622   0.31055   0.00000  Uiso   1.00
H528   H     0.91245   0.41782   0.41722   0.00000  Uiso   1.00
H529   H     0.75603   0.52008   0.06726   0.00000  Uiso   1.00
H530   H     0.85585   0.43809   0.37592   0.00000  Uiso   1.00
H531   H     0.91050   0.63052   0.23589   0.00000  Uiso   1.00
H532   H     0.93647   0.41426   0.09788   0.00000  Uiso   1.00
N533   N     0.71426   0.50001   0.25002   0.00000  Uiso   1.00
N534   N     0.95239   0.49998   0.25001   0.00000  Uiso   1.00
N535   N     0.94277   0.44628   0.09317   0.00000  Uiso   1.00
N536   N     0.95677   0.41812   0.48621   0.00000  Uiso   1.00
N537   N     0.71286   0.53443   0.41678   0.00000  Uiso   1.00
N538   N     0.68876   0.54545   0.03127   0.00000  Uiso   1.00
O539   O     0.79512   0.56108   0.25001   0.00000  Uiso   1.00
O540   O     0.73490   0.44429   0.18688   0.00000  Uiso   1.00
O541   O     0.92982   0.55198   0.31848   0.00000  Uiso   1.00
O542   O     0.82397   0.54440   0.08047   0.00000  Uiso   1.00
O543   O     0.87157   0.56107   0.25001   0.00000  Uiso   1.00
O544   O     0.77613   0.50000   0.32681   0.00000  Uiso   1.00
O545   O     0.85258   0.49999   0.32681   0.00000  Uiso   1.00
O546   O     0.79510   0.43893   0.25000   0.00000  Uiso   1.00
O547   O     0.87154   0.43892   0.25000   0.00000  Uiso   1.00
O548   O     0.81409   0.50001   0.17319   0.00000  Uiso   1.00
O549   O     0.89053   0.50000   0.17319   0.00000  Uiso   1.00
O550   O     0.74711   0.37319   0.25743   0.00000  Uiso   1.00
Zn551  Zn    0.78229   0.50001   0.25000   0.00000  Uiso   1.00
Zn552  Zn    0.88438   0.49999   0.25000   0.00000  Uiso   1.00
C553   C     0.16722   0.91332   0.24890   0.00000  Uiso   1.00
C554   C     0.12108   0.83197   0.41271   0.00000  Uiso   1.00
C555   C     0.21005   0.97934   0.24140   0.00000  Uiso   1.00
C556   C     0.13945   0.83249   0.35264   0.00000  Uiso   1.00
C557   C     0.20921   0.68850   0.24211   0.00000  Uiso   1.00
C558   C     0.16582   0.70894   0.24883   0.00000  Uiso   1.00
C559   C     0.12279   0.68672   0.25449   0.00000  Uiso   1.00
C560   C     0.12473   0.97743   0.25177   0.00000  Uiso   1.00
C561   C     0.16757   0.95734   0.24730   0.00000  Uiso   1.00
C562   C     0.31896   0.80628   0.21767   0.00000  Uiso   1.00
C563   C     0.03448   0.80667   0.21642   0.00000  Uiso   1.00
C564   C     0.14427   0.82920   0.49299   0.00000  Uiso   1.00
C565   C     0.01407   0.85973   0.28329   0.00000  Uiso   1.00
C566   C     0.29911   0.86066   0.28274   0.00000  Uiso   1.00
C567   C     0.16634   0.75321   0.24978   0.00000  Uiso   1.00
C568   C     0.19381   0.83258   0.14761   0.00000  Uiso   1.00
C569   C     0.25209   0.78039   0.01200   0.00000  Uiso   1.00
C570   C     0.21137   0.82549   0.08884   0.00000  Uiso   1.00
C571   C     0.07789   0.85268   0.44314   0.00000  Uiso   1.00
C572   C     0.06661   0.85923   0.49939   0.00000  Uiso   1.00
C573   C     0.09999   0.84834   0.02372   0.00000  Uiso   1.00
C574   C     0.04411   0.69904   0.30907   0.00000  Uiso   1.00
C575   C     0.15075   0.81571   0.43960   0.00000  Uiso   1.00
C576   C     0.33168   0.72183   0.31236   0.00000  Uiso   1.00
C577   C     0.06800   0.77073   0.13334   0.00000  Uiso   1.00
C578   C     0.05090   0.72652   0.12842   0.00000  Uiso   1.00
C579   C     0.27941   0.92577   0.32570   0.00000  Uiso   1.00
C580   C     0.27958   0.93069   0.38373   0.00000  Uiso   1.00
C581   C     0.18857   0.91267   0.06552   0.00000  Uiso   1.00
C582   C     0.15945   0.95167   0.08755   0.00000  Uiso   1.00
C583   C     0.18141   0.82127   0.01425   0.00000  Uiso   1.00
C584   C     0.21809   0.79190   0.48773   0.00000  Uiso   1.00
C585   C     0.21934   0.77414   0.43823   0.00000  Uiso   1.00
C586   C     0.18676   0.78628   0.41414   0.00000  Uiso   1.00
C587   C     0.18397   0.84228   0.06041   0.00000  Uiso   1.00
C588   C     0.24699   0.79573   0.06414   0.00000  Uiso   1.00
H589   H     0.24263   0.70520   0.23726   0.00000  Uiso   1.00
H590   H     0.31263   0.78447   0.06941   0.00000  Uiso   1.00
H591   H     0.05600   0.71045   0.34277   0.00000  Uiso   1.00
H592   H     0.03461   0.99878   0.31519   0.00000  Uiso   1.00
H593   H     0.30141   0.71186   0.34966   0.00000  Uiso   1.00
H594   H     0.00402   0.75586   0.31438   0.00000  Uiso   1.00
H595   H     0.32181   0.71438   0.27599   0.00000  Uiso   1.00
H596   H     0.10590   0.77397   0.10432   0.00000  Uiso   1.00
H597   H     0.04644   0.79335   0.11964   0.00000  Uiso   1.00
H598   H     0.01334   0.72144   0.15751   0.00000  Uiso   1.00
H599   H     0.05167   0.72095   0.08609   0.00000  Uiso   1.00
H600   H     0.09248   0.96016   0.25335   0.00000  Uiso   1.00
H601   H     0.07517   0.70399   0.13758   0.00000  Uiso   1.00
H602   H     0.25291   0.94819   0.32108   0.00000  Uiso   1.00
H603   H     0.31514   0.93502   0.29482   0.00000  Uiso   1.00
H604   H     0.30404   0.90784   0.39165   0.00000  Uiso   1.00
H605   H     0.29201   0.96251   0.38944   0.00000  Uiso   1.00
H606   H     0.24237   0.92561   0.41380   0.00000  Uiso   1.00
H607   H     0.27456   0.72313   0.48092   0.00000  Uiso   1.00
H608   H     0.31158   0.76315   0.44791   0.00000  Uiso   1.00
H609   H     0.20522   0.91521   0.02010   0.00000  Uiso   1.00
H610   H     0.21776   0.91101   0.08326   0.00000  Uiso   1.00
H611   H     0.30718   0.78414   0.19358   0.00000  Uiso   1.00
H612   H     0.14276   0.95012   0.13290   0.00000  Uiso   1.00
H613   H     0.18361   0.97946   0.07612   0.00000  Uiso   1.00
H614   H     0.13036   0.95465   0.07006   0.00000  Uiso   1.00
H615   H     0.01201   0.85399   0.43548   0.00000  Uiso   1.00
H616   H     0.04282   0.89986   0.42305   0.00000  Uiso   1.00
H617   H     0.03061   0.90605   0.04810   0.00000  Uiso   1.00
H618   H     0.00332   0.85905   0.06366   0.00000  Uiso   1.00
H619   H     0.02493   0.87956   0.31055   0.00000  Uiso   1.00
H620   H     0.24578   0.75115   0.41722   0.00000  Uiso   1.00
H621   H     0.08936   0.85341   0.06726   0.00000  Uiso   1.00
H622   H     0.18919   0.77143   0.37592   0.00000  Uiso   1.00
H623   H     0.24383   0.96385   0.23589   0.00000  Uiso   1.00
H624   H     0.26980   0.74760   0.09788   0.00000  Uiso   1.00
N625   N     0.04760   0.83334   0.25002   0.00000  Uiso   1.00
N626   N     0.28573   0.83331   0.25001   0.00000  Uiso   1.00
N627   N     0.27611   0.77962   0.09317   0.00000  Uiso   1.00
N628   N     0.29010   0.75146   0.48621   0.00000  Uiso   1.00
N629   N     0.04619   0.86777   0.41678   0.00000  Uiso   1.00
N630   N     0.02209   0.87879   0.03127   0.00000  Uiso   1.00
O631   O     0.12846   0.89442   0.25001   0.00000  Uiso   1.00
O632   O     0.06823   0.77763   0.18688   0.00000  Uiso   1.00
O633   O     0.26315   0.88531   0.31848   0.00000  Uiso   1.00
O634   O     0.15731   0.87774   0.08047   0.00000  Uiso   1.00
O635   O     0.20490   0.89441   0.25001   0.00000  Uiso   1.00
O636   O     0.10947   0.83333   0.32681   0.00000  Uiso   1.00
O637   O     0.18591   0.83332   0.32681   0.00000  Uiso   1.00
O638   O     0.12843   0.77226   0.25000   0.00000  Uiso   1.00
O639   O     0.20488   0.77225   0.25000   0.00000  Uiso   1.00
O640   O     0.14742   0.83335   0.17319   0.00000  Uiso   1.00
O641   O     0.22387   0.83334   0.17319   0.00000  Uiso   1.00
O642   O     0.08045   0.70652   0.25743   0.00000  Uiso   1.00
Zn643  Zn    0.11562   0.83334   0.25000   0.00000  Uiso   1.00
Zn644  Zn    0.21771   0.83333   0.25000   0.00000  Uiso   1.00
C645   C     0.50055   0.91332   0.24890   0.00000  Uiso   1.00
C646   C     0.45441   0.83197   0.41271   0.00000  Uiso   1.00
C647   C     0.54338   0.97934   0.24140   0.00000  Uiso   1.00
C648   C     0.47278   0.83249   0.35264   0.00000  Uiso   1.00
C649   C     0.54255   0.68850   0.24211   0.00000  Uiso   1.00
C650   C     0.49915   0.70894   0.24883   0.00000  Uiso   1.00
C651   C     0.45612   0.68672   0.25449   0.00000  Uiso   1.00
C652   C     0.45806   0.97743   0.25177   0.00000  Uiso   1.00
C653   C     0.50090   0.95734   0.24730   0.00000  Uiso   1.00
C654   C     0.65229   0.80628   0.21767   0.00000  Uiso   1.00
C655   C     0.36781   0.80667   0.21642   0.00000  Uiso   1.00
C656   C     0.47760   0.82920   0.49299   0.00000  Uiso   1.00
C657   C     0.34740   0.85973   0.28329   0.00000  Uiso   1.00
C658   C     0.63244   0.86066   0.28274   0.00000  Uiso   1.00
C659   C     0.49967   0.75321   0.24978   0.00000  Uiso   1.00
C660   C     0.52715   0.83258   0.14761   0.00000  Uiso   1.00
C661   C     0.58543   0.78039   0.01200   0.00000  Uiso   1.00
C662   C     0.54470   0.82549   0.08884   0.00000  Uiso   1.00
C663   C     0.41122   0.85268   0.44314   0.00000  Uiso   1.00
C664   C     0.39994   0.85923   0.49939   0.00000  Uiso   1.00
C665   C     0.43332   0.84834   0.02372   0.00000  Uiso   1.00
C666   C     0.37744   0.69904   0.30907   0.00000  Uiso   1.00
C667   C     0.48409   0.81571   0.43960   0.00000  Uiso   1.00
C668   C     0.66502   0.72183   0.31236   0.00000  Uiso   1.00
C669   C     0.40134   0.77073   0.13334   0.00000  Uiso   1.00
C670   C     0.38423   0.72652   0.12842   0.00000  Uiso   1.00
C671   C     0.61274   0.92577   0.32570   0.00000  Uiso   1.00
C672   C     0.61291   0.93069   0.38373   0.00000  Uiso   1.00
C673   C     0.52191   0.91267   0.06552   0.00000  Uiso   1.00
C674   C     0.49278   0.95167   0.08755   0.00000  Uiso   1.00
C675   C     0.51474   0.82127   0.01425   0.00000  Uiso   1.00
C676   C     0.55142   0.79190   0.48773   0.00000  Uiso   1.00
C677   C     0.55267   0.77414   0.43823   0.00000  Uiso   1.00
C678   C     0.52009   0.78628   0.41414   0.00000  Uiso   1.00
C679   C     0.51730   0.84228   0.06041   0.00000  Uiso   1.00
C680   C     0.58032   0.79573   0.06414   0.00000  Uiso   1.00
H681   H     0.57596   0.70520   0.23726   0.00000  Uiso   1.00
H682   H     0.64597   0.78447   0.06941   0.00000  Uiso   1.00
H683   H     0.38933   0.71045   0.34277   0.00000  Uiso   1.00
H684   H     0.36794   0.99878   0.31519   0.00000  Uiso   1.00
H685   H     0.63475   0.71186   0.34966   0.00000  Uiso   1.00
H686   H     0.33736   0.75586   0.31438   0.00000  Uiso   1.00
H687   H     0.65514   0.71438   0.27599   0.00000  Uiso   1.00
H688   H     0.43924   0.77397   0.10432   0.00000  Uiso   1.00
H689   H     0.37977   0.79335   0.11964   0.00000  Uiso   1.00
H690   H     0.34668   0.72144   0.15751   0.00000  Uiso   1.00
H691   H     0.38501   0.72095   0.08609   0.00000  Uiso   1.00
H692   H     0.42581   0.96016   0.25335   0.00000  Uiso   1.00
H693   H     0.40850   0.70399   0.13758   0.00000  Uiso   1.00
H694   H     0.58624   0.94819   0.32108   0.00000  Uiso   1.00
H695   H     0.64847   0.93502   0.29482   0.00000  Uiso   1.00
H696   H     0.63737   0.90784   0.39165   0.00000  Uiso   1.00
H697   H     0.62534   0.96251   0.38944   0.00000  Uiso   1.00
H698   H     0.57570   0.92561   0.41380   0.00000  Uiso   1.00
H699   H     0.60790   0.72313   0.48092   0.00000  Uiso   1.00
H700   H     0.64491   0.76315   0.44791   0.00000  Uiso   1.00
H701   H     0.53855   0.91521   0.02010   0.00000  Uiso   1.00
H702   H     0.55109   0.91101   0.08326   0.00000  Uiso   1.00
H703   H     0.64051   0.78414   0.19358   0.00000  Uiso   1.00
H704   H     0.47609   0.95012   0.13290   0.00000  Uiso   1.00
H705   H     0.51694   0.97946   0.07612   0.00000  Uiso   1.00
H706   H     0.46369   0.95465   0.07006   0.00000  Uiso   1.00
H707   H     0.34534   0.85399   0.43548   0.00000  Uiso   1.00
H708   H     0.37615   0.89986   0.42305   0.00000  Uiso   1.00
H709   H     0.36395   0.90605   0.04810   0.00000  Uiso   1.00
H710   H     0.33665   0.85905   0.06366   0.00000  Uiso   1.00
H711   H     0.35827   0.87956   0.31055   0.00000  Uiso   1.00
H712   H     0.57912   0.75115   0.41722   0.00000  Uiso   1.00
H713   H     0.42270   0.85341   0.06726   0.00000  Uiso   1.00
H714   H     0.52252   0.77143   0.37592   0.00000  Uiso   1.00
H715   H     0.57717   0.96385   0.23589   0.00000  Uiso   1.00
H716   H     0.60313   0.74760   0.09788   0.00000  Uiso   1.00
N717   N     0.38093   0.83334   0.25002   0.00000  Uiso   1.00
N718   N     0.61906   0.83331   0.25001   0.00000  Uiso   1.00
N719   N     0.60944   0.77962   0.09317   0.00000  Uiso   1.00
N720   N     0.62343   0.75146   0.48621   0.00000  Uiso   1.00
N721   N     0.37953   0.86777   0.41678   0.00000  Uiso   1.00
N722   N     0.35543   0.87879   0.03127   0.00000  Uiso   1.00
O723   O     0.46179   0.89442   0.25001   0.00000  Uiso   1.00
O724   O     0.40157   0.77763   0.18688   0.00000  Uiso   1.00
O725   O     0.59648   0.88531   0.31848   0.00000  Uiso   1.00
O726   O     0.49064   0.87774   0.08047   0.00000  Uiso   1.00
O727   O     0.53823   0.89441   0.25001   0.00000  Uiso   1.00
O728   O     0.44280   0.83333   0.32681   0.00000  Uiso   1.00
O729   O     0.51924   0.83332   0.32681   0.00000  Uiso   1.00
O730   O     0.46177   0.77226   0.25000   0.00000  Uiso   1.00
O731   O     0.53821   0.77225   0.25000   0.00000  Uiso   1.00
O732   O     0.48076   0.83335   0.17319   0.00000  Uiso   1.00
O733   O     0.55720   0.83334   0.17319   0.00000  Uiso   1.00
O734   O     0.41378   0.70652   0.25743   0.00000  Uiso   1.00
Zn735  Zn    0.44896   0.83334   0.25000   0.00000  Uiso   1.00
Zn736  Zn    0.55104   0.83333   0.25000   0.00000  Uiso   1.00
C737   C     0.83388   0.91332   0.24890   0.00000  Uiso   1.00
C738   C     0.78774   0.83197   0.41271   0.00000  Uiso   1.00
C739   C     0.87672   0.97934   0.24140   0.00000  Uiso   1.00
C740   C     0.80612   0.83249   0.35264   0.00000  Uiso   1.00
C741   C     0.87588   0.68850   0.24211   0.00000  Uiso   1.00
C742   C     0.83248   0.70894   0.24883   0.00000  Uiso   1.00
C743   C     0.78945   0.68672   0.25449   0.00000  Uiso   1.00
C744   C     0.79140   0.97743   0.25177   0.00000  Uiso   1.00
C745   C     0.83423   0.95734   0.24730   0.00000  Uiso   1.00
C746   C     0.98563   0.80628   0.21767   0.00000  Uiso   1.00
C747   C     0.70114   0.80667   0.21642   0.00000  Uiso   1.00
C748   C     0.81094   0.82920   0.49299   0.00000  Uiso   1.00
C749   C     0.68074   0.85973   0.28329   0.00000  Uiso   1.00
C750   C     0.96577   0.86066   0.28274   0.00000  Uiso   1.00
C751   C     0.83301   0.75321   0.24978   0.00000  Uiso   1.00
C752   C     0.86048   0.83258   0.14761   0.00000  Uiso   1.00
C753   C     0.91876   0.78039   0.01200   0.00000  Uiso   1.00
C754   C     0.87803   0.82549   0.08884   0.00000  Uiso   1.00
C755   C     0.74455   0.85268   0.44314   0.00000  Uiso   1.00
C756   C     0.73327   0.85923   0.49939   0.00000  Uiso   1.00
C757   C     0.76666   0.84834   0.02372   0.00000  Uiso   1.00
C758   C     0.71078   0.69904   0.30907   0.00000  Uiso   1.00
C759   C     0.81742   0.81571   0.43960   0.00000  Uiso   1.00
C760   C     0.99835   0.72183   0.31236   0.00000  Uiso   1.00
C761   C     0.73467   0.77073   0.13334   0.00000  Uiso   1.00
C762   C     0.71756   0.72652   0.12842   0.00000  Uiso   1.00
C763   C     0.94608   0.92577   0.32570   0.00000  Uiso   1.00
C764   C     0.94624   0.93069   0.38373   0.00000  Uiso   1.00
C765   C     0.85524   0.91267   0.06552   0.00000  Uiso   1.00
C766   C     0.82612   0.95167   0.08755   0.00000  Uiso   1.00
C767   C     0.84808   0.82127   0.01425   0.00000  Uiso   1.00
C768   C     0.88476   0.79190   0.48773   0.00000  Uiso   1.00
C769   C     0.88601   0.77414   0.43823   0.00000  Uiso   1.00
C770   C     0.85342   0.78628   0.41414   0.00000  Uiso   1.00
C771   C     0.85063   0.84228   0.06041   0.00000  Uiso   1.00
C772   C     0.91366   0.79573   0.06414   0.00000  Uiso   1.00
H773   H     0.90929   0.70520   0.23726   0.00000  Uiso   1.00
H774   H     0.97930   0.78447   0.06941   0.00000  Uiso   1.00
H775   H     0.72266   0.71045   0.34277   0.00000  Uiso   1.00
H776   H     0.70128   0.99878   0.31519   0.00000  Uiso   1.00
H777   H     0.96808   0.71186   0.34966   0.00000  Uiso   1.00
H778   H     0.67069   0.75586   0.31438   0.00000  Uiso   1.00
H779   H     0.98847   0.71438   0.27599   0.00000  Uiso   1.00
H780   H     0.77257   0.77397   0.10432   0.00000  Uiso   1.00
H781   H     0.71311   0.79335   0.11964   0.00000  Uiso   1.00
H782   H     0.68001   0.72144   0.15751   0.00000  Uiso   1.00
H783   H     0.71834   0.72095   0.08609   0.00000  Uiso   1.00
H784   H     0.75915   0.96016   0.25335   0.00000  Uiso   1.00
H785   H     0.74184   0.70399   0.13758   0.00000  Uiso   1.00
H786   H     0.91957   0.94819   0.32108   0.00000  Uiso   1.00
H787   H     0.98181   0.93502   0.29482   0.00000  Uiso   1.00
H788   H     0.97070   0.90784   0.39165   0.00000  Uiso   1.00
H789   H     0.95867   0.96251   0.38944   0.00000  Uiso   1.00
H790   H     0.90904   0.92561   0.41380   0.00000  Uiso   1.00
H791   H     0.94123   0.72313   0.48092   0.00000  Uiso   1.00
H792   H     0.97825   0.76315   0.44791   0.00000  Uiso   1.00
H793   H     0.87189   0.91521   0.02010   0.00000  Uiso   1.00
H794   H     0.88442   0.91101   0.08326   0.00000  Uiso   1.00
H795   H     0.97385   0.78414   0.19358   0.00000  Uiso   1.00
H796   H     0.80943   0.95012   0.13290   0.00000  Uiso   1.00
H797   H     0.85028   0.97946   0.07612   0.00000  Uiso   1.00
H798   H     0.79703   0.95465   0.07006   0.00000  Uiso   1.00
H799   H     0.67868   0.85399   0.43548   0.00000  Uiso   1.00
H800   H     0.70948   0.89986   0.42305   0.00000  Uiso   1.00
H801   H     0.69728   0.90605   0.04810   0.00000  Uiso   1.00
H802   H     0.66999   0.85905   0.06366   0.00000  Uiso   1.00
H803   H     0.69160   0.87956   0.31055   0.00000  Uiso   1.00
H804   H     0.91245   0.75115   0.41722   0.00000  Uiso   1.00
H805   H     0.75603   0.85341   0.06726   0.00000  Uiso   1.00
H806   H     0.85585   0.77143   0.37592   0.00000  Uiso   1.00
H807   H     0.91050   0.96385   0.23589   0.00000  Uiso   1.00
H808   H     0.93647   0.74760   0.09788   0.00000  Uiso   1.00
N809   N     0.71426   0.83334   0.25002   0.00000  Uiso   1.00
N810   N     0.95239   0.83331   0.25001   0.00000  Uiso   1.00
N811   N     0.94277   0.77962   0.09317   0.00000  Uiso   1.00
N812   N     0.95677   0.75146   0.48621   0.00000  Uiso   1.00
N813   N     0.71286   0.86777   0.41678   0.00000  Uiso   1.00
N814   N     0.68876   0.87879   0.03127   0.00000  Uiso   1.00
O815   O     0.79512   0.89442   0.25001   0.00000  Uiso   1.00
O816   O     0.73490   0.77763   0.18688   0.00000  Uiso   1.00
O817   O     0.92982   0.88531   0.31848   0.00000  Uiso   1.00
O818   O     0.82397   0.87774   0.08047   0.00000  Uiso   1.00
O819   O     0.87157   0.89441   0.25001   0.00000  Uiso   1.00
O820   O     0.77613   0.83333   0.32681   0.00000  Uiso   1.00
O821   O     0.85258   0.83332   0.32681   0.00000  Uiso   1.00
O822   O     0.79510   0.77226   0.25000   0.00000  Uiso   1.00
O823   O     0.87154   0.77225   0.25000   0.00000  Uiso   1.00
O824   O     0.81409   0.83335   0.17319   0.00000  Uiso   1.00
O825   O     0.89053   0.83334   0.17319   0.00000  Uiso   1.00
O826   O     0.74711   0.70652   0.25743   0.00000  Uiso   1.00
Zn827  Zn    0.78229   0.83334   0.25000   0.00000  Uiso   1.00
Zn828  Zn    0.88438   0.83333   0.25000   0.00000  Uiso   1.00
C829   C     0.16722   0.24666   0.74890   0.00000  Uiso   1.00
C830   C     0.12108   0.16530   0.91271   0.00000  Uiso   1.00
C831   C     0.21005   0.31267   0.74140   0.00000  Uiso   1.00
C832   C     0.13945   0.16583   0.85264   0.00000  Uiso   1.00
C833   C     0.20921   0.02183   0.74211   0.00000  Uiso   1.00
C834   C     0.16582   0.04227   0.74883   0.00000  Uiso   1.00
C835   C     0.12279   0.02006   0.75449   0.00000  Uiso   1.00
C836   C     0.12473   0.31076   0.75177   0.00000  Uiso   1.00
C837   C     0.16757   0.29067   0.74730   0.00000  Uiso   1.00
C838   C     0.31896   0.13962   0.71767   0.00000  Uiso   1.00
C839   C     0.03448   0.14001   0.71642   0.00000  Uiso   1.00
C840   C     0.14427   0.16254   0.99299   0.00000  Uiso   1.00
C841   C     0.01407   0.19306   0.78329   0.00000  Uiso   1.00
C842   C     0.29911   0.19399   0.78274   0.00000  Uiso   1.00
C843   C     0.16634   0.08655   0.74978   0.00000  Uiso   1.00
C844   C     0.19381   0.16591   0.64761   0.00000  Uiso   1.00
C845   C     0.25209   0.11373   0.51200   0.00000  Uiso   1.00
C846   C     0.21137   0.15882   0.58884   0.00000  Uiso   1.00
C847   C     0.07789   0.18601   0.94314   0.00000  Uiso   1.00
C848   C     0.06661   0.19256   0.99939   0.00000  Uiso   1.00
C849   C     0.09999   0.18167   0.52372   0.00000  Uiso   1.00
C850   C     0.04411   0.03237   0.80907   0.00000  Uiso   1.00
C851   C     0.15075   0.14905   0.93960   0.00000  Uiso   1.00
C852   C     0.33168   0.05516   0.81236   0.00000  Uiso   1.00
C853   C     0.06800   0.10406   0.63334   0.00000  Uiso   1.00
C854   C     0.05090   0.05986   0.62842   0.00000  Uiso   1.00
C855   C     0.27941   0.25910   0.82570   0.00000  Uiso   1.00
C856   C     0.27958   0.26402   0.88373   0.00000  Uiso   1.00
C857   C     0.18857   0.24600   0.56552   0.00000  Uiso   1.00
C858   C     0.15945   0.28501   0.58755   0.00000  Uiso   1.00
C859   C     0.18141   0.15460   0.51425   0.00000  Uiso   1.00
C860   C     0.21809   0.12523   0.98773   0.00000  Uiso   1.00
C861   C     0.21934   0.10747   0.93823   0.00000  Uiso   1.00
C862   C     0.18676   0.11961   0.91414   0.00000  Uiso   1.00
C863   C     0.18397   0.17562   0.56041   0.00000  Uiso   1.00
C864   C     0.24699   0.12906   0.56414   0.00000  Uiso   1.00
H865   H     0.24263   0.03854   0.73726   0.00000  Uiso   1.00
H866   H     0.31263   0.11780   0.56941   0.00000  Uiso   1.00
H867   H     0.05600   0.04378   0.84277   0.00000  Uiso   1.00
H868   H     0.03461   0.33211   0.81519   0.00000  Uiso   1.00
H869   H     0.30141   0.04520   0.84966   0.00000  Uiso   1.00
H870   H     0.00402   0.08920   0.81438   0.00000  Uiso   1.00
H871   H     0.32181   0.04771   0.77599   0.00000  Uiso   1.00
H872   H     0.10590   0.10730   0.60432   0.00000  Uiso   1.00
H873   H     0.04644   0.12669   0.61964   0.00000  Uiso   1.00
H874   H     0.01334   0.05478   0.65751   0.00000  Uiso   1.00
H875   H     0.05167   0.05429   0.58609   0.00000  Uiso   1.00
H876   H     0.09248   0.29349   0.75335   0.00000  Uiso   1.00
H877   H     0.07517   0.03732   0.63758   0.00000  Uiso   1.00
H878   H     0.25291   0.28152   0.82108   0.00000  Uiso   1.00
H879   H     0.31514   0.26835   0.79482   0.00000  Uiso   1.00
H880   H     0.30404   0.24118   0.89165   0.00000  Uiso   1.00
H881   H     0.29201   0.29584   0.88944   0.00000  Uiso   1.00
H882   H     0.24237   0.25894   0.91380   0.00000  Uiso   1.00
H883   H     0.27456   0.05646   0.98092   0.00000  Uiso   1.00
H884   H     0.31158   0.09648   0.94791   0.00000  Uiso   1.00
H885   H     0.20522   0.24855   0.52010   0.00000  Uiso   1.00
H886   H     0.21776   0.24435   0.58326   0.00000  Uiso   1.00
H887   H     0.30718   0.11747   0.69358   0.00000  Uiso   1.00
H888   H     0.14276   0.28345   0.63290   0.00000  Uiso   1.00
H889   H     0.18361   0.31279   0.57612   0.00000  Uiso   1.00
H890   H     0.13036   0.28798   0.57006   0.00000  Uiso   1.00
H891   H     0.01201   0.18732   0.93548   0.00000  Uiso   1.00
H892   H     0.04282   0.23319   0.92305   0.00000  Uiso   1.00
H893   H     0.03061   0.23938   0.54810   0.00000  Uiso   1.00
H894   H     0.00332   0.19238   0.56366   0.00000  Uiso   1.00
H895   H     0.02493   0.21289   0.81055   0.00000  Uiso   1.00
H896   H     0.24578   0.08448   0.91722   0.00000  Uiso   1.00
H897   H     0.08936   0.18675   0.56726   0.00000  Uiso   1.00
H898   H     0.18919   0.10476   0.87592   0.00000  Uiso   1.00
H899   H     0.24383   0.29718   0.73589   0.00000  Uiso   1.00
H900   H     0.26980   0.08093   0.59788   0.00000  Uiso   1.00
N901   N     0.04760   0.16668   0.75002   0.00000  Uiso   1.00
N902   N     0.28573   0.16665   0.75001   0.00000  Uiso   1.00
N903   N     0.27611   0.11295   0.59317   0.00000  Uiso   1.00
N904   N     0.29010   0.08479   0.98621   0.00000  Uiso   1.00
N905   N     0.04619   0.20110   0.91678   0.00000  Uiso   1.00
N906   N     0.02209   0.21212   0.53127   0.00000  Uiso   1.00
O907   O     0.12846   0.22775   0.75001   0.00000  Uiso   1.00
O908   O     0.06823   0.11096   0.68688   0.00000  Uiso   1.00
O909   O     0.26315   0.21865   0.81848   0.00000  Uiso   1.00
O910   O     0.15731   0.21107   0.58047   0.00000  Uiso   1.00
O911   O     0.20490   0.22774   0.75001   0.00000  Uiso   1.00
O912   O     0.10947   0.16666   0.82681   0.00000  Uiso   1.00
O913   O     0.18591   0.16665   0.82681   0.00000  Uiso   1.00
O914   O     0.12843   0.10559   0.75000   0.00000  Uiso   1.00
O915   O     0.20488   0.10558   0.75000   0.00000  Uiso   1.00
O916   O     0.14742   0.16668   0.67319   0.00000  Uiso   1.00
O917   O     0.22387   0.16667   0.67319   0.00000  Uiso   1.00
O918   O     0.08045   0.03985   0.75743   0.00000  Uiso   1.00
Zn919  Zn    0.11562   0.16667   0.75000   0.00000  Uiso   1.00
Zn920  Zn    0.21771   0.16666   0.75000   0.00000  Uiso   1.00
C921   C     0.50055   0.24666   0.74890   0.00000  Uiso   1.00
C922   C     0.45441   0.16530   0.91271   0.00000  Uiso   1.00
C923   C     0.54338   0.31267   0.74140   0.00000  Uiso   1.00
C924   C     0.47278   0.16583   0.85264   0.00000  Uiso   1.00
C925   C     0.54255   0.02183   0.74211   0.00000  Uiso   1.00
C926   C     0.49915   0.04227   0.74883   0.00000  Uiso   1.00
C927   C     0.45612   0.02006   0.75449   0.00000  Uiso   1.00
C928   C     0.45806   0.31076   0.75177   0.00000  Uiso   1.00
C929   C     0.50090   0.29067   0.74730   0.00000  Uiso   1.00
C930   C     0.65229   0.13962   0.71767   0.00000  Uiso   1.00
C931   C     0.36781   0.14001   0.71642   0.00000  Uiso   1.00
C932   C     0.47760   0.16254   0.99299   0.00000  Uiso   1.00
C933   C     0.34740   0.19306   0.78329   0.00000  Uiso   1.00
C934   C     0.63244   0.19399   0.78274   0.00000  Uiso   1.00
C935   C     0.49967   0.08655   0.74978   0.00000  Uiso   1.00
C936   C     0.52715   0.16591   0.64761   0.00000  Uiso   1.00
C937   C     0.58543   0.11373   0.51200   0.00000  Uiso   1.00
C938   C     0.54470   0.15882   0.58884   0.00000  Uiso   1.00
C939   C     0.41122   0.18601   0.94314   0.00000  Uiso   1.00
C940   C     0.39994   0.19256   0.99939   0.00000  Uiso   1.00
C941   C     0.43332   0.18167   0.52372   0.00000  Uiso   1.00
C942   C     0.37744   0.03237   0.80907   0.00000  Uiso   1.00
C943   C     0.48409   0.14905   0.93960   0.00000  Uiso   1.00
C944   C     0.66502   0.05516   0.81236   0.00000  Uiso   1.00
C945   C     0.40134   0.10406   0.63334   0.00000  Uiso   1.00
C946   C     0.38423   0.05986   0.62842   0.00000  Uiso   1.00
C947   C     0.61274   0.25910   0.82570   0.00000  Uiso   1.00
C948   C     0.61291   0.26402   0.88373   0.00000  Uiso   1.00
C949   C     0.52191   0.24600   0.56552   0.00000  Uiso   1.00
C950   C     0.49278   0.28501   0.58755   0.00000  Uiso   1.00
C951   C     0.51474   0.15460   0.51425   0.00000  Uiso   1.00
C952   C     0.55142   0.12523   0.98773   0.00000  Uiso   1.00
C953   C     0.55267   0.10747   0.93823   0.00000  Uiso   1.00
C954   C     0.52009   0.11961   0.91414   0.00000  Uiso   1.00
C955   C     0.51730   0.17562   0.56041   0.00000  Uiso   1.00
C956   C     0.58032   0.12906   0.56414   0.00000  Uiso   1.00
H957   H     0.57596   0.03854   0.73726   0.00000  Uiso   1.00
H958   H     0.64597   0.11780   0.56941   0.00000  Uiso   1.00
H959   H     0.38933   0.04378   0.84277   0.00000  Uiso   1.00
H960   H     0.36794   0.33211   0.81519   0.00000  Uiso   1.00
H961   H     0.63475   0.04520   0.84966   0.00000  Uiso   1.00
H962   H     0.33736   0.08920   0.81438   0.00000  Uiso   1.00
H963   H     0.65514   0.04771   0.77599   0.00000  Uiso   1.00
H964   H     0.43924   0.10730   0.60432   0.00000  Uiso   1.00
H965   H     0.37977   0.12669   0.61964   0.00000  Uiso   1.00
H966   H     0.34668   0.05478   0.65751   0.00000  Uiso   1.00
H967   H     0.38501   0.05429   0.58609   0.00000  Uiso   1.00
H968   H     0.42581   0.29349   0.75335   0.00000  Uiso   1.00
H969   H     0.40850   0.03732   0.63758   0.00000  Uiso   1.00
H970   H     0.58624   0.28152   0.82108   0.00000  Uiso   1.00
H971   H     0.64847   0.26835   0.79482   0.00000  Uiso   1.00
H972   H     0.63737   0.24118   0.89165   0.00000  Uiso   1.00
H973   H     0.62534   0.29584   0.88944   0.00000  Uiso   1.00
H974   H     0.57570   0.25894   0.91380   0.00000  Uiso   1.00
H975   H     0.60790   0.05646   0.98092   0.00000  Uiso   1.00
H976   H     0.64491   0.09648   0.94791   0.00000  Uiso   1.00
H977   H     0.53855   0.24855   0.52010   0.00000  Uiso   1.00
H978   H     0.55109   0.24435   0.58326   0.00000  Uiso   1.00
H979   H     0.64051   0.11747   0.69358   0.00000  Uiso   1.00
H980   H     0.47609   0.28345   0.63290   0.00000  Uiso   1.00
H981   H     0.51694   0.31279   0.57612   0.00000  Uiso   1.00
H982   H     0.46369   0.28798   0.57006   0.00000  Uiso   1.00
H983   H     0.34534   0.18732   0.93548   0.00000  Uiso   1.00
H984   H     0.37615   0.23319   0.92305   0.00000  Uiso   1.00
H985   H     0.36395   0.23938   0.54810   0.00000  Uiso   1.00
H986   H     0.33665   0.19238   0.56366   0.00000  Uiso   1.00
H987   H     0.35827   0.21289   0.81055   0.00000  Uiso   1.00
H988   H     0.57912   0.08448   0.91722   0.00000  Uiso   1.00
H989   H     0.42270   0.18675   0.56726   0.00000  Uiso   1.00
H990   H     0.52252   0.10476   0.87592   0.00000  Uiso   1.00
H991   H     0.57717   0.29718   0.73589   0.00000  Uiso   1.00
H992   H     0.60313   0.08093   0.59788   0.00000  Uiso   1.00
N993   N     0.38093   0.16668   0.75002   0.00000  Uiso   1.00
N994   N     0.61906   0.16665   0.75001   0.00000  Uiso   1.00
N995   N     0.60944   0.11295   0.59317   0.00000  Uiso   1.00
N996   N     0.62343   0.08479   0.98621   0.00000  Uiso   1.00
N997   N     0.37953   0.20110   0.91678   0.00000  Uiso   1.00
N998   N     0.35543   0.21212   0.53127   0.00000  Uiso   1.00
O999   O     0.46179   0.22775   0.75001   0.00000  Uiso   1.00
O1000  O     0.40157   0.11096   0.68688   0.00000  Uiso   1.00
O1001  O     0.59648   0.21865   0.81848   0.00000  Uiso   1.00
O1002  O     0.49064   0.21107   0.58047   0.00000  Uiso   1.00
O1003  O     0.53823   0.22774   0.75001   0.00000  Uiso   1.00
O1004  O     0.44280   0.16666   0.82681   0.00000  Uiso   1.00
O1005  O     0.51924   0.16665   0.82681   0.00000  Uiso   1.00
O1006  O     0.46177   0.10559   0.75000   0.00000  Uiso   1.00
O1007  O     0.53821   0.10558   0.75000   0.00000  Uiso   1.00
O1008  O     0.48076   0.16668   0.67319   0.00000  Uiso   1.00
O1009  O     0.55720   0.16667   0.67319   0.00000  Uiso   1.00
O1010  O     0.41378   0.03985   0.75743   0.00000  Uiso   1.00
Zn1011 Zn    0.44896   0.16667   0.75000   0.00000  Uiso   1.00
Zn1012 Zn    0.55104   0.16666   0.75000   0.00000  Uiso   1.00
C1013  C     0.83388   0.24666   0.74890   0.00000  Uiso   1.00
C1014  C     0.78774   0.16530   0.91271   0.00000  Uiso   1.00
C1015  C     0.87672   0.31267   0.74140   0.00000  Uiso   1.00
C1016  C     0.80612   0.16583   0.85264   0.00000  Uiso   1.00
C1017  C     0.87588   0.02183   0.74211   0.00000  Uiso   1.00
C1018  C     0.83248   0.04227   0.74883   0.00000  Uiso   1.00
C1019  C     0.78945   0.02006   0.75449   0.00000  Uiso   1.00
C1020  C     0.79140   0.31076   0.75177   0.00000  Uiso   1.00
C1021  C     0.83423   0.29067   0.74730   0.00000  Uiso   1.00
C1022  C     0.98563   0.13962   0.71767   0.00000  Uiso   1.00
C1023  C     0.70114   0.14001   0.71642   0.00000  Uiso   1.00
C1024  C     0.81094   0.16254   0.99299   0.00000  Uiso   1.00
C1025  C     0.68074   0.19306   0.78329   0.00000  Uiso   1.00
C1026  C     0.96577   0.19399   0.78274   0.00000  Uiso   1.00
C1027  C     0.83301   0.08655   0.74978   0.00000  Uiso   1.00
C1028  C     0.86048   0.16591   0.64761   0.00000  Uiso   1.00
C1029  C     0.91876   0.11373   0.51200   0.00000  Uiso   1.00
C1030  C     0.87803   0.15882   0.58884   0.00000  Uiso   1.00
C1031  C     0.74455   0.18601   0.94314   0.00000  Uiso   1.00
C1032  C     0.73327   0.19256   0.99939   0.00000  Uiso   1.00
C1033  C     0.76666   0.18167   0.52372   0.00000  Uiso   1.00
C1034  C     0.71078   0.03237   0.80907   0.00000  Uiso   1.00
C1035  C     0.81742   0.14905   0.93960   0.00000  Uiso   1.00
C1036  C     0.99835   0.05516   0.81236   0.00000  Uiso   1.00
C1037  C     0.73467   0.10406   0.63334   0.00000  Uiso   1.00
C1038  C     0.71756   0.05986   0.62842   0.00000  Uiso   1.00
C1039  C     0.94608   0.25910   0.82570   0.00000  Uiso   1.00
C1040  C     0.94624   0.26402   0.88373   0.00000  Uiso   1.00
C1041  C     0.85524   0.24600   0.56552   0.00000  Uiso   1.00
C1042  C     0.82612   0.28501   0.58755   0.00000  Uiso   1.00
C1043  C     0.84808   0.15460   0.51425   0.00000  Uiso   1.00
C1044  C     0.88476   0.12523   0.98773   0.00000  Uiso   1.00
C1045  C     0.88601   0.10747   0.93823   0.00000  Uiso   1.00
C1046  C     0.85342   0.11961   0.91414   0.00000  Uiso   1.00
C1047  C     0.85063   0.17562   0.56041   0.00000  Uiso   1.00
C1048  C     0.91366   0.12906   0.56414   0.00000  Uiso   1.00
H1049  H     0.90929   0.03854   0.73726   0.00000  Uiso   1.00
H1050  H     0.97930   0.11780   0.56941   0.00000  Uiso   1.00
H1051  H     0.72266   0.04378   0.84277   0.00000  Uiso   1.00
H1052  H     0.70128   0.33211   0.81519   0.00000  Uiso   1.00
H1053  H     0.96808   0.04520   0.84966   0.00000  Uiso   1.00
H1054  H     0.67069   0.08920   0.81438   0.00000  Uiso   1.00
H1055  H     0.98847   0.04771   0.77599   0.00000  Uiso   1.00
H1056  H     0.77257   0.10730   0.60432   0.00000  Uiso   1.00
H1057  H     0.71311   0.12669   0.61964   0.00000  Uiso   1.00
H1058  H     0.68001   0.05478   0.65751   0.00000  Uiso   1.00
H1059  H     0.71834   0.05429   0.58609   0.00000  Uiso   1.00
H1060  H     0.75915   0.29349   0.75335   0.00000  Uiso   1.00
H1061  H     0.74184   0.03732   0.63758   0.00000  Uiso   1.00
H1062  H     0.91957   0.28152   0.82108   0.00000  Uiso   1.00
H1063  H     0.98181   0.26835   0.79482   0.00000  Uiso   1.00
H1064  H     0.97070   0.24118   0.89165   0.00000  Uiso   1.00
H1065  H     0.95867   0.29584   0.88944   0.00000  Uiso   1.00
H1066  H     0.90904   0.25894   0.91380   0.00000  Uiso   1.00
H1067  H     0.94123   0.05646   0.98092   0.00000  Uiso   1.00
H1068  H     0.97825   0.09648   0.94791   0.00000  Uiso   1.00
H1069  H     0.87189   0.24855   0.52010   0.00000  Uiso   1.00
H1070  H     0.88442   0.24435   0.58326   0.00000  Uiso   1.00
H1071  H     0.97385   0.11747   0.69358   0.00000  Uiso   1.00
H1072  H     0.80943   0.28345   0.63290   0.00000  Uiso   1.00
H1073  H     0.85028   0.31279   0.57612   0.00000  Uiso   1.00
H1074  H     0.79703   0.28798   0.57006   0.00000  Uiso   1.00
H1075  H     0.67868   0.18732   0.93548   0.00000  Uiso   1.00
H1076  H     0.70948   0.23319   0.92305   0.00000  Uiso   1.00
H1077  H     0.69728   0.23938   0.54810   0.00000  Uiso   1.00
H1078  H     0.66999   0.19238   0.56366   0.00000  Uiso   1.00
H1079  H     0.69160   0.21289   0.81055   0.00000  Uiso   1.00
H1080  H     0.91245   0.08448   0.91722   0.00000  Uiso   1.00
H1081  H     0.75603   0.18675   0.56726   0.00000  Uiso   1.00
H1082  H     0.85585   0.10476   0.87592   0.00000  Uiso   1.00
H1083  H     0.91050   0.29718   0.73589   0.00000  Uiso   1.00
H1084  H     0.93647   0.08093   0.59788   0.00000  Uiso   1.00
N1085  N     0.71426   0.16668   0.75002   0.00000  Uiso   1.00
N1086  N     0.95239   0.16665   0.75001   0.00000  Uiso   1.00
N1087  N     0.94277   0.11295   0.59317   0.00000  Uiso   1.00
N1088  N     0.95677   0.08479   0.98621   0.00000  Uiso   1.00
N1089  N     0.71286   0.20110   0.91678   0.00000  Uiso   1.00
N1090  N     0.68876   0.21212   0.53127   0.00000  Uiso   1.00
O1091  O     0.79512   0.22775   0.75001   0.00000  Uiso   1.00
O1092  O     0.73490   0.11096   0.68688   0.00000  Uiso   1.00
O1093  O     0.92982   0.21865   0.81848   0.00000  Uiso   1.00
O1094  O     0.82397   0.21107   0.58047   0.00000  Uiso   1.00
O1095  O     0.87157   0.22774   0.75001   0.00000  Uiso   1.00
O1096  O     0.77613   0.16666   0.82681   0.00000  Uiso   1.00
O1097  O     0.85258   0.16665   0.82681   0.00000  Uiso   1.00
O1098  O     0.79510   0.10559   0.75000   0.00000  Uiso   1.00
O1099  O     0.87154   0.10558   0.75000   0.00000  Uiso   1.00
O1100  O     0.81409   0.16668   0.67319   0.00000  Uiso   1.00
O1101  O     0.89053   0.16667   0.67319   0.00000  Uiso   1.00
O1102  O     0.74711   0.03985   0.75743   0.00000  Uiso   1.00
Zn1103 Zn    0.78229   0.16667   0.75000   0.00000  Uiso   1.00
Zn1104 Zn    0.88438   0.16666   0.75000   0.00000  Uiso   1.00
C1105  C     0.16722   0.57999   0.74890   0.00000  Uiso   1.00
C1106  C     0.12108   0.49863   0.91271   0.00000  Uiso   1.00
C1107  C     0.21005   0.64600   0.74140   0.00000  Uiso   1.00
C1108  C     0.13945   0.49916   0.85264   0.00000  Uiso   1.00
C1109  C     0.20921   0.35516   0.74211   0.00000  Uiso   1.00
C1110  C     0.16582   0.37561   0.74883   0.00000  Uiso   1.00
C1111  C     0.12279   0.35339   0.75449   0.00000  Uiso   1.00
C1112  C     0.12473   0.64409   0.75177   0.00000  Uiso   1.00
C1113  C     0.16757   0.62400   0.74730   0.00000  Uiso   1.00
C1114  C     0.31896   0.47295   0.71767   0.00000  Uiso   1.00
C1115  C     0.03448   0.47334   0.71642   0.00000  Uiso   1.00
C1116  C     0.14427   0.49587   0.99299   0.00000  Uiso   1.00
C1117  C     0.01407   0.52639   0.78329   0.00000  Uiso   1.00
C1118  C     0.29911   0.52732   0.78274   0.00000  Uiso   1.00
C1119  C     0.16634   0.41988   0.74978   0.00000  Uiso   1.00
C1120  C     0.19381   0.49924   0.64761   0.00000  Uiso   1.00
C1121  C     0.25209   0.44706   0.51200   0.00000  Uiso   1.00
C1122  C     0.21137   0.49216   0.58884   0.00000  Uiso   1.00
C1123  C     0.07789   0.51935   0.94314   0.00000  Uiso   1.00
C1124  C     0.06661   0.52590   0.99939   0.00000  Uiso   1.00
C1125  C     0.09999   0.51501   0.52372   0.00000  Uiso   1.00
C1126  C     0.04411   0.36570   0.80907   0.00000  Uiso   1.00
C1127  C     0.15075   0.48238   0.93960   0.00000  Uiso   1.00
C1128  C     0.33168   0.38849   0.81236   0.00000  Uiso   1.00
C1129  C     0.06800   0.43740   0.63334   0.00000  Uiso   1.00
C1130  C     0.05090   0.39319   0.62842   0.00000  Uiso   1.00
C1131  C     0.27941   0.59244   0.82570   0.00000  Uiso   1.00
C1132  C     0.27958   0.59736   0.88373   0.00000  Uiso   1.00
C1133  C     0.18857   0.57933   0.56552   0.00000  Uiso   1.00
C1134  C     0.15945   0.61834   0.58755   0.00000  Uiso   1.00
C1135  C     0.18141   0.48793   0.51425   0.00000  Uiso   1.00
C1136  C     0.21809   0.45857   0.98773   0.00000  Uiso   1.00
C1137  C     0.21934   0.44080   0.93823   0.00000  Uiso   1.00
C1138  C     0.18676   0.45294   0.91414   0.00000  Uiso   1.00
C1139  C     0.18397   0.50895   0.56041   0.00000  Uiso   1.00
C1140  C     0.24699   0.46240   0.56414   0.00000  Uiso   1.00
H1141  H     0.24263   0.37187   0.73726   0.00000  Uiso   1.00
H1142  H     0.31263   0.45114   0.56941   0.00000  Uiso   1.00
H1143  H     0.05600   0.37712   0.84277   0.00000  Uiso   1.00
H1144  H     0.03461   0.66545   0.81519   0.00000  Uiso   1.00
H1145  H     0.30141   0.37853   0.84966   0.00000  Uiso   1.00
H1146  H     0.00402   0.42253   0.81438   0.00000  Uiso   1.00
H1147  H     0.32181   0.38104   0.77599   0.00000  Uiso   1.00
H1148  H     0.10590   0.44064   0.60432   0.00000  Uiso   1.00
H1149  H     0.04644   0.46002   0.61964   0.00000  Uiso   1.00
H1150  H     0.01334   0.38811   0.65751   0.00000  Uiso   1.00
H1151  H     0.05167   0.38762   0.58609   0.00000  Uiso   1.00
H1152  H     0.09248   0.62683   0.75335   0.00000  Uiso   1.00
H1153  H     0.07517   0.37065   0.63758   0.00000  Uiso   1.00
H1154  H     0.25291   0.61486   0.82108   0.00000  Uiso   1.00
H1155  H     0.31514   0.60169   0.79482   0.00000  Uiso   1.00
H1156  H     0.30404   0.57451   0.89165   0.00000  Uiso   1.00
H1157  H     0.29201   0.62918   0.88944   0.00000  Uiso   1.00
H1158  H     0.24237   0.59227   0.91380   0.00000  Uiso   1.00
H1159  H     0.27456   0.38980   0.98092   0.00000  Uiso   1.00
H1160  H     0.31158   0.42982   0.94791   0.00000  Uiso   1.00
H1161  H     0.20522   0.58188   0.52010   0.00000  Uiso   1.00
H1162  H     0.21776   0.57768   0.58326   0.00000  Uiso   1.00
H1163  H     0.30718   0.45081   0.69358   0.00000  Uiso   1.00
H1164  H     0.14276   0.61678   0.63290   0.00000  Uiso   1.00
H1165  H     0.18361   0.64613   0.57612   0.00000  Uiso   1.00
H1166  H     0.13036   0.62131   0.57006   0.00000  Uiso   1.00
H1167  H     0.01201   0.52065   0.93548   0.00000  Uiso   1.00
H1168  H     0.04282   0.56653   0.92305   0.00000  Uiso   1.00
H1169  H     0.03061   0.57271   0.54810   0.00000  Uiso   1.00
H1170  H     0.00332   0.52571   0.56366   0.00000  Uiso   1.00
H1171  H     0.02493   0.54622   0.81055   0.00000  Uiso   1.00
H1172  H     0.24578   0.41782   0.91722   0.00000  Uiso   1.00
H1173  H     0.08936   0.52008   0.56726   0.00000  Uiso   1.00
H1174  H     0.18919   0.43809   0.87592   0.00000  Uiso   1.00
H1175  H     0.24383   0.63052   0.73589   0.00000  Uiso   1.00
H1176  H     0.26980   0.41426   0.59788   0.00000  Uiso   1.00
N1177  N     0.04760   0.50001   0.75002   0.00000  Uiso   1.00
N1178  N     0.28573   0.49998   0.75001   0.00000  Uiso   1.00
N1179  N     0.27611   0.44628   0.59317   0.00000  Uiso   1.00
N1180  N     0.29010   0.41812   0.98621   0.00000  Uiso   1.00
N1181  N     0.04619   0.53443   0.91678   0.00000  Uiso   1.00
N1182  N     0.02209   0.54545   0.53127   0.00000  Uiso   1.00
O1183  O     0.12846   0.56108   0.75001   0.00000  Uiso   1.00
O1184  O     0.06823   0.44429   0.68688   0.00000  Uiso   1.00
O1185  O     0.26315   0.55198   0.81848   0.00000  Uiso   1.00
O1186  O     0.15731   0.54440   0.58047   0.00000  Uiso   1.00
O1187  O     0.20490   0.56107   0.75001   0.00000  Uiso   1.00
O1188  O     0.10947   0.50000   0.82681   0.00000  Uiso   1.00
O1189  O     0.18591   0.49999   0.82681   0.00000  Uiso   1.00
O1190  O     0.12843   0.43893   0.75000   0.00000  Uiso   1.00
O1191  O     0.20488   0.43892   0.75000   0.00000  Uiso   1.00
O1192  O     0.14742   0.50001   0.67319   0.00000  Uiso   1.00
O1193  O     0.22387   0.50000   0.67319   0.00000  Uiso   1.00
O1194  O     0.08045   0.37319   0.75743   0.00000  Uiso   1.00
Zn1195 Zn    0.11562   0.50001   0.75000   0.00000  Uiso   1.00
Zn1196 Zn    0.21771   0.49999   0.75000   0.00000  Uiso   1.00
C1197  C     0.50055   0.57999   0.74890   0.00000  Uiso   1.00
C1198  C     0.45441   0.49863   0.91271   0.00000  Uiso   1.00
C1199  C     0.54338   0.64600   0.74140   0.00000  Uiso   1.00
C1200  C     0.47278   0.49916   0.85264   0.00000  Uiso   1.00
C1201  C     0.54255   0.35516   0.74211   0.00000  Uiso   1.00
C1202  C     0.49915   0.37561   0.74883   0.00000  Uiso   1.00
C1203  C     0.45612   0.35339   0.75449   0.00000  Uiso   1.00
C1204  C     0.45806   0.64409   0.75177   0.00000  Uiso   1.00
C1205  C     0.50090   0.62400   0.74730   0.00000  Uiso   1.00
C1206  C     0.65229   0.47295   0.71767   0.00000  Uiso   1.00
C1207  C     0.36781   0.47334   0.71642   0.00000  Uiso   1.00
C1208  C     0.47760   0.49587   0.99299   0.00000  Uiso   1.00
C1209  C     0.34740   0.52639   0.78329   0.00000  Uiso   1.00
C1210  C     0.63244   0.52732   0.78274   0.00000  Uiso   1.00
C1211  C     0.49967   0.41988   0.74978   0.00000  Uiso   1.00
C1212  C     0.52715   0.49924   0.64761   0.00000  Uiso   1.00
C1213  C     0.58543   0.44706   0.51200   0.00000  Uiso   1.00
C1214  C     0.54470   0.49216   0.58884   0.00000  Uiso   1.00
C1215  C     0.41122   0.51935   0.94314   0.00000  Uiso   1.00
C1216  C     0.39994   0.52590   0.99939   0.00000  Uiso   1.00
C1217  C     0.43332   0.51501   0.52372   0.00000  Uiso   1.00
C1218  C     0.37744   0.36570   0.80907   0.00000  Uiso   1.00
C1219  C     0.48409   0.48238   0.93960   0.00000  Uiso   1.00
C1220  C     0.66502   0.38849   0.81236   0.00000  Uiso   1.00
C1221  C     0.40134   0.43740   0.63334   0.00000  Uiso   1.00
C1222  C     0.38423   0.39319   0.62842   0.00000  Uiso   1.00
C1223  C     0.61274   0.59244   0.82570   0.00000  Uiso   1.00
C1224  C     0.61291   0.59736   0.88373   0.00000  Uiso   1.00
C1225  C     0.52191   0.57933   0.56552   0.00000  Uiso   1.00
C1226  C     0.49278   0.61834   0.58755   0.00000  Uiso   1.00
C1227  C     0.51474   0.48793   0.51425   0.00000  Uiso   1.00
C1228  C     0.55142   0.45857   0.98773   0.00000  Uiso   1.00
C1229  C     0.55267   0.44080   0.93823   0.00000  Uiso   1.00
C1230  C     0.52009   0.45294   0.91414   0.00000  Uiso   1.00
C1231  C     0.51730   0.50895   0.56041   0.00000  Uiso   1.00
C1232  C     0.58032   0.46240   0.56414   0.00000  Uiso   1.00
H1233  H     0.57596   0.37187   0.73726   0.00000  Uiso   1.00
H1234  H     0.64597   0.45114   0.56941   0.00000  Uiso   1.00
H1235  H     0.38933   0.37712   0.84277   0.00000  Uiso   1.00
H1236  H     0.36794   0.66545   0.81519   0.00000  Uiso   1.00
H1237  H     0.63475   0.37853   0.84966   0.00000  Uiso   1.00
H1238  H     0.33736   0.42253   0.81438   0.00000  Uiso   1.00
H1239  H     0.65514   0.38104   0.77599   0.00000  Uiso   1.00
H1240  H     0.43924   0.44064   0.60432   0.00000  Uiso   1.00
H1241  H     0.37977   0.46002   0.61964   0.00000  Uiso   1.00
H1242  H     0.34668   0.38811   0.65751   0.00000  Uiso   1.00
H1243  H     0.38501   0.38762   0.58609   0.00000  Uiso   1.00
H1244  H     0.42581   0.62683   0.75335   0.00000  Uiso   1.00
H1245  H     0.40850   0.37065   0.63758   0.00000  Uiso   1.00
H1246  H     0.58624   0.61486   0.82108   0.00000  Uiso   1.00
H1247  H     0.64847   0.60169   0.79482   0.00000  Uiso   1.00
H1248  H     0.63737   0.57451   0.89165   0.00000  Uiso   1.00
H1249  H     0.62534   0.62918   0.88944   0.00000  Uiso   1.00
H1250  H     0.57570   0.59227   0.91380   0.00000  Uiso   1.00
H1251  H     0.60790   0.38980   0.98092   0.00000  Uiso   1.00
H1252  H     0.64491   0.42982   0.94791   0.00000  Uiso   1.00
H1253  H     0.53855   0.58188   0.52010   0.00000  Uiso   1.00
H1254  H     0.55109   0.57768   0.58326   0.00000  Uiso   1.00
H1255  H     0.64051   0.45081   0.69358   0.00000  Uiso   1.00
H1256  H     0.47609   0.61678   0.63290   0.00000  Uiso   1.00
H1257  H     0.51694   0.64613   0.57612   0.00000  Uiso   1.00
H1258  H     0.46369   0.62131   0.57006   0.00000  Uiso   1.00
H1259  H     0.34534   0.52065   0.93548   0.00000  Uiso   1.00
H1260  H     0.37615   0.56653   0.92305   0.00000  Uiso   1.00
H1261  H     0.36395   0.57271   0.54810   0.00000  Uiso   1.00
H1262  H     0.33665   0.52571   0.56366   0.00000  Uiso   1.00
H1263  H     0.35827   0.54622   0.81055   0.00000  Uiso   1.00
H1264  H     0.57912   0.41782   0.91722   0.00000  Uiso   1.00
H1265  H     0.42270   0.52008   0.56726   0.00000  Uiso   1.00
H1266  H     0.52252   0.43809   0.87592   0.00000  Uiso   1.00
H1267  H     0.57717   0.63052   0.73589   0.00000  Uiso   1.00
H1268  H     0.60313   0.41426   0.59788   0.00000  Uiso   1.00
N1269  N     0.38093   0.50001   0.75002   0.00000  Uiso   1.00
N1270  N     0.61906   0.49998   0.75001   0.00000  Uiso   1.00
N1271  N     0.60944   0.44628   0.59317   0.00000  Uiso   1.00
N1272  N     0.62343   0.41812   0.98621   0.00000  Uiso   1.00
N1273  N     0.37953   0.53443   0.91678   0.00000  Uiso   1.00
N1274  N     0.35543   0.54545   0.53127   0.00000  Uiso   1.00
O1275  O     0.46179   0.56108   0.75001   0.00000  Uiso   1.00
O1276  O     0.40157   0.44429   0.68688   0.00000  Uiso   1.00
O1277  O     0.59648   0.55198   0.81848   0.00000  Uiso   1.00
O1278  O     0.49064   0.54440   0.58047   0.00000  Uiso   1.00
O1279  O     0.53823   0.56107   0.75001   0.00000  Uiso   1.00
O1280  O     0.44280   0.50000   0.82681   0.00000  Uiso   1.00
O1281  O     0.51924   0.49999   0.82681   0.00000  Uiso   1.00
O1282  O     0.46177   0.43893   0.75000   0.00000  Uiso   1.00
O1283  O     0.53821   0.43892   0.75000   0.00000  Uiso   1.00
O1284  O     0.48076   0.50001   0.67319   0.00000  Uiso   1.00
O1285  O     0.55720   0.50000   0.67319   0.00000  Uiso   1.00
O1286  O     0.41378   0.37319   0.75743   0.00000  Uiso   1.00
Zn1287 Zn    0.44896   0.50001   0.75000   0.00000  Uiso   1.00
Zn1288 Zn    0.55104   0.49999   0.75000   0.00000  Uiso   1.00
C1289  C     0.83388   0.57999   0.74890   0.00000  Uiso   1.00
C1290  C     0.78774   0.49863   0.91271   0.00000  Uiso   1.00
C1291  C     0.87672   0.64600   0.74140   0.00000  Uiso   1.00
C1292  C     0.80612   0.49916   0.85264   0.00000  Uiso   1.00
C1293  C     0.87588   0.35516   0.74211   0.00000  Uiso   1.00
C1294  C     0.83248   0.37561   0.74883   0.00000  Uiso   1.00
C1295  C     0.78945   0.35339   0.75449   0.00000  Uiso   1.00
C1296  C     0.79140   0.64409   0.75177   0.00000  Uiso   1.00
C1297  C     0.83423   0.62400   0.74730   0.00000  Uiso   1.00
C1298  C     0.98563   0.47295   0.71767   0.00000  Uiso   1.00
C1299  C     0.70114   0.47334   0.71642   0.00000  Uiso   1.00
C1300  C     0.81094   0.49587   0.99299   0.00000  Uiso   1.00
C1301  C     0.68074   0.52639   0.78329   0.00000  Uiso   1.00
C1302  C     0.96577   0.52732   0.78274   0.00000  Uiso   1.00
C1303  C     0.83301   0.41988   0.74978   0.00000  Uiso   1.00
C1304  C     0.86048   0.49924   0.64761   0.00000  Uiso   1.00
C1305  C     0.91876   0.44706   0.51200   0.00000  Uiso   1.00
C1306  C     0.87803   0.49216   0.58884   0.00000  Uiso   1.00
C1307  C     0.74455   0.51935   0.94314   0.00000  Uiso   1.00
C1308  C     0.73327   0.52590   0.99939   0.00000  Uiso   1.00
C1309  C     0.76666   0.51501   0.52372   0.00000  Uiso   1.00
C1310  C     0.71078   0.36570   0.80907   0.00000  Uiso   1.00
C1311  C     0.81742   0.48238   0.93960   0.00000  Uiso   1.00
C1312  C     0.99835   0.38849   0.81236   0.00000  Uiso   1.00
C1313  C     0.73467   0.43740   0.63334   0.00000  Uiso   1.00
C1314  C     0.71756   0.39319   0.62842   0.00000  Uiso   1.00
C1315  C     0.94608   0.59244   0.82570   0.00000  Uiso   1.00
C1316  C     0.94624   0.59736   0.88373   0.00000  Uiso   1.00
C1317  C     0.85524   0.57933   0.56552   0.00000  Uiso   1.00
C1318  C     0.82612   0.61834   0.58755   0.00000  Uiso   1.00
C1319  C     0.84808   0.48793   0.51425   0.00000  Uiso   1.00
C1320  C     0.88476   0.45857   0.98773   0.00000  Uiso   1.00
C1321  C     0.88601   0.44080   0.93823   0.00000  Uiso   1.00
C1322  C     0.85342   0.45294   0.91414   0.00000  Uiso   1.00
C1323  C     0.85063   0.50895   0.56041   0.00000  Uiso   1.00
C1324  C     0.91366   0.46240   0.56414   0.00000  Uiso   1.00
H1325  H     0.90929   0.37187   0.73726   0.00000  Uiso   1.00
H1326  H     0.97930   0.45114   0.56941   0.00000  Uiso   1.00
H1327  H     0.72266   0.37712   0.84277   0.00000  Uiso   1.00
H1328  H     0.70128   0.66545   0.81519   0.00000  Uiso   1.00
H1329  H     0.96808   0.37853   0.84966   0.00000  Uiso   1.00
H1330  H     0.67069   0.42253   0.81438   0.00000  Uiso   1.00
H1331  H     0.98847   0.38104   0.77599   0.00000  Uiso   1.00
H1332  H     0.77257   0.44064   0.60432   0.00000  Uiso   1.00
H1333  H     0.71311   0.46002   0.61964   0.00000  Uiso   1.00
H1334  H     0.68001   0.38811   0.65751   0.00000  Uiso   1.00
H1335  H     0.71834   0.38762   0.58609   0.00000  Uiso   1.00
H1336  H     0.75915   0.62683   0.75335   0.00000  Uiso   1.00
H1337  H     0.74184   0.37065   0.63758   0.00000  Uiso   1.00
H1338  H     0.91957   0.61486   0.82108   0.00000  Uiso   1.00
H1339  H     0.98181   0.60169   0.79482   0.00000  Uiso   1.00
H1340  H     0.97070   0.57451   0.89165   0.00000  Uiso   1.00
H1341  H     0.95867   0.62918   0.88944   0.00000  Uiso   1.00
H1342  H     0.90904   0.59227   0.91380   0.00000  Uiso   1.00
H1343  H     0.94123   0.38980   0.98092   0.00000  Uiso   1.00
H1344  H     0.97825   0.42982   0.94791   0.00000  Uiso   1.00
H1345  H     0.87189   0.58188   0.52010   0.00000  Uiso   1.00
H1346  H     0.88442   0.57768   0.58326   0.00000  Uiso   1.00
H1347  H     0.97385   0.45081   0.69358   0.00000  Uiso   1.00
H1348  H     0.80943   0.61678   0.63290   0.00000  Uiso   1.00
H1349  H     0.85028   0.64613   0.57612   0.00000  Uiso   1.00
H1350  H     0.79703   0.62131   0.57006   0.00000  Uiso   1.00
H1351  H     0.67868   0.52065   0.93548   0.00000  Uiso   1.00
H1352  H     0.70948   0.56653   0.92305   0.00000  Uiso   1.00
H1353  H     0.69728   0.57271   0.54810   0.00000  Uiso   1.00
H1354  H     0.66999   0.52571   0.56366   0.00000  Uiso   1.00
H1355  H     0.69160   0.54622   0.81055   0.00000  Uiso   1.00
H1356  H     0.91245   0.41782   0.91722   0.00000  Uiso   1.00
H1357  H     0.75603   0.52008   0.56726   0.00000  Uiso   1.00
H1358  H     0.85585   0.43809   0.87592   0.00000  Uiso   1.00
H1359  H     0.91050   0.63052   0.73589   0.00000  Uiso   1.00
H1360  H     0.93647   0.41426   0.59788   0.00000  Uiso   1.00
N1361  N     0.71426   0.50001   0.75002   0.00000  Uiso   1.00
N1362  N     0.95239   0.49998   0.75001   0.00000  Uiso   1.00
N1363  N     0.94277   0.44628   0.59317   0.00000  Uiso   1.00
N1364  N     0.95677   0.41812   0.98621   0.00000  Uiso   1.00
N1365  N     0.71286   0.53443   0.91678   0.00000  Uiso   1.00
N1366  N     0.68876   0.54545   0.53127   0.00000  Uiso   1.00
O1367  O     0.79512   0.56108   0.75001   0.00000  Uiso   1.00
O1368  O     0.73490   0.44429   0.68688   0.00000  Uiso   1.00
O1369  O     0.92982   0.55198   0.81848   0.00000  Uiso   1.00
O1370  O     0.82397   0.54440   0.58047   0.00000  Uiso   1.00
O1371  O     0.87157   0.56107   0.75001   0.00000  Uiso   1.00
O1372  O     0.77613   0.50000   0.82681   0.00000  Uiso   1.00
O1373  O     0.85258   0.49999   0.82681   0.00000  Uiso   1.00
O1374  O     0.79510   0.43893   0.75000   0.00000  Uiso   1.00
O1375  O     0.87154   0.43892   0.75000   0.00000  Uiso   1.00
O1376  O     0.81409   0.50001   0.67319   0.00000  Uiso   1.00
O1377  O     0.89053   0.50000   0.67319   0.00000  Uiso   1.00
O1378  O     0.74711   0.37319   0.75743   0.00000  Uiso   1.00
Zn1379 Zn    0.78229   0.50001   0.75000   0.00000  Uiso   1.00
Zn1380 Zn    0.88438   0.49999   0.75000   0.00000  Uiso   1.00
C1381  C     0.16722   0.91332   0.74890   0.00000  Uiso   1.00
C1382  C     0.12108   0.83197   0.91271   0.00000  Uiso   1.00
C1383  C     0.21005   0.97934   0.74140   0.00000  Uiso   1.00
C1384  C     0.13945   0.83249   0.85264   0.00000  Uiso   1.00
C1385  C     0.20921   0.68850   0.74211   0.00000  Uiso   1.00
C1386  C     0.16582   0.70894   0.74883   0.00000  Uiso   1.00
C1387  C     0.12279   0.68672   0.75449   0.00000  Uiso   1.00
C1388  C     0.12473   0.97743   0.75177   0.00000  Uiso   1.00
C1389  C     0.16757   0.95734   0.74730   0.00000  Uiso   1.00
C1390  C     0.31896   0.80628   0.71767   0.00000  Uiso   1.00
C1391  C     0.03448   0.80667   0.71642   0.00000  Uiso   1.00
C1392  C     0.14427   0.82920   0.99299   0.00000  Uiso   1.00
C1393  C     0.01407   0.85973   0.78329   0.00000  Uiso   1.00
C1394  C     0.29911   0.86066   0.78274   0.00000  Uiso   1.00
C1395  C     0.16634   0.75321   0.74978   0.00000  Uiso   1.00
C1396  C     0.19381   0.83258   0.64761   0.00000  Uiso   1.00
C1397  C     0.25209   0.78039   0.51200   0.00000  Uiso   1.00
C1398  C     0.21137   0.82549   0.58884   0.00000  Uiso   1.00
C1399  C     0.07789   0.85268   0.94314   0.00000  Uiso   1.00
C1400  C     0.06661   0.85923   0.99939   0.00000  Uiso   1.00
C1401  C     0.09999   0.84834   0.52372   0.00000  Uiso   1.00
C1402  C     0.04411   0.69904   0.80907   0.00000  Uiso   1.00
C1403  C     0.15075   0.81571   0.93960   0.00000  Uiso   1.00
C1404  C     0.33168   0.72183   0.81236   0.00000  Uiso   1.00
C1405  C     0.06800   0.77073   0.63334   0.00000  Uiso   1.00
C1406  C     0.05090   0.72652   0.62842   0.00000  Uiso   1.00
C1407  C     0.27941   0.92577   0.82570   0.00000  Uiso   1.00
C1408  C     0.27958   0.93069   0.88373   0.00000  Uiso   1.00
C1409  C     0.18857   0.91267   0.56552   0.00000  Uiso   1.00
C1410  C     0.15945   0.95167   0.58755   0.00000  Uiso   1.00
C1411  C     0.18141   0.82127   0.51425   0.00000  Uiso   1.00
C1412  C     0.21809   0.79190   0.98773   0.00000  Uiso   1.00
C1413  C     0.21934   0.77414   0.93823   0.00000  Uiso   1.00
C1414  C     0.18676   0.78628   0.91414   0.00000  Uiso   1.00
C1415  C     0.18397   0.84228   0.56041   0.00000  Uiso   1.00
C1416  C     0.24699   0.79573   0.56414   0.00000  Uiso   1.00
H1417  H     0.24263   0.70520   0.73726   0.00000  Uiso   1.00
H1418  H     0.31263   0.78447   0.56941   0.00000  Uiso   1.00
H1419  H     0.05600   0.71045   0.84277   0.00000  Uiso   1.00
H1420  H     0.03461   0.99878   0.81519   0.00000  Uiso   1.00
H1421  H     0.30141   0.71186   0.84966   0.00000  Uiso   1.00
H1422  H     0.00402   0.75586   0.81438   0.00000  Uiso   1.00
H1423  H     0.32181   0.71438   0.77599   0.00000  Uiso   1.00
H1424  H     0.10590   0.77397   0.60432   0.00000  Uiso   1.00
H1425  H     0.04644   0.79335   0.61964   0.00000  Uiso   1.00
H1426  H     0.01334   0.72144   0.65751   0.00000  Uiso   1.00
H1427  H     0.05167   0.72095   0.58609   0.00000  Uiso   1.00
H1428  H     0.09248   0.96016   0.75335   0.00000  Uiso   1.00
H1429  H     0.07517   0.70399   0.63758   0.00000  Uiso   1.00
H1430  H     0.25291   0.94819   0.82108   0.00000  Uiso   1.00
H1431  H     0.31514   0.93502   0.79482   0.00000  Uiso   1.00
H1432  H     0.30404   0.90784   0.89165   0.00000  Uiso   1.00
H1433  H     0.29201   0.96251   0.88944   0.00000  Uiso   1.00
H1434  H     0.24237   0.92561   0.91380   0.00000  Uiso   1.00
H1435  H     0.27456   0.72313   0.98092   0.00000  Uiso   1.00
H1436  H     0.31158   0.76315   0.94791   0.00000  Uiso   1.00
H1437  H     0.20522   0.91521   0.52010   0.00000  Uiso   1.00
H1438  H     0.21776   0.91101   0.58326   0.00000  Uiso   1.00
H1439  H     0.30718   0.78414   0.69358   0.00000  Uiso   1.00
H1440  H     0.14276   0.95012   0.63290   0.00000  Uiso   1.00
H1441  H     0.18361   0.97946   0.57612   0.00000  Uiso   1.00
H1442  H     0.13036   0.95465   0.57006   0.00000  Uiso   1.00
H1443  H     0.01201   0.85399   0.93548   0.00000  Uiso   1.00
H1444  H     0.04282   0.89986   0.92305   0.00000  Uiso   1.00
H1445  H     0.03061   0.90605   0.54810   0.00000  Uiso   1.00
H1446  H     0.00332   0.85905   0.56366   0.00000  Uiso   1.00
H1447  H     0.02493   0.87956   0.81055   0.00000  Uiso   1.00
H1448  H     0.24578   0.75115   0.91722   0.00000  Uiso   1.00
H1449  H     0.08936   0.85341   0.56726   0.00000  Uiso   1.00
H1450  H     0.18919   0.77143   0.87592   0.00000  Uiso   1.00
H1451  H     0.24383   0.96385   0.73589   0.00000  Uiso   1.00
H1452  H     0.26980   0.74760   0.59788   0.00000  Uiso   1.00
N1453  N     0.04760   0.83334   0.75002   0.00000  Uiso   1.00
N1454  N     0.28573   0.83331   0.75001   0.00000  Uiso   1.00
N1455  N     0.27611   0.77962   0.59317   0.00000  Uiso   1.00
N1456  N     0.29010   0.75146   0.98621   0.00000  Uiso   1.00
N1457  N     0.04619   0.86777   0.91678   0.00000  Uiso   1.00
N1458  N     0.02209   0.87879   0.53127   0.00000  Uiso   1.00
O1459  O     0.12846   0.89442   0.75001   0.00000  Uiso   1.00
O1460  O     0.06823   0.77763   0.68688   0.00000  Uiso   1.00
O1461  O     0.26315   0.88531   0.81848   0.00000  Uiso   1.00
O1462  O     0.15731   0.87774   0.58047   0.00000  Uiso   1.00
O1463  O     0.20490   0.89441   0.75001   0.00000  Uiso   1.00
O1464  O     0.10947   0.83333   0.82681   0.00000  Uiso   1.00
O1465  O     0.18591   0.83332   0.82681   0.00000  Uiso   1.00
O1466  O     0.12843   0.77226   0.75000   0.00000  Uiso   1.00
O1467  O     0.20488   0.77225   0.75000   0.00000  Uiso   1.00
O1468  O     0.14742   0.83335   0.67319   0.00000  Uiso   1.00
O1469  O     0.22387   0.83334   0.67319   0.00000  Uiso   1.00
O1470  O     0.08045   0.70652   0.75743   0.00000  Uiso   1.00
Zn1471 Zn    0.11562   0.83334   0.75000   0.00000  Uiso   1.00
Zn1472 Zn    0.21771   0.83333   0.75000   0.00000  Uiso   1.00
C1473  C     0.50055   0.91332   0.74890   0.00000  Uiso   1.00
C1474  C     0.45441   0.83197   0.91271   0.00000  Uiso   1.00
C1475  C     0.54338   0.97934   0.74140   0.00000  Uiso   1.00
C1476  C     0.47278   0.83249   0.85264   0.00000  Uiso   1.00
C1477  C     0.54255   0.68850   0.74211   0.00000  Uiso   1.00
C1478  C     0.49915   0.70894   0.74883   0.00000  Uiso   1.00
C1479  C     0.45612   0.68672   0.75449   0.00000  Uiso   1.00
C1480  C     0.45806   0.97743   0.75177   0.00000  Uiso   1.00
C1481  C     0.50090   0.95734   0.74730   0.00000  Uiso   1.00
C1482  C     0.65229   0.80628   0.71767   0.00000  Uiso   1.00
C1483  C     0.36781   0.80667   0.71642   0.00000  Uiso   1.00
C1484  C     0.47760   0.82920   0.99299   0.00000  Uiso   1.00
C1485  C     0.34740   0.85973   0.78329   0.00000  Uiso   1.00
C1486  C     0.63244   0.86066   0.78274   0.00000  Uiso   1.00
C1487  C     0.49967   0.75321   0.74978   0.00000  Uiso   1.00
C1488  C     0.52715   0.83258   0.64761   0.00000  Uiso   1.00
C1489  C     0.58543   0.78039   0.51200   0.00000  Uiso   1.00
C1490  C     0.54470   0.82549   0.58884   0.00000  Uiso   1.00
C1491  C     0.41122   0.85268   0.94314   0.00000  Uiso   1.00
C1492  C     0.39994   0.85923   0.99939   0.00000  Uiso   1.00
C1493  C     0.43332   0.84834   0.52372   0.00000  Uiso   1.00
C1494  C     0.37744   0.69904   0.80907   0.00000  Uiso   1.00
C1495  C     0.48409   0.81571   0.93960   0.00000  Uiso   1.00
C1496  C     0.66502   0.72183   0.81236   0.00000  Uiso   1.00
C1497  C     0.40134   0.77073   0.63334   0.00000  Uiso   1.00
C1498  C     0.38423   0.72652   0.62842   0.00000  Uiso   1.00
C1499  C     0.61274   0.92577   0.82570   0.00000  Uiso   1.00
C1500  C     0.61291   0.93069   0.88373   0.00000  Uiso   1.00
C1501  C     0.52191   0.91267   0.56552   0.00000  Uiso   1.00
C1502  C     0.49278   0.95167   0.58755   0.00000  Uiso   1.00
C1503  C     0.51474   0.82127   0.51425   0.00000  Uiso   1.00
C1504  C     0.55142   0.79190   0.98773   0.00000  Uiso   1.00
C1505  C     0.55267   0.77414   0.93823   0.00000  Uiso   1.00
C1506  C     0.52009   0.78628   0.91414   0.00000  Uiso   1.00
C1507  C     0.51730   0.84228   0.56041   0.00000  Uiso   1.00
C1508  C     0.58032   0.79573   0.56414   0.00000  Uiso   1.00
H1509  H     0.57596   0.70520   0.73726   0.00000  Uiso   1.00
H1510  H     0.64597   0.78447   0.56941   0.00000  Uiso   1.00
H1511  H     0.38933   0.71045   0.84277   0.00000  Uiso   1.00
H1512  H     0.36794   0.99878   0.81519   0.00000  Uiso   1.00
H1513  H     0.63475   0.71186   0.84966   0.00000  Uiso   1.00
H1514  H     0.33736   0.75586   0.81438   0.00000  Uiso   1.00
H1515  H     0.65514   0.71438   0.77599   0.00000  Uiso   1.00
H1516  H     0.43924   0.77397   0.60432   0.00000  Uiso   1.00
H1517  H     0.37977   0.79335   0.61964   0.00000  Uiso   1.00
H1518  H     0.34668   0.72144   0.65751   0.00000  Uiso   1.00
H1519  H     0.38501   0.72095   0.58609   0.00000  Uiso   1.00
H1520  H     0.42581   0.96016   0.75335   0.00000  Uiso   1.00
H1521  H     0.40850   0.70399   0.63758   0.00000  Uiso   1.00
H1522  H     0.58624   0.94819   0.82108   0.00000  Uiso   1.00
H1523  H     0.64847   0.93502   0.79482   0.00000  Uiso   1.00
H1524  H     0.63737   0.90784   0.89165   0.00000  Uiso   1.00
H1525  H     0.62534   0.96251   0.88944   0.00000  Uiso   1.00
H1526  H     0.57570   0.92561   0.91380   0.00000  Uiso   1.00
H1527  H     0.60790   0.72313   0.98092   0.00000  Uiso   1.00
H1528  H     0.64491   0.76315   0.94791   0.00000  Uiso   1.00
H1529  H     0.53855   0.91521   0.52010   0.00000  Uiso   1.00
H1530  H     0.55109   0.91101   0.58326   0.00000  Uiso   1.00
H1531  H     0.64051   0.78414   0.69358   0.00000  Uiso   1.00
H1532  H     0.47609   0.95012   0.63290   0.00000  Uiso   1.00
H1533  H     0.51694   0.97946   0.57612   0.00000  Uiso   1.00
H1534  H     0.46369   0.95465   0.57006   0.00000  Uiso   1.00
H1535  H     0.34534   0.85399   0.93548   0.00000  Uiso   1.00
H1536  H     0.37615   0.89986   0.92305   0.00000  Uiso   1.00
H1537  H     0.36395   0.90605   0.54810   0.00000  Uiso   1.00
H1538  H     0.33665   0.85905   0.56366   0.00000  Uiso   1.00
H1539  H     0.35827   0.87956   0.81055   0.00000  Uiso   1.00
H1540  H     0.57912   0.75115   0.91722   0.00000  Uiso   1.00
H1541  H     0.42270   0.85341   0.56726   0.00000  Uiso   1.00
H1542  H     0.52252   0.77143   0.87592   0.00000  Uiso   1.00
H1543  H     0.57717   0.96385   0.73589   0.00000  Uiso   1.00
H1544  H     0.60313   0.74760   0.59788   0.00000  Uiso   1.00
N1545  N     0.38093   0.83334   0.75002   0.00000  Uiso   1.00
N1546  N     0.61906   0.83331   0.75001   0.00000  Uiso   1.00
N1547  N     0.60944   0.77962   0.59317   0.00000  Uiso   1.00
N1548  N     0.62343   0.75146   0.98621   0.00000  Uiso   1.00
N1549  N     0.37953   0.86777   0.91678   0.00000  Uiso   1.00
N1550  N     0.35543   0.87879   0.53127   0.00000  Uiso   1.00
O1551  O     0.46179   0.89442   0.75001   0.00000  Uiso   1.00
O1552  O     0.40157   0.77763   0.68688   0.00000  Uiso   1.00
O1553  O     0.59648   0.88531   0.81848   0.00000  Uiso   1.00
O1554  O     0.49064   0.87774   0.58047   0.00000  Uiso   1.00
O1555  O     0.53823   0.89441   0.75001   0.00000  Uiso   1.00
O1556  O     0.44280   0.83333   0.82681   0.00000  Uiso   1.00
O1557  O     0.51924   0.83332   0.82681   0.00000  Uiso   1.00
O1558  O     0.46177   0.77226   0.75000   0.00000  Uiso   1.00
O1559  O     0.53821   0.77225   0.75000   0.00000  Uiso   1.00
O1560  O     0.48076   0.83335   0.67319   0.00000  Uiso   1.00
O1561  O     0.55720   0.83334   0.67319   0.00000  Uiso   1.00
O1562  O     0.41378   0.70652   0.75743   0.00000  Uiso   1.00
Zn1563 Zn    0.44896   0.83334   0.75000   0.00000  Uiso   1.00
Zn1564 Zn    0.55104   0.83333   0.75000   0.00000  Uiso   1.00
C1565  C     0.83388   0.91332   0.74890   0.00000  Uiso   1.00
C1566  C     0.78774   0.83197   0.91271   0.00000  Uiso   1.00
C1567  C     0.87672   0.97934   0.74140   0.00000  Uiso   1.00
C1568  C     0.80612   0.83249   0.85264   0.00000  Uiso   1.00
C1569  C     0.87588   0.68850   0.74211   0.00000  Uiso   1.00
C1570  C     0.83248   0.70894   0.74883   0.00000  Uiso   1.00
C1571  C     0.78945   0.68672   0.75449   0.00000  Uiso   1.00
C1572  C     0.79140   0.97743   0.75177   0.00000  Uiso   1.00
C1573  C     0.83423   0.95734   0.74730   0.00000  Uiso   1.00
C1574  C     0.98563   0.80628   0.71767   0.00000  Uiso   1.00
C1575  C     0.70114   0.80667   0.71642   0.00000  Uiso   1.00
C1576  C     0.81094   0.82920   0.99299   0.00000  Uiso   1.00
C1577  C     0.68074   0.85973   0.78329   0.00000  Uiso   1.00
C1578  C     0.96577   0.86066   0.78274   0.00000  Uiso   1.00
C1579  C     0.83301   0.75321   0.74978   0.00000  Uiso   1.00
C1580  C     0.86048   0.83258   0.64761   0.00000  Uiso   1.00
C1581  C     0.91876   0.78039   0.51200   0.00000  Uiso   1.00
C1582  C     0.87803   0.82549   0.58884   0.00000  Uiso   1.00
C1583  C     0.74455   0.85268   0.94314   0.00000  Uiso   1.00
C1584  C     0.73327   0.85923   0.99939   0.00000  Uiso   1.00
C1585  C     0.76666   0.84834   0.52372   0.00000  Uiso   1.00
C1586  C     0.71078   0.69904   0.80907   0.00000  Uiso   1.00
C1587  C     0.81742   0.81571   0.93960   0.00000  Uiso   1.00
C1588  C     0.99835   0.72183   0.81236   0.00000  Uiso   1.00
C1589  C     0.73467   0.77073   0.63334   0.00000  Uiso   1.00
C1590  C     0.71756   0.72652   0.62842   0.00000  Uiso   1.00
C1591  C     0.94608   0.92577   0.82570   0.00000  Uiso   1.00
C1592  C     0.94624   0.93069   0.88373   0.00000  Uiso   1.00
C1593  C     0.85524   0.91267   0.56552   0.00000  Uiso   1.00
C1594  C     0.82612   0.95167   0.58755   0.00000  Uiso   1.00
C1595  C     0.84808   0.82127   0.51425   0.00000  Uiso   1.00
C1596  C     0.88476   0.79190   0.98773   0.00000  Uiso   1.00
C1597  C     0.88601   0.77414   0.93823   0.00000  Uiso   1.00
C1598  C     0.85342   0.78628   0.91414   0.00000  Uiso   1.00
C1599  C     0.85063   0.84228   0.56041   0.00000  Uiso   1.00
C1600  C     0.91366   0.79573   0.56414   0.00000  Uiso   1.00
H1601  H     0.90929   0.70520   0.73726   0.00000  Uiso   1.00
H1602  H     0.97930   0.78447   0.56941   0.00000  Uiso   1.00
H1603  H     0.72266   0.71045   0.84277   0.00000  Uiso   1.00
H1604  H     0.70128   0.99878   0.81519   0.00000  Uiso   1.00
H1605  H     0.96808   0.71186   0.84966   0.00000  Uiso   1.00
H1606  H     0.67069   0.75586   0.81438   0.00000  Uiso   1.00
H1607  H     0.98847   0.71438   0.77599   0.00000  Uiso   1.00
H1608  H     0.77257   0.77397   0.60432   0.00000  Uiso   1.00
H1609  H     0.71311   0.79335   0.61964   0.00000  Uiso   1.00
H1610  H     0.68001   0.72144   0.65751   0.00000  Uiso   1.00
H1611  H     0.71834   0.72095   0.58609   0.00000  Uiso   1.00
H1612  H     0.75915   0.96016   0.75335   0.00000  Uiso   1.00
H1613  H     0.74184   0.70399   0.63758   0.00000  Uiso   1.00
H1614  H     0.91957   0.94819   0.82108   0.00000  Uiso   1.00
H1615  H     0.98181   0.93502   0.79482   0.00000  Uiso   1.00
H1616  H     0.97070   0.90784   0.89165   0.00000  Uiso   1.00
H1617  H     0.95867   0.96251   0.88944   0.00000  Uiso   1.00
H1618  H     0.90904   0.92561   0.91380   0.00000  Uiso   1.00
H1619  H     0.94123   0.72313   0.98092   0.00000  Uiso   1.00
H1620  H     0.97825   0.76315   0.94791   0.00000  Uiso   1.00
H1621  H     0.87189   0.91521   0.52010   0.00000  Uiso   1.00
H1622  H     0.88442   0.91101   0.58326   0.00000  Uiso   1.00
H1623  H     0.97385   0.78414   0.69358   0.00000  Uiso   1.00
H1624  H     0.80943   0.95012   0.63290   0.00000  Uiso   1.00
H1625  H     0.85028   0.97946   0.57612   0.00000  Uiso   1.00
H1626  H     0.79703   0.95465   0.57006   0.00000  Uiso   1.00
H1627  H     0.67868   0.85399   0.93548   0.00000  Uiso   1.00
H1628  H     0.70948   0.89986   0.92305   0.00000  Uiso   1.00
H1629  H     0.69728   0.90605   0.54810   0.00000  Uiso   1.00
H1630  H     0.66999   0.85905   0.56366   0.00000  Uiso   1.00
H1631  H     0.69160   0.87956   0.81055   0.00000  Uiso   1.00
H1632  H     0.91245   0.75115   0.91722   0.00000  Uiso   1.00
H1633  H     0.75603   0.85341   0.56726   0.00000  Uiso   1.00
H1634  H     0.85585   0.77143   0.87592   0.00000  Uiso   1.00
H1635  H     0.91050   0.96385   0.73589   0.00000  Uiso   1.00
H1636  H     0.93647   0.74760   0.59788   0.00000  Uiso   1.00
N1637  N     0.71426   0.83334   0.75002   0.00000  Uiso   1.00
N1638  N     0.95239   0.83331   0.75001   0.00000  Uiso   1.00
N1639  N     0.94277   0.77962   0.59317   0.00000  Uiso   1.00
N1640  N     0.95677   0.75146   0.98621   0.00000  Uiso   1.00
N1641  N     0.71286   0.86777   0.91678   0.00000  Uiso   1.00
N1642  N     0.68876   0.87879   0.53127   0.00000  Uiso   1.00
O1643  O     0.79512   0.89442   0.75001   0.00000  Uiso   1.00
O1644  O     0.73490   0.77763   0.68688   0.00000  Uiso   1.00
O1645  O     0.92982   0.88531   0.81848   0.00000  Uiso   1.00
O1646  O     0.82397   0.87774   0.58047   0.00000  Uiso   1.00
O1647  O     0.87157   0.89441   0.75001   0.00000  Uiso   1.00
O1648  O     0.77613   0.83333   0.82681   0.00000  Uiso   1.00
O1649  O     0.85258   0.83332   0.82681   0.00000  Uiso   1.00
O1650  O     0.79510   0.77226   0.75000   0.00000  Uiso   1.00
O1651  O     0.87154   0.77225   0.75000   0.00000  Uiso   1.00
O1652  O     0.81409   0.83335   0.67319   0.00000  Uiso   1.00
O1653  O     0.89053   0.83334   0.67319   0.00000  Uiso   1.00
O1654  O     0.74711   0.70652   0.75743   0.00000  Uiso   1.00
Zn1655 Zn    0.78229   0.83334   0.75000   0.00000  Uiso   1.00
Zn1656 Zn    0.88438   0.83333   0.75000   0.00000  Uiso   1.00
loop_
_geom_bond_atom_site_label_1
_geom_bond_atom_site_label_2
_geom_bond_distance
_geom_bond_site_symmetry_2
_ccdc_geom_bond_type
C1     C9      1.418   .     S
C1     O79     1.279   .     A
C1     O83     1.284   .     A
C2     C4      1.467   .     S
C2     C23     1.409   .     A
C2     C19     1.413   .     A
C3     H71     1.083   .     S
C3     C9      1.391   .     A
C3     C281    1.369   .     S
C4     O85     1.295   .     A
C4     O84     1.289   .     A
C5     H37     1.084   .     S
C5     C6      1.401   .     A
C5     C555    1.369   1_545 S
C6     C15     1.426   .     S
C6     C7      1.410   .     A
C7     O90     1.387   .     S
C7     C560    1.375   1_545 S
C8     C9      1.394   .     A
C8     H48     1.083   .     S
C8     C283    1.375   .     S
C10    N74     1.362   .     A
C10    H59     1.080   .     S
C10    C103    1.429   .     S
C11    N73     1.370   .     A
C11    O80     1.390   .     S
C11    C194    1.429   1_455 S
C12    C23     1.404   .     A
C12    C849    1.414   .     S
C12    C859    1.419   .     S
C13    H67     1.080   .     S
C13    N73     1.363   .     A
C13    C198    1.430   1_455 S
C14    N74     1.371   .     A
C14    O81     1.391   .     S
C14    C105    1.430   .     S
C15    O86     1.281   .     A
C15    O87     1.286   .     A
C16    O89     1.285   .     A
C16    C18     1.452   .     S
C16    O88     1.293   .     A
C17    C36     1.402   .     A
C17    C860    1.417   1_554 S
C17    N904    1.436   1_554 S
C18    C35     1.393   .     A
C18    C36     1.406   .     A
C19    C20     1.401   .     A
C19    N77     1.434   .     S
C20    C849    1.397   .     S
C20    N906    1.433   .     S
C21    H69     1.079   .     S
C21    C848    1.397   1_554 S
C21    C840    1.414   1_554 S
C22    O90     1.414   .     S
C22    H39     1.115   .     S
C22    C208    1.520   1_455 S
C22    H592    1.112   1_545 S
C23    C34     1.409   .     A
C24    H41     1.109   .     S
C24    H43     1.111   .     S
C24    C114    1.520   .     S
C24    H134    1.110   .     S
C25    O80     1.416   .     S
C25    H44     1.110   .     S
C25    C26     1.524   .     S
C25    H45     1.114   .     S
C26    H49     1.111   .     S
C26    H47     1.110   .     S
C26    H46     1.110   .     S
C27    H50     1.109   .     S
C27    H51     1.115   .     S
C27    O81     1.416   .     S
C27    C28     1.524   .     S
C28    H54     1.111   .     S
C28    H53     1.110   .     S
C28    H52     1.107   .     S
C29    C30     1.521   .     S
C29    H57     1.114   .     S
C29    O82     1.411   .     S
C29    H58     1.114   .     S
C30    H60     1.111   .     S
C30    H62     1.111   .     S
C30    H61     1.111   .     S
C31    C35     1.402   .     A
C31    C840    1.419   1_554 S
C31    C860    1.425   1_554 S
C32    C33     1.398   .     A
C32    C845    1.417   .     S
C32    C859    1.425   .     S
C33    C34     1.383   .     A
C33    H68     1.079   .     S
C34    H70     1.083   .     S
C35    O82     1.385   .     S
C36    N75     1.435   .     S
H38    N75     1.045   .     S
H40    C298    1.112   .     S
H42    C208    1.110   1_455 S
H55    N76     1.045   .     S
H56    N76     1.046   .     S
H63    N77     1.046   .     S
H64    N77     1.046   .     S
H65    N78     1.046   .     S
H66    N78     1.045   .     S
H72    N75     1.046   .     S
N73    Zn91    2.006   .     S
N74    Zn92    2.006   .     S
N76    C845    1.436   .     S
N78    C848    1.433   1_554 S
O79    Zn91    1.998   .     S
O83    Zn92    2.008   .     S
O84    Zn91    1.948   .     S
O85    Zn92    1.889   .     S
O86    Zn91    2.008   .     S
O87    Zn92    1.998   .     S
O88    Zn91    1.889   .     S
O89    Zn92    1.948   .     S
C93    C101    1.418   .     S
C93    O171    1.279   .     A
C93    O175    1.284   .     A
C94    C96     1.467   .     S
C94    C115    1.409   .     A
C94    C111    1.413   .     A
C95    H163    1.083   .     S
C95    C101    1.391   .     A
C95    C373    1.369   .     S
C96    O177    1.295   .     A
C96    O176    1.289   .     A
C97    H129    1.084   .     S
C97    C98     1.401   .     A
C97    C647    1.369   1_545 S
C98    C107    1.426   .     S
C98    C99     1.410   .     A
C99    O182    1.387   .     S
C99    C652    1.375   1_545 S
C100   C101    1.394   .     A
C100   H140    1.083   .     S
C100   C375    1.375   .     S
C102   N166    1.362   .     A
C102   H151    1.080   .     S
C102   C195    1.429   .     S
C103   N165    1.370   .     A
C103   O172    1.390   .     S
C104   C115    1.404   .     A
C104   C941    1.414   .     S
C104   C951    1.419   .     S
C105   H159    1.080   .     S
C105   N165    1.363   .     A
C106   N166    1.371   .     A
C106   O173    1.391   .     S
C106   C197    1.430   .     S
C107   O178    1.281   .     A
C107   O179    1.286   .     A
C108   O181    1.285   .     A
C108   C110    1.452   .     S
C108   O180    1.293   .     A
C109   C128    1.402   .     A
C109   C952    1.417   1_554 S
C109   N996    1.436   1_554 S
C110   C127    1.393   .     A
C110   C128    1.406   .     A
C111   C112    1.401   .     A
C111   N169    1.434   .     S
C112   C941    1.397   .     S
C112   N998    1.433   .     S
C113   H161    1.079   .     S
C113   C940    1.397   1_554 S
C113   C932    1.414   1_554 S
C114   O182    1.414   .     S
C114   H131    1.115   .     S
C114   H684    1.112   1_545 S
C115   C126    1.409   .     A
C116   H133    1.109   .     S
C116   H135    1.111   .     S
C116   C206    1.520   .     S
C116   H226    1.110   .     S
C117   O172    1.416   .     S
C117   H136    1.110   .     S
C117   C118    1.524   .     S
C117   H137    1.114   .     S
C118   H141    1.111   .     S
C118   H139    1.110   .     S
C118   H138    1.110   .     S
C119   H142    1.109   .     S
C119   H143    1.115   .     S
C119   O173    1.416   .     S
C119   C120    1.524   .     S
C120   H146    1.111   .     S
C120   H145    1.110   .     S
C120   H144    1.107   .     S
C121   C122    1.521   .     S
C121   H149    1.114   .     S
C121   O174    1.411   .     S
C121   H150    1.114   .     S
C122   H152    1.111   .     S
C122   H154    1.111   .     S
C122   H153    1.111   .     S
C123   C127    1.402   .     A
C123   C932    1.419   1_554 S
C123   C952    1.425   1_554 S
C124   C125    1.398   .     A
C124   C937    1.417   .     S
C124   C951    1.425   .     S
C125   C126    1.383   .     A
C125   H160    1.079   .     S
C126   H162    1.083   .     S
C127   O174    1.385   .     S
C128   N167    1.435   .     S
H130   N167    1.045   .     S
H132   C390    1.112   .     S
H147   N168    1.045   .     S
H148   N168    1.046   .     S
H155   N169    1.046   .     S
H156   N169    1.046   .     S
H157   N170    1.046   .     S
H158   N170    1.045   .     S
H164   N167    1.046   .     S
N165   Zn183   2.006   .     S
N166   Zn184   2.006   .     S
N168   C937    1.436   .     S
N170   C940    1.433   1_554 S
O171   Zn183   1.998   .     S
O175   Zn184   2.008   .     S
O176   Zn183   1.948   .     S
O177   Zn184   1.889   .     S
O178   Zn183   2.008   .     S
O179   Zn184   1.998   .     S
O180   Zn183   1.889   .     S
O181   Zn184   1.948   .     S
C185   C193    1.418   .     S
C185   O263    1.279   .     A
C185   O267    1.284   .     A
C186   C188    1.467   .     S
C186   C207    1.409   .     A
C186   C203    1.413   .     A
C187   H255    1.083   .     S
C187   C193    1.391   .     A
C187   C465    1.369   .     S
C188   O269    1.295   .     A
C188   O268    1.289   .     A
C189   H221    1.084   .     S
C189   C190    1.401   .     A
C189   C739    1.369   1_545 S
C190   C199    1.426   .     S
C190   C191    1.410   .     A
C191   O274    1.387   .     S
C191   C744    1.375   1_545 S
C192   C193    1.394   .     A
C192   H232    1.083   .     S
C192   C467    1.375   .     S
C194   N258    1.362   .     A
C194   H243    1.080   .     S
C194   C11     1.429   1_655 S
C195   N257    1.370   .     A
C195   O264    1.390   .     S
C196   C207    1.404   .     A
C196   C1033   1.414   .     S
C196   C1043   1.419   .     S
C197   H251    1.080   .     S
C197   N257    1.363   .     A
C198   N258    1.371   .     A
C198   O265    1.391   .     S
C198   C13     1.430   1_655 S
C199   O270    1.281   .     A
C199   O271    1.286   .     A
C200   O273    1.285   .     A
C200   C202    1.452   .     S
C200   O272    1.293   .     A
C201   C220    1.402   .     A
C201   C1044   1.417   1_554 S
C201   N1088   1.436   1_554 S
C202   C219    1.393   .     A
C202   C220    1.406   .     A
C203   C204    1.401   .     A
C203   N261    1.434   .     S
C204   C1033   1.397   .     S
C204   N1090   1.433   .     S
C205   H253    1.079   .     S
C205   C1032   1.397   1_554 S
C205   C1024   1.414   1_554 S
C206   O274    1.414   .     S
C206   H223    1.115   .     S
C206   H776    1.112   1_545 S
C207   C218    1.409   .     A
C208   H225    1.109   .     S
C208   H227    1.111   .     S
C208   C22     1.520   1_655 S
C208   H42     1.110   1_655 S
C209   O264    1.416   .     S
C209   H228    1.110   .     S
C209   C210    1.524   .     S
C209   H229    1.114   .     S
C210   H233    1.111   .     S
C210   H231    1.110   .     S
C210   H230    1.110   .     S
C211   H234    1.109   .     S
C211   H235    1.115   .     S
C211   O265    1.416   .     S
C211   C212    1.524   .     S
C212   H238    1.111   .     S
C212   H237    1.110   .     S
C212   H236    1.107   .     S
C213   C214    1.521   .     S
C213   H241    1.114   .     S
C213   O266    1.411   .     S
C213   H242    1.114   .     S
C214   H244    1.111   .     S
C214   H246    1.111   .     S
C214   H245    1.111   .     S
C215   C219    1.402   .     A
C215   C1024   1.419   1_554 S
C215   C1044   1.425   1_554 S
C216   C217    1.398   .     A
C216   C1029   1.417   .     S
C216   C1043   1.425   .     S
C217   C218    1.383   .     A
C217   H252    1.079   .     S
C218   H254    1.083   .     S
C219   O266    1.385   .     S
C220   N259    1.435   .     S
H222   N259    1.045   .     S
H224   C482    1.112   .     S
H239   N260    1.045   .     S
H240   N260    1.046   .     S
H247   N261    1.046   .     S
H248   N261    1.046   .     S
H249   N262    1.046   .     S
H250   N262    1.045   .     S
H256   N259    1.046   .     S
N257   Zn275   2.006   .     S
N258   Zn276   2.006   .     S
N260   C1029   1.436   .     S
N262   C1032   1.433   1_554 S
O263   Zn275   1.998   .     S
O267   Zn276   2.008   .     S
O268   Zn275   1.948   .     S
O269   Zn276   1.889   .     S
O270   Zn275   2.008   .     S
O271   Zn276   1.998   .     S
O272   Zn275   1.889   .     S
O273   Zn276   1.948   .     S
C277   C285    1.418   .     S
C277   O355    1.279   .     A
C277   O359    1.284   .     A
C278   C280    1.467   .     S
C278   C299    1.409   .     A
C278   C295    1.413   .     A
C279   H347    1.083   .     S
C279   C285    1.391   .     A
C279   C557    1.369   .     S
C280   O361    1.295   .     A
C280   O360    1.289   .     A
C281   H313    1.084   .     S
C281   C282    1.401   .     A
C282   C291    1.426   .     S
C282   C283    1.410   .     A
C283   O366    1.387   .     S
C284   C285    1.394   .     A
C284   H324    1.083   .     S
C284   C559    1.375   .     S
C286   N350    1.362   .     A
C286   H335    1.080   .     S
C286   C379    1.429   .     S
C287   N349    1.370   .     A
C287   O356    1.390   .     S
C287   C470    1.429   1_455 S
C288   C299    1.404   .     A
C288   C1125   1.414   .     S
C288   C1135   1.419   .     S
C289   H343    1.080   .     S
C289   N349    1.363   .     A
C289   C474    1.430   1_455 S
C290   N350    1.371   .     A
C290   O357    1.391   .     S
C290   C381    1.430   .     S
C291   O362    1.281   .     A
C291   O363    1.286   .     A
C292   O365    1.285   .     A
C292   C294    1.452   .     S
C292   O364    1.293   .     A
C293   C312    1.402   .     A
C293   C1136   1.417   1_554 S
C293   N1180   1.436   1_554 S
C294   C311    1.393   .     A
C294   C312    1.406   .     A
C295   C296    1.401   .     A
C295   N353    1.434   .     S
C296   C1125   1.397   .     S
C296   N1182   1.433   .     S
C297   H345    1.079   .     S
C297   C1124   1.397   1_554 S
C297   C1116   1.414   1_554 S
C298   O366    1.414   .     S
C298   H315    1.115   .     S
C298   C484    1.520   1_455 S
C299   C310    1.409   .     A
C300   H317    1.109   .     S
C300   H319    1.111   .     S
C300   C390    1.520   .     S
C300   H410    1.110   .     S
C301   O356    1.416   .     S
C301   H320    1.110   .     S
C301   C302    1.524   .     S
C301   H321    1.114   .     S
C302   H325    1.111   .     S
C302   H323    1.110   .     S
C302   H322    1.110   .     S
C303   H326    1.109   .     S
C303   H327    1.115   .     S
C303   O357    1.416   .     S
C303   C304    1.524   .     S
C304   H330    1.111   .     S
C304   H329    1.110   .     S
C304   H328    1.107   .     S
C305   C306    1.521   .     S
C305   H333    1.114   .     S
C305   O358    1.411   .     S
C305   H334    1.114   .     S
C306   H336    1.111   .     S
C306   H338    1.111   .     S
C306   H337    1.111   .     S
C307   C311    1.402   .     A
C307   C1116   1.419   1_554 S
C307   C1136   1.425   1_554 S
C308   C309    1.398   .     A
C308   C1121   1.417   .     S
C308   C1135   1.425   .     S
C309   C310    1.383   .     A
C309   H344    1.079   .     S
C310   H346    1.083   .     S
C311   O358    1.385   .     S
C312   N351    1.435   .     S
H314   N351    1.045   .     S
H316   C574    1.112   .     S
H318   C484    1.110   1_455 S
H331   N352    1.045   .     S
H332   N352    1.046   .     S
H339   N353    1.046   .     S
H340   N353    1.046   .     S
H341   N354    1.046   .     S
H342   N354    1.045   .     S
H348   N351    1.046   .     S
N349   Zn367   2.006   .     S
N350   Zn368   2.006   .     S
N352   C1121   1.436   .     S
N354   C1124   1.433   1_554 S
O355   Zn367   1.998   .     S
O359   Zn368   2.008   .     S
O360   Zn367   1.948   .     S
O361   Zn368   1.889   .     S
O362   Zn367   2.008   .     S
O363   Zn368   1.998   .     S
O364   Zn367   1.889   .     S
O365   Zn368   1.948   .     S
C369   C377    1.418   .     S
C369   O447    1.279   .     A
C369   O451    1.284   .     A
C370   C372    1.467   .     S
C370   C391    1.409   .     A
C370   C387    1.413   .     A
C371   H439    1.083   .     S
C371   C377    1.391   .     A
C371   C649    1.369   .     S
C372   O453    1.295   .     A
C372   O452    1.289   .     A
C373   H405    1.084   .     S
C373   C374    1.401   .     A
C374   C383    1.426   .     S
C374   C375    1.410   .     A
C375   O458    1.387   .     S
C376   C377    1.394   .     A
C376   H416    1.083   .     S
C376   C651    1.375   .     S
C378   N442    1.362   .     A
C378   H427    1.080   .     S
C378   C471    1.429   .     S
C379   N441    1.370   .     A
C379   O448    1.390   .     S
C380   C391    1.404   .     A
C380   C1217   1.414   .     S
C380   C1227   1.419   .     S
C381   H435    1.080   .     S
C381   N441    1.363   .     A
C382   N442    1.371   .     A
C382   O449    1.391   .     S
C382   C473    1.430   .     S
C383   O454    1.281   .     A
C383   O455    1.286   .     A
C384   O457    1.285   .     A
C384   C386    1.452   .     S
C384   O456    1.293   .     A
C385   C404    1.402   .     A
C385   C1228   1.417   1_554 S
C385   N1272   1.436   1_554 S
C386   C403    1.393   .     A
C386   C404    1.406   .     A
C387   C388    1.401   .     A
C387   N445    1.434   .     S
C388   C1217   1.397   .     S
C388   N1274   1.433   .     S
C389   H437    1.079   .     S
C389   C1216   1.397   1_554 S
C389   C1208   1.414   1_554 S
C390   O458    1.414   .     S
C390   H407    1.115   .     S
C391   C402    1.409   .     A
C392   H409    1.109   .     S
C392   H411    1.111   .     S
C392   C482    1.520   .     S
C392   H502    1.110   .     S
C393   O448    1.416   .     S
C393   H412    1.110   .     S
C393   C394    1.524   .     S
C393   H413    1.114   .     S
C394   H417    1.111   .     S
C394   H415    1.110   .     S
C394   H414    1.110   .     S
C395   H418    1.109   .     S
C395   H419    1.115   .     S
C395   O449    1.416   .     S
C395   C396    1.524   .     S
C396   H422    1.111   .     S
C396   H421    1.110   .     S
C396   H420    1.107   .     S
C397   C398    1.521   .     S
C397   H425    1.114   .     S
C397   O450    1.411   .     S
C397   H426    1.114   .     S
C398   H428    1.111   .     S
C398   H430    1.111   .     S
C398   H429    1.111   .     S
C399   C403    1.402   .     A
C399   C1208   1.419   1_554 S
C399   C1228   1.425   1_554 S
C400   C401    1.398   .     A
C400   C1213   1.417   .     S
C400   C1227   1.425   .     S
C401   C402    1.383   .     A
C401   H436    1.079   .     S
C402   H438    1.083   .     S
C403   O450    1.385   .     S
C404   N443    1.435   .     S
H406   N443    1.045   .     S
H408   C666    1.112   .     S
H423   N444    1.045   .     S
H424   N444    1.046   .     S
H431   N445    1.046   .     S
H432   N445    1.046   .     S
H433   N446    1.046   .     S
H434   N446    1.045   .     S
H440   N443    1.046   .     S
N441   Zn459   2.006   .     S
N442   Zn460   2.006   .     S
N444   C1213   1.436   .     S
N446   C1216   1.433   1_554 S
O447   Zn459   1.998   .     S
O451   Zn460   2.008   .     S
O452   Zn459   1.948   .     S
O453   Zn460   1.889   .     S
O454   Zn459   2.008   .     S
O455   Zn460   1.998   .     S
O456   Zn459   1.889   .     S
O457   Zn460   1.948   .     S
C461   C469    1.418   .     S
C461   O539    1.279   .     A
C461   O543    1.284   .     A
C462   C464    1.467   .     S
C462   C483    1.409   .     A
C462   C479    1.413   .     A
C463   H531    1.083   .     S
C463   C469    1.391   .     A
C463   C741    1.369   .     S
C464   O545    1.295   .     A
C464   O544    1.289   .     A
C465   H497    1.084   .     S
C465   C466    1.401   .     A
C466   C475    1.426   .     S
C466   C467    1.410   .     A
C467   O550    1.387   .     S
C468   C469    1.394   .     A
C468   H508    1.083   .     S
C468   C743    1.375   .     S
C470   N534    1.362   .     A
C470   H519    1.080   .     S
C470   C287    1.429   1_655 S
C471   N533    1.370   .     A
C471   O540    1.390   .     S
C472   C483    1.404   .     A
C472   C1309   1.414   .     S
C472   C1319   1.419   .     S
C473   H527    1.080   .     S
C473   N533    1.363   .     A
C474   N534    1.371   .     A
C474   O541    1.391   .     S
C474   C289    1.430   1_655 S
C475   O546    1.281   .     A
C475   O547    1.286   .     A
C476   O549    1.285   .     A
C476   C478    1.452   .     S
C476   O548    1.293   .     A
C477   C496    1.402   .     A
C477   C1320   1.417   1_554 S
C477   N1364   1.436   1_554 S
C478   C495    1.393   .     A
C478   C496    1.406   .     A
C479   C480    1.401   .     A
C479   N537    1.434   .     S
C480   C1309   1.397   .     S
C480   N1366   1.433   .     S
C481   H529    1.079   .     S
C481   C1308   1.397   1_554 S
C481   C1300   1.414   1_554 S
C482   O550    1.414   .     S
C482   H499    1.115   .     S
C483   C494    1.409   .     A
C484   H501    1.109   .     S
C484   H503    1.111   .     S
C484   C298    1.520   1_655 S
C484   H318    1.110   1_655 S
C485   O540    1.416   .     S
C485   H504    1.110   .     S
C485   C486    1.524   .     S
C485   H505    1.114   .     S
C486   H509    1.111   .     S
C486   H507    1.110   .     S
C486   H506    1.110   .     S
C487   H510    1.109   .     S
C487   H511    1.115   .     S
C487   O541    1.416   .     S
C487   C488    1.524   .     S
C488   H514    1.111   .     S
C488   H513    1.110   .     S
C488   H512    1.107   .     S
C489   C490    1.521   .     S
C489   H517    1.114   .     S
C489   O542    1.411   .     S
C489   H518    1.114   .     S
C490   H520    1.111   .     S
C490   H522    1.111   .     S
C490   H521    1.111   .     S
C491   C495    1.402   .     A
C491   C1300   1.419   1_554 S
C491   C1320   1.425   1_554 S
C492   C493    1.398   .     A
C492   C1305   1.417   .     S
C492   C1319   1.425   .     S
C493   C494    1.383   .     A
C493   H528    1.079   .     S
C494   H530    1.083   .     S
C495   O542    1.385   .     S
C496   N535    1.435   .     S
H498   N535    1.045   .     S
H500   C758    1.112   .     S
H515   N536    1.045   .     S
H516   N536    1.046   .     S
H523   N537    1.046   .     S
H524   N537    1.046   .     S
H525   N538    1.046   .     S
H526   N538    1.045   .     S
H532   N535    1.046   .     S
N533   Zn551   2.006   .     S
N534   Zn552   2.006   .     S
N536   C1305   1.436   .     S
N538   C1308   1.433   1_554 S
O539   Zn551   1.998   .     S
O543   Zn552   2.008   .     S
O544   Zn551   1.948   .     S
O545   Zn552   1.889   .     S
O546   Zn551   2.008   .     S
O547   Zn552   1.998   .     S
O548   Zn551   1.889   .     S
O549   Zn552   1.948   .     S
C553   C561    1.418   .     S
C553   O631    1.279   .     A
C553   O635    1.284   .     A
C554   C556    1.467   .     S
C554   C575    1.409   .     A
C554   C571    1.413   .     A
C555   H623    1.083   .     S
C555   C561    1.391   .     A
C555   C5      1.369   1_565 S
C556   O637    1.295   .     A
C556   O636    1.289   .     A
C557   H589    1.084   .     S
C557   C558    1.401   .     A
C558   C567    1.426   .     S
C558   C559    1.410   .     A
C559   O642    1.387   .     S
C560   C561    1.394   .     A
C560   H600    1.083   .     S
C560   C7      1.375   1_565 S
C562   N626    1.362   .     A
C562   H611    1.080   .     S
C562   C655    1.429   .     S
C563   N625    1.370   .     A
C563   O632    1.390   .     S
C563   C746    1.429   1_455 S
C564   C575    1.404   .     A
C564   C1401   1.414   .     S
C564   C1411   1.419   .     S
C565   H619    1.080   .     S
C565   N625    1.363   .     A
C565   C750    1.430   1_455 S
C566   N626    1.371   .     A
C566   O633    1.391   .     S
C566   C657    1.430   .     S
C567   O638    1.281   .     A
C567   O639    1.286   .     A
C568   O641    1.285   .     A
C568   C570    1.452   .     S
C568   O640    1.293   .     A
C569   C588    1.402   .     A
C569   C1412   1.417   1_554 S
C569   N1456   1.436   1_554 S
C570   C587    1.393   .     A
C570   C588    1.406   .     A
C571   C572    1.401   .     A
C571   N629    1.434   .     S
C572   C1401   1.397   .     S
C572   N1458   1.433   .     S
C573   H621    1.079   .     S
C573   C1400   1.397   1_554 S
C573   C1392   1.414   1_554 S
C574   O642    1.414   .     S
C574   H591    1.115   .     S
C574   C760    1.520   1_455 S
C575   C586    1.409   .     A
C576   H593    1.109   .     S
C576   H595    1.111   .     S
C576   C666    1.520   .     S
C576   H686    1.110   .     S
C577   O632    1.416   .     S
C577   H596    1.110   .     S
C577   C578    1.524   .     S
C577   H597    1.114   .     S
C578   H601    1.111   .     S
C578   H599    1.110   .     S
C578   H598    1.110   .     S
C579   H602    1.109   .     S
C579   H603    1.115   .     S
C579   O633    1.416   .     S
C579   C580    1.524   .     S
C580   H606    1.111   .     S
C580   H605    1.110   .     S
C580   H604    1.107   .     S
C581   C582    1.521   .     S
C581   H609    1.114   .     S
C581   O634    1.411   .     S
C581   H610    1.114   .     S
C582   H612    1.111   .     S
C582   H614    1.111   .     S
C582   H613    1.111   .     S
C583   C587    1.402   .     A
C583   C1392   1.419   1_554 S
C583   C1412   1.425   1_554 S
C584   C585    1.398   .     A
C584   C1397   1.417   .     S
C584   C1411   1.425   .     S
C585   C586    1.383   .     A
C585   H620    1.079   .     S
C586   H622    1.083   .     S
C587   O634    1.385   .     S
C588   N627    1.435   .     S
H590   N627    1.045   .     S
H592   C22     1.112   1_565 S
H594   C760    1.110   1_455 S
H607   N628    1.045   .     S
H608   N628    1.046   .     S
H615   N629    1.046   .     S
H616   N629    1.046   .     S
H617   N630    1.046   .     S
H618   N630    1.045   .     S
H624   N627    1.046   .     S
N625   Zn643   2.006   .     S
N626   Zn644   2.006   .     S
N628   C1397   1.436   .     S
N630   C1400   1.433   1_554 S
O631   Zn643   1.998   .     S
O635   Zn644   2.008   .     S
O636   Zn643   1.948   .     S
O637   Zn644   1.889   .     S
O638   Zn643   2.008   .     S
O639   Zn644   1.998   .     S
O640   Zn643   1.889   .     S
O641   Zn644   1.948   .     S
C645   C653    1.418   .     S
C645   O723    1.279   .     A
C645   O727    1.284   .     A
C646   C648    1.467   .     S
C646   C667    1.409   .     A
C646   C663    1.413   .     A
C647   H715    1.083   .     S
C647   C653    1.391   .     A
C647   C97     1.369   1_565 S
C648   O729    1.295   .     A
C648   O728    1.289   .     A
C649   H681    1.084   .     S
C649   C650    1.401   .     A
C650   C659    1.426   .     S
C650   C651    1.410   .     A
C651   O734    1.387   .     S
C652   C653    1.394   .     A
C652   H692    1.083   .     S
C652   C99     1.375   1_565 S
C654   N718    1.362   .     A
C654   H703    1.080   .     S
C654   C747    1.429   .     S
C655   N717    1.370   .     A
C655   O724    1.390   .     S
C656   C667    1.404   .     A
C656   C1493   1.414   .     S
C656   C1503   1.419   .     S
C657   H711    1.080   .     S
C657   N717    1.363   .     A
C658   N718    1.371   .     A
C658   O725    1.391   .     S
C658   C749    1.430   .     S
C659   O730    1.281   .     A
C659   O731    1.286   .     A
C660   O733    1.285   .     A
C660   C662    1.452   .     S
C660   O732    1.293   .     A
C661   C680    1.402   .     A
C661   C1504   1.417   1_554 S
C661   N1548   1.436   1_554 S
C662   C679    1.393   .     A
C662   C680    1.406   .     A
C663   C664    1.401   .     A
C663   N721    1.434   .     S
C664   C1493   1.397   .     S
C664   N1550   1.433   .     S
C665   H713    1.079   .     S
C665   C1492   1.397   1_554 S
C665   C1484   1.414   1_554 S
C666   O734    1.414   .     S
C666   H683    1.115   .     S
C667   C678    1.409   .     A
C668   H685    1.109   .     S
C668   H687    1.111   .     S
C668   C758    1.520   .     S
C668   H778    1.110   .     S
C669   O724    1.416   .     S
C669   H688    1.110   .     S
C669   C670    1.524   .     S
C669   H689    1.114   .     S
C670   H693    1.111   .     S
C670   H691    1.110   .     S
C670   H690    1.110   .     S
C671   H694    1.109   .     S
C671   H695    1.115   .     S
C671   O725    1.416   .     S
C671   C672    1.524   .     S
C672   H698    1.111   .     S
C672   H697    1.110   .     S
C672   H696    1.107   .     S
C673   C674    1.521   .     S
C673   H701    1.114   .     S
C673   O726    1.411   .     S
C673   H702    1.114   .     S
C674   H704    1.111   .     S
C674   H706    1.111   .     S
C674   H705    1.111   .     S
C675   C679    1.402   .     A
C675   C1484   1.419   1_554 S
C675   C1504   1.425   1_554 S
C676   C677    1.398   .     A
C676   C1489   1.417   .     S
C676   C1503   1.425   .     S
C677   C678    1.383   .     A
C677   H712    1.079   .     S
C678   H714    1.083   .     S
C679   O726    1.385   .     S
C680   N719    1.435   .     S
H682   N719    1.045   .     S
H684   C114    1.112   1_565 S
H699   N720    1.045   .     S
H700   N720    1.046   .     S
H707   N721    1.046   .     S
H708   N721    1.046   .     S
H709   N722    1.046   .     S
H710   N722    1.045   .     S
H716   N719    1.046   .     S
N717   Zn735   2.006   .     S
N718   Zn736   2.006   .     S
N720   C1489   1.436   .     S
N722   C1492   1.433   1_554 S
O723   Zn735   1.998   .     S
O727   Zn736   2.008   .     S
O728   Zn735   1.948   .     S
O729   Zn736   1.889   .     S
O730   Zn735   2.008   .     S
O731   Zn736   1.998   .     S
O732   Zn735   1.889   .     S
O733   Zn736   1.948   .     S
C737   C745    1.418   .     S
C737   O815    1.279   .     A
C737   O819    1.284   .     A
C738   C740    1.467   .     S
C738   C759    1.409   .     A
C738   C755    1.413   .     A
C739   H807    1.083   .     S
C739   C745    1.391   .     A
C739   C189    1.369   1_565 S
C740   O821    1.295   .     A
C740   O820    1.289   .     A
C741   H773    1.084   .     S
C741   C742    1.401   .     A
C742   C751    1.426   .     S
C742   C743    1.410   .     A
C743   O826    1.387   .     S
C744   C745    1.394   .     A
C744   H784    1.083   .     S
C744   C191    1.375   1_565 S
C746   N810    1.362   .     A
C746   H795    1.080   .     S
C746   C563    1.429   1_655 S
C747   N809    1.370   .     A
C747   O816    1.390   .     S
C748   C759    1.404   .     A
C748   C1585   1.414   .     S
C748   C1595   1.419   .     S
C749   H803    1.080   .     S
C749   N809    1.363   .     A
C750   N810    1.371   .     A
C750   O817    1.391   .     S
C750   C565    1.430   1_655 S
C751   O822    1.281   .     A
C751   O823    1.286   .     A
C752   O825    1.285   .     A
C752   C754    1.452   .     S
C752   O824    1.293   .     A
C753   C772    1.402   .     A
C753   C1596   1.417   1_554 S
C753   N1640   1.436   1_554 S
C754   C771    1.393   .     A
C754   C772    1.406   .     A
C755   C756    1.401   .     A
C755   N813    1.434   .     S
C756   C1585   1.397   .     S
C756   N1642   1.433   .     S
C757   H805    1.079   .     S
C757   C1584   1.397   1_554 S
C757   C1576   1.414   1_554 S
C758   O826    1.414   .     S
C758   H775    1.115   .     S
C759   C770    1.409   .     A
C760   H777    1.109   .     S
C760   H779    1.111   .     S
C760   C574    1.520   1_655 S
C760   H594    1.110   1_655 S
C761   O816    1.416   .     S
C761   H780    1.110   .     S
C761   C762    1.524   .     S
C761   H781    1.114   .     S
C762   H785    1.111   .     S
C762   H783    1.110   .     S
C762   H782    1.110   .     S
C763   H786    1.109   .     S
C763   H787    1.115   .     S
C763   O817    1.416   .     S
C763   C764    1.524   .     S
C764   H790    1.111   .     S
C764   H789    1.110   .     S
C764   H788    1.107   .     S
C765   C766    1.521   .     S
C765   H793    1.114   .     S
C765   O818    1.411   .     S
C765   H794    1.114   .     S
C766   H796    1.111   .     S
C766   H798    1.111   .     S
C766   H797    1.111   .     S
C767   C771    1.402   .     A
C767   C1576   1.419   1_554 S
C767   C1596   1.425   1_554 S
C768   C769    1.398   .     A
C768   C1581   1.417   .     S
C768   C1595   1.425   .     S
C769   C770    1.383   .     A
C769   H804    1.079   .     S
C770   H806    1.083   .     S
C771   O818    1.385   .     S
C772   N811    1.435   .     S
H774   N811    1.045   .     S
H776   C206    1.112   1_565 S
H791   N812    1.045   .     S
H792   N812    1.046   .     S
H799   N813    1.046   .     S
H800   N813    1.046   .     S
H801   N814    1.046   .     S
H802   N814    1.045   .     S
H808   N811    1.046   .     S
N809   Zn827   2.006   .     S
N810   Zn828   2.006   .     S
N812   C1581   1.436   .     S
N814   C1584   1.433   1_554 S
O815   Zn827   1.998   .     S
O819   Zn828   2.008   .     S
O820   Zn827   1.948   .     S
O821   Zn828   1.889   .     S
O822   Zn827   2.008   .     S
O823   Zn828   1.998   .     S
O824   Zn827   1.889   .     S
O825   Zn828   1.948   .     S
C829   C837    1.418   .     S
C829   O907    1.279   .     A
C829   O911    1.284   .     A
C830   C832    1.467   .     S
C830   C851    1.409   .     A
C830   C847    1.413   .     A
C831   H899    1.083   .     S
C831   C837    1.391   .     A
C831   C1109   1.369   .     S
C832   O913    1.295   .     A
C832   O912    1.289   .     A
C833   H865    1.084   .     S
C833   C834    1.401   .     A
C833   C1383   1.369   1_545 S
C834   C843    1.426   .     S
C834   C835    1.410   .     A
C835   O918    1.387   .     S
C835   C1388   1.375   1_545 S
C836   C837    1.394   .     A
C836   H876    1.083   .     S
C836   C1111   1.375   .     S
C838   N902    1.362   .     A
C838   H887    1.080   .     S
C838   C931    1.429   .     S
C839   N901    1.370   .     A
C839   O908    1.390   .     S
C839   C1022   1.429   1_455 S
C840   C851    1.404   .     A
C840   C21     1.414   1_556 S
C840   C31     1.419   1_556 S
C841   H895    1.080   .     S
C841   N901    1.363   .     A
C841   C1026   1.430   1_455 S
C842   N902    1.371   .     A
C842   O909    1.391   .     S
C842   C933    1.430   .     S
C843   O914    1.281   .     A
C843   O915    1.286   .     A
C844   O917    1.285   .     A
C844   C846    1.452   .     S
C844   O916    1.293   .     A
C845   C864    1.402   .     A
C846   C863    1.393   .     A
C846   C864    1.406   .     A
C847   C848    1.401   .     A
C847   N905    1.434   .     S
C848   C21     1.397   1_556 S
C848   N78     1.433   1_556 S
C849   H897    1.079   .     S
C850   O918    1.414   .     S
C850   H867    1.115   .     S
C850   C1036   1.520   1_455 S
C850   H1420   1.112   1_545 S
C851   C862    1.409   .     A
C852   H869    1.109   .     S
C852   H871    1.111   .     S
C852   C942    1.520   .     S
C852   H962    1.110   .     S
C853   O908    1.416   .     S
C853   H872    1.110   .     S
C853   C854    1.524   .     S
C853   H873    1.114   .     S
C854   H877    1.111   .     S
C854   H875    1.110   .     S
C854   H874    1.110   .     S
C855   H878    1.109   .     S
C855   H879    1.115   .     S
C855   O909    1.416   .     S
C855   C856    1.524   .     S
C856   H882    1.111   .     S
C856   H881    1.110   .     S
C856   H880    1.107   .     S
C857   C858    1.521   .     S
C857   H885    1.114   .     S
C857   O910    1.411   .     S
C857   H886    1.114   .     S
C858   H888    1.111   .     S
C858   H890    1.111   .     S
C858   H889    1.111   .     S
C859   C863    1.402   .     A
C860   C861    1.398   .     A
C860   C17     1.417   1_556 S
C860   C31     1.425   1_556 S
C861   C862    1.383   .     A
C861   H896    1.079   .     S
C862   H898    1.083   .     S
C863   O910    1.385   .     S
C864   N903    1.435   .     S
H866   N903    1.045   .     S
H868   C1126   1.112   .     S
H870   C1036   1.110   1_455 S
H883   N904    1.045   .     S
H884   N904    1.046   .     S
H891   N905    1.046   .     S
H892   N905    1.046   .     S
H893   N906    1.046   .     S
H894   N906    1.045   .     S
H900   N903    1.046   .     S
N901   Zn919   2.006   .     S
N902   Zn920   2.006   .     S
N904   C17     1.436   1_556 S
O907   Zn919   1.998   .     S
O911   Zn920   2.008   .     S
O912   Zn919   1.948   .     S
O913   Zn920   1.889   .     S
O914   Zn919   2.008   .     S
O915   Zn920   1.998   .     S
O916   Zn919   1.889   .     S
O917   Zn920   1.948   .     S
C921   C929    1.418   .     S
C921   O999    1.279   .     A
C921   O1003   1.284   .     A
C922   C924    1.467   .     S
C922   C943    1.409   .     A
C922   C939    1.413   .     A
C923   H991    1.083   .     S
C923   C929    1.391   .     A
C923   C1201   1.369   .     S
C924   O1005   1.295   .     A
C924   O1004   1.289   .     A
C925   H957    1.084   .     S
C925   C926    1.401   .     A
C925   C1475   1.369   1_545 S
C926   C935    1.426   .     S
C926   C927    1.410   .     A
C927   O1010   1.387   .     S
C927   C1480   1.375   1_545 S
C928   C929    1.394   .     A
C928   H968    1.083   .     S
C928   C1203   1.375   .     S
C930   N994    1.362   .     A
C930   H979    1.080   .     S
C930   C1023   1.429   .     S
C931   N993    1.370   .     A
C931   O1000   1.390   .     S
C932   C943    1.404   .     A
C932   C113    1.414   1_556 S
C932   C123    1.419   1_556 S
C933   H987    1.080   .     S
C933   N993    1.363   .     A
C934   N994    1.371   .     A
C934   O1001   1.391   .     S
C934   C1025   1.430   .     S
C935   O1006   1.281   .     A
C935   O1007   1.286   .     A
C936   O1009   1.285   .     A
C936   C938    1.452   .     S
C936   O1008   1.293   .     A
C937   C956    1.402   .     A
C938   C955    1.393   .     A
C938   C956    1.406   .     A
C939   C940    1.401   .     A
C939   N997    1.434   .     S
C940   C113    1.397   1_556 S
C940   N170    1.433   1_556 S
C941   H989    1.079   .     S
C942   O1010   1.414   .     S
C942   H959    1.115   .     S
C942   H1512   1.112   1_545 S
C943   C954    1.409   .     A
C944   H961    1.109   .     S
C944   H963    1.111   .     S
C944   C1034   1.520   .     S
C944   H1054   1.110   .     S
C945   O1000   1.416   .     S
C945   H964    1.110   .     S
C945   C946    1.524   .     S
C945   H965    1.114   .     S
C946   H969    1.111   .     S
C946   H967    1.110   .     S
C946   H966    1.110   .     S
C947   H970    1.109   .     S
C947   H971    1.115   .     S
C947   O1001   1.416   .     S
C947   C948    1.524   .     S
C948   H974    1.111   .     S
C948   H973    1.110   .     S
C948   H972    1.107   .     S
C949   C950    1.521   .     S
C949   H977    1.114   .     S
C949   O1002   1.411   .     S
C949   H978    1.114   .     S
C950   H980    1.111   .     S
C950   H982    1.111   .     S
C950   H981    1.111   .     S
C951   C955    1.402   .     A
C952   C953    1.398   .     A
C952   C109    1.417   1_556 S
C952   C123    1.425   1_556 S
C953   C954    1.383   .     A
C953   H988    1.079   .     S
C954   H990    1.083   .     S
C955   O1002   1.385   .     S
C956   N995    1.435   .     S
H958   N995    1.045   .     S
H960   C1218   1.112   .     S
H975   N996    1.045   .     S
H976   N996    1.046   .     S
H983   N997    1.046   .     S
H984   N997    1.046   .     S
H985   N998    1.046   .     S
H986   N998    1.045   .     S
H992   N995    1.046   .     S
N993   Zn1011  2.006   .     S
N994   Zn1012  2.006   .     S
N996   C109    1.436   1_556 S
O999   Zn1011  1.998   .     S
O1003  Zn1012  2.008   .     S
O1004  Zn1011  1.948   .     S
O1005  Zn1012  1.889   .     S
O1006  Zn1011  2.008   .     S
O1007  Zn1012  1.998   .     S
O1008  Zn1011  1.889   .     S
O1009  Zn1012  1.948   .     S
C1013  C1021   1.418   .     S
C1013  O1091   1.279   .     A
C1013  O1095   1.284   .     A
C1014  C1016   1.467   .     S
C1014  C1035   1.409   .     A
C1014  C1031   1.413   .     A
C1015  H1083   1.083   .     S
C1015  C1021   1.391   .     A
C1015  C1293   1.369   .     S
C1016  O1097   1.295   .     A
C1016  O1096   1.289   .     A
C1017  H1049   1.084   .     S
C1017  C1018   1.401   .     A
C1017  C1567   1.369   1_545 S
C1018  C1027   1.426   .     S
C1018  C1019   1.410   .     A
C1019  O1102   1.387   .     S
C1019  C1572   1.375   1_545 S
C1020  C1021   1.394   .     A
C1020  H1060   1.083   .     S
C1020  C1295   1.375   .     S
C1022  N1086   1.362   .     A
C1022  H1071   1.080   .     S
C1022  C839    1.429   1_655 S
C1023  N1085   1.370   .     A
C1023  O1092   1.390   .     S
C1024  C1035   1.404   .     A
C1024  C205    1.414   1_556 S
C1024  C215    1.419   1_556 S
C1025  H1079   1.080   .     S
C1025  N1085   1.363   .     A
C1026  N1086   1.371   .     A
C1026  O1093   1.391   .     S
C1026  C841    1.430   1_655 S
C1027  O1098   1.281   .     A
C1027  O1099   1.286   .     A
C1028  O1101   1.285   .     A
C1028  C1030   1.452   .     S
C1028  O1100   1.293   .     A
C1029  C1048   1.402   .     A
C1030  C1047   1.393   .     A
C1030  C1048   1.406   .     A
C1031  C1032   1.401   .     A
C1031  N1089   1.434   .     S
C1032  C205    1.397   1_556 S
C1032  N262    1.433   1_556 S
C1033  H1081   1.079   .     S
C1034  O1102   1.414   .     S
C1034  H1051   1.115   .     S
C1034  H1604   1.112   1_545 S
C1035  C1046   1.409   .     A
C1036  H1053   1.109   .     S
C1036  H1055   1.111   .     S
C1036  C850    1.520   1_655 S
C1036  H870    1.110   1_655 S
C1037  O1092   1.416   .     S
C1037  H1056   1.110   .     S
C1037  C1038   1.524   .     S
C1037  H1057   1.114   .     S
C1038  H1061   1.111   .     S
C1038  H1059   1.110   .     S
C1038  H1058   1.110   .     S
C1039  H1062   1.109   .     S
C1039  H1063   1.115   .     S
C1039  O1093   1.416   .     S
C1039  C1040   1.524   .     S
C1040  H1066   1.111   .     S
C1040  H1065   1.110   .     S
C1040  H1064   1.107   .     S
C1041  C1042   1.521   .     S
C1041  H1069   1.114   .     S
C1041  O1094   1.411   .     S
C1041  H1070   1.114   .     S
C1042  H1072   1.111   .     S
C1042  H1074   1.111   .     S
C1042  H1073   1.111   .     S
C1043  C1047   1.402   .     A
C1044  C1045   1.398   .     A
C1044  C201    1.417   1_556 S
C1044  C215    1.425   1_556 S
C1045  C1046   1.383   .     A
C1045  H1080   1.079   .     S
C1046  H1082   1.083   .     S
C1047  O1094   1.385   .     S
C1048  N1087   1.435   .     S
H1050  N1087   1.045   .     S
H1052  C1310   1.112   .     S
H1067  N1088   1.045   .     S
H1068  N1088   1.046   .     S
H1075  N1089   1.046   .     S
H1076  N1089   1.046   .     S
H1077  N1090   1.046   .     S
H1078  N1090   1.045   .     S
H1084  N1087   1.046   .     S
N1085  Zn1103  2.006   .     S
N1086  Zn1104  2.006   .     S
N1088  C201    1.436   1_556 S
O1091  Zn1103  1.998   .     S
O1095  Zn1104  2.008   .     S
O1096  Zn1103  1.948   .     S
O1097  Zn1104  1.889   .     S
O1098  Zn1103  2.008   .     S
O1099  Zn1104  1.998   .     S
O1100  Zn1103  1.889   .     S
O1101  Zn1104  1.948   .     S
C1105  C1113   1.418   .     S
C1105  O1183   1.279   .     A
C1105  O1187   1.284   .     A
C1106  C1108   1.467   .     S
C1106  C1127   1.409   .     A
C1106  C1123   1.413   .     A
C1107  H1175   1.083   .     S
C1107  C1113   1.391   .     A
C1107  C1385   1.369   .     S
C1108  O1189   1.295   .     A
C1108  O1188   1.289   .     A
C1109  H1141   1.084   .     S
C1109  C1110   1.401   .     A
C1110  C1119   1.426   .     S
C1110  C1111   1.410   .     A
C1111  O1194   1.387   .     S
C1112  C1113   1.394   .     A
C1112  H1152   1.083   .     S
C1112  C1387   1.375   .     S
C1114  N1178   1.362   .     A
C1114  H1163   1.080   .     S
C1114  C1207   1.429   .     S
C1115  N1177   1.370   .     A
C1115  O1184   1.390   .     S
C1115  C1298   1.429   1_455 S
C1116  C1127   1.404   .     A
C1116  C297    1.414   1_556 S
C1116  C307    1.419   1_556 S
C1117  H1171   1.080   .     S
C1117  N1177   1.363   .     A
C1117  C1302   1.430   1_455 S
C1118  N1178   1.371   .     A
C1118  O1185   1.391   .     S
C1118  C1209   1.430   .     S
C1119  O1190   1.281   .     A
C1119  O1191   1.286   .     A
C1120  O1193   1.285   .     A
C1120  C1122   1.452   .     S
C1120  O1192   1.293   .     A
C1121  C1140   1.402   .     A
C1122  C1139   1.393   .     A
C1122  C1140   1.406   .     A
C1123  C1124   1.401   .     A
C1123  N1181   1.434   .     S
C1124  C297    1.397   1_556 S
C1124  N354    1.433   1_556 S
C1125  H1173   1.079   .     S
C1126  O1194   1.414   .     S
C1126  H1143   1.115   .     S
C1126  C1312   1.520   1_455 S
C1127  C1138   1.409   .     A
C1128  H1145   1.109   .     S
C1128  H1147   1.111   .     S
C1128  C1218   1.520   .     S
C1128  H1238   1.110   .     S
C1129  O1184   1.416   .     S
C1129  H1148   1.110   .     S
C1129  C1130   1.524   .     S
C1129  H1149   1.114   .     S
C1130  H1153   1.111   .     S
C1130  H1151   1.110   .     S
C1130  H1150   1.110   .     S
C1131  H1154   1.109   .     S
C1131  H1155   1.115   .     S
C1131  O1185   1.416   .     S
C1131  C1132   1.524   .     S
C1132  H1158   1.111   .     S
C1132  H1157   1.110   .     S
C1132  H1156   1.107   .     S
C1133  C1134   1.521   .     S
C1133  H1161   1.114   .     S
C1133  O1186   1.411   .     S
C1133  H1162   1.114   .     S
C1134  H1164   1.111   .     S
C1134  H1166   1.111   .     S
C1134  H1165   1.111   .     S
C1135  C1139   1.402   .     A
C1136  C1137   1.398   .     A
C1136  C293    1.417   1_556 S
C1136  C307    1.425   1_556 S
C1137  C1138   1.383   .     A
C1137  H1172   1.079   .     S
C1138  H1174   1.083   .     S
C1139  O1186   1.385   .     S
C1140  N1179   1.435   .     S
H1142  N1179   1.045   .     S
H1144  C1402   1.112   .     S
H1146  C1312   1.110   1_455 S
H1159  N1180   1.045   .     S
H1160  N1180   1.046   .     S
H1167  N1181   1.046   .     S
H1168  N1181   1.046   .     S
H1169  N1182   1.046   .     S
H1170  N1182   1.045   .     S
H1176  N1179   1.046   .     S
N1177  Zn1195  2.006   .     S
N1178  Zn1196  2.006   .     S
N1180  C293    1.436   1_556 S
O1183  Zn1195  1.998   .     S
O1187  Zn1196  2.008   .     S
O1188  Zn1195  1.948   .     S
O1189  Zn1196  1.889   .     S
O1190  Zn1195  2.008   .     S
O1191  Zn1196  1.998   .     S
O1192  Zn1195  1.889   .     S
O1193  Zn1196  1.948   .     S
C1197  C1205   1.418   .     S
C1197  O1275   1.279   .     A
C1197  O1279   1.284   .     A
C1198  C1200   1.467   .     S
C1198  C1219   1.409   .     A
C1198  C1215   1.413   .     A
C1199  H1267   1.083   .     S
C1199  C1205   1.391   .     A
C1199  C1477   1.369   .     S
C1200  O1281   1.295   .     A
C1200  O1280   1.289   .     A
C1201  H1233   1.084   .     S
C1201  C1202   1.401   .     A
C1202  C1211   1.426   .     S
C1202  C1203   1.410   .     A
C1203  O1286   1.387   .     S
C1204  C1205   1.394   .     A
C1204  H1244   1.083   .     S
C1204  C1479   1.375   .     S
C1206  N1270   1.362   .     A
C1206  H1255   1.080   .     S
C1206  C1299   1.429   .     S
C1207  N1269   1.370   .     A
C1207  O1276   1.390   .     S
C1208  C1219   1.404   .     A
C1208  C389    1.414   1_556 S
C1208  C399    1.419   1_556 S
C1209  H1263   1.080   .     S
C1209  N1269   1.363   .     A
C1210  N1270   1.371   .     A
C1210  O1277   1.391   .     S
C1210  C1301   1.430   .     S
C1211  O1282   1.281   .     A
C1211  O1283   1.286   .     A
C1212  O1285   1.285   .     A
C1212  C1214   1.452   .     S
C1212  O1284   1.293   .     A
C1213  C1232   1.402   .     A
C1214  C1231   1.393   .     A
C1214  C1232   1.406   .     A
C1215  C1216   1.401   .     A
C1215  N1273   1.434   .     S
C1216  C389    1.397   1_556 S
C1216  N446    1.433   1_556 S
C1217  H1265   1.079   .     S
C1218  O1286   1.414   .     S
C1218  H1235   1.115   .     S
C1219  C1230   1.409   .     A
C1220  H1237   1.109   .     S
C1220  H1239   1.111   .     S
C1220  C1310   1.520   .     S
C1220  H1330   1.110   .     S
C1221  O1276   1.416   .     S
C1221  H1240   1.110   .     S
C1221  C1222   1.524   .     S
C1221  H1241   1.114   .     S
C1222  H1245   1.111   .     S
C1222  H1243   1.110   .     S
C1222  H1242   1.110   .     S
C1223  H1246   1.109   .     S
C1223  H1247   1.115   .     S
C1223  O1277   1.416   .     S
C1223  C1224   1.524   .     S
C1224  H1250   1.111   .     S
C1224  H1249   1.110   .     S
C1224  H1248   1.107   .     S
C1225  C1226   1.521   .     S
C1225  H1253   1.114   .     S
C1225  O1278   1.411   .     S
C1225  H1254   1.114   .     S
C1226  H1256   1.111   .     S
C1226  H1258   1.111   .     S
C1226  H1257   1.111   .     S
C1227  C1231   1.402   .     A
C1228  C1229   1.398   .     A
C1228  C385    1.417   1_556 S
C1228  C399    1.425   1_556 S
C1229  C1230   1.383   .     A
C1229  H1264   1.079   .     S
C1230  H1266   1.083   .     S
C1231  O1278   1.385   .     S
C1232  N1271   1.435   .     S
H1234  N1271   1.045   .     S
H1236  C1494   1.112   .     S
H1251  N1272   1.045   .     S
H1252  N1272   1.046   .     S
H1259  N1273   1.046   .     S
H1260  N1273   1.046   .     S
H1261  N1274   1.046   .     S
H1262  N1274   1.045   .     S
H1268  N1271   1.046   .     S
N1269  Zn1287  2.006   .     S
N1270  Zn1288  2.006   .     S
N1272  C385    1.436   1_556 S
O1275  Zn1287  1.998   .     S
O1279  Zn1288  2.008   .     S
O1280  Zn1287  1.948   .     S
O1281  Zn1288  1.889   .     S
O1282  Zn1287  2.008   .     S
O1283  Zn1288  1.998   .     S
O1284  Zn1287  1.889   .     S
O1285  Zn1288  1.948   .     S
C1289  C1297   1.418   .     S
C1289  O1367   1.279   .     A
C1289  O1371   1.284   .     A
C1290  C1292   1.467   .     S
C1290  C1311   1.409   .     A
C1290  C1307   1.413   .     A
C1291  H1359   1.083   .     S
C1291  C1297   1.391   .     A
C1291  C1569   1.369   .     S
C1292  O1373   1.295   .     A
C1292  O1372   1.289   .     A
C1293  H1325   1.084   .     S
C1293  C1294   1.401   .     A
C1294  C1303   1.426   .     S
C1294  C1295   1.410   .     A
C1295  O1378   1.387   .     S
C1296  C1297   1.394   .     A
C1296  H1336   1.083   .     S
C1296  C1571   1.375   .     S
C1298  N1362   1.362   .     A
C1298  H1347   1.080   .     S
C1298  C1115   1.429   1_655 S
C1299  N1361   1.370   .     A
C1299  O1368   1.390   .     S
C1300  C1311   1.404   .     A
C1300  C481    1.414   1_556 S
C1300  C491    1.419   1_556 S
C1301  H1355   1.080   .     S
C1301  N1361   1.363   .     A
C1302  N1362   1.371   .     A
C1302  O1369   1.391   .     S
C1302  C1117   1.430   1_655 S
C1303  O1374   1.281   .     A
C1303  O1375   1.286   .     A
C1304  O1377   1.285   .     A
C1304  C1306   1.452   .     S
C1304  O1376   1.293   .     A
C1305  C1324   1.402   .     A
C1306  C1323   1.393   .     A
C1306  C1324   1.406   .     A
C1307  C1308   1.401   .     A
C1307  N1365   1.434   .     S
C1308  C481    1.397   1_556 S
C1308  N538    1.433   1_556 S
C1309  H1357   1.079   .     S
C1310  O1378   1.414   .     S
C1310  H1327   1.115   .     S
C1311  C1322   1.409   .     A
C1312  H1329   1.109   .     S
C1312  H1331   1.111   .     S
C1312  C1126   1.520   1_655 S
C1312  H1146   1.110   1_655 S
C1313  O1368   1.416   .     S
C1313  H1332   1.110   .     S
C1313  C1314   1.524   .     S
C1313  H1333   1.114   .     S
C1314  H1337   1.111   .     S
C1314  H1335   1.110   .     S
C1314  H1334   1.110   .     S
C1315  H1338   1.109   .     S
C1315  H1339   1.115   .     S
C1315  O1369   1.416   .     S
C1315  C1316   1.524   .     S
C1316  H1342   1.111   .     S
C1316  H1341   1.110   .     S
C1316  H1340   1.107   .     S
C1317  C1318   1.521   .     S
C1317  H1345   1.114   .     S
C1317  O1370   1.411   .     S
C1317  H1346   1.114   .     S
C1318  H1348   1.111   .     S
C1318  H1350   1.111   .     S
C1318  H1349   1.111   .     S
C1319  C1323   1.402   .     A
C1320  C1321   1.398   .     A
C1320  C477    1.417   1_556 S
C1320  C491    1.425   1_556 S
C1321  C1322   1.383   .     A
C1321  H1356   1.079   .     S
C1322  H1358   1.083   .     S
C1323  O1370   1.385   .     S
C1324  N1363   1.435   .     S
H1326  N1363   1.045   .     S
H1328  C1586   1.112   .     S
H1343  N1364   1.045   .     S
H1344  N1364   1.046   .     S
H1351  N1365   1.046   .     S
H1352  N1365   1.046   .     S
H1353  N1366   1.046   .     S
H1354  N1366   1.045   .     S
H1360  N1363   1.046   .     S
N1361  Zn1379  2.006   .     S
N1362  Zn1380  2.006   .     S
N1364  C477    1.436   1_556 S
O1367  Zn1379  1.998   .     S
O1371  Zn1380  2.008   .     S
O1372  Zn1379  1.948   .     S
O1373  Zn1380  1.889   .     S
O1374  Zn1379  2.008   .     S
O1375  Zn1380  1.998   .     S
O1376  Zn1379  1.889   .     S
O1377  Zn1380  1.948   .     S
C1381  C1389   1.418   .     S
C1381  O1459   1.279   .     A
C1381  O1463   1.284   .     A
C1382  C1384   1.467   .     S
C1382  C1403   1.409   .     A
C1382  C1399   1.413   .     A
C1383  H1451   1.083   .     S
C1383  C1389   1.391   .     A
C1383  C833    1.369   1_565 S
C1384  O1465   1.295   .     A
C1384  O1464   1.289   .     A
C1385  H1417   1.084   .     S
C1385  C1386   1.401   .     A
C1386  C1395   1.426   .     S
C1386  C1387   1.410   .     A
C1387  O1470   1.387   .     S
C1388  C1389   1.394   .     A
C1388  H1428   1.083   .     S
C1388  C835    1.375   1_565 S
C1390  N1454   1.362   .     A
C1390  H1439   1.080   .     S
C1390  C1483   1.429   .     S
C1391  N1453   1.370   .     A
C1391  O1460   1.390   .     S
C1391  C1574   1.429   1_455 S
C1392  C1403   1.404   .     A
C1392  C573    1.414   1_556 S
C1392  C583    1.419   1_556 S
C1393  H1447   1.080   .     S
C1393  N1453   1.363   .     A
C1393  C1578   1.430   1_455 S
C1394  N1454   1.371   .     A
C1394  O1461   1.391   .     S
C1394  C1485   1.430   .     S
C1395  O1466   1.281   .     A
C1395  O1467   1.286   .     A
C1396  O1469   1.285   .     A
C1396  C1398   1.452   .     S
C1396  O1468   1.293   .     A
C1397  C1416   1.402   .     A
C1398  C1415   1.393   .     A
C1398  C1416   1.406   .     A
C1399  C1400   1.401   .     A
C1399  N1457   1.434   .     S
C1400  C573    1.397   1_556 S
C1400  N630    1.433   1_556 S
C1401  H1449   1.079   .     S
C1402  O1470   1.414   .     S
C1402  H1419   1.115   .     S
C1402  C1588   1.520   1_455 S
C1403  C1414   1.409   .     A
C1404  H1421   1.109   .     S
C1404  H1423   1.111   .     S
C1404  C1494   1.520   .     S
C1404  H1514   1.110   .     S
C1405  O1460   1.416   .     S
C1405  H1424   1.110   .     S
C1405  C1406   1.524   .     S
C1405  H1425   1.114   .     S
C1406  H1429   1.111   .     S
C1406  H1427   1.110   .     S
C1406  H1426   1.110   .     S
C1407  H1430   1.109   .     S
C1407  H1431   1.115   .     S
C1407  O1461   1.416   .     S
C1407  C1408   1.524   .     S
C1408  H1434   1.111   .     S
C1408  H1433   1.110   .     S
C1408  H1432   1.107   .     S
C1409  C1410   1.521   .     S
C1409  H1437   1.114   .     S
C1409  O1462   1.411   .     S
C1409  H1438   1.114   .     S
C1410  H1440   1.111   .     S
C1410  H1442   1.111   .     S
C1410  H1441   1.111   .     S
C1411  C1415   1.402   .     A
C1412  C1413   1.398   .     A
C1412  C569    1.417   1_556 S
C1412  C583    1.425   1_556 S
C1413  C1414   1.383   .     A
C1413  H1448   1.079   .     S
C1414  H1450   1.083   .     S
C1415  O1462   1.385   .     S
C1416  N1455   1.435   .     S
H1418  N1455   1.045   .     S
H1420  C850    1.112   1_565 S
H1422  C1588   1.110   1_455 S
H1435  N1456   1.045   .     S
H1436  N1456   1.046   .     S
H1443  N1457   1.046   .     S
H1444  N1457   1.046   .     S
H1445  N1458   1.046   .     S
H1446  N1458   1.045   .     S
H1452  N1455   1.046   .     S
N1453  Zn1471  2.006   .     S
N1454  Zn1472  2.006   .     S
N1456  C569    1.436   1_556 S
O1459  Zn1471  1.998   .     S
O1463  Zn1472  2.008   .     S
O1464  Zn1471  1.948   .     S
O1465  Zn1472  1.889   .     S
O1466  Zn1471  2.008   .     S
O1467  Zn1472  1.998   .     S
O1468  Zn1471  1.889   .     S
O1469  Zn1472  1.948   .     S
C1473  C1481   1.418   .     S
C1473  O1551   1.279   .     A
C1473  O1555   1.284   .     A
C1474  C1476   1.467   .     S
C1474  C1495   1.409   .     A
C1474  C1491   1.413   .     A
C1475  H1543   1.083   .     S
C1475  C1481   1.391   .     A
C1475  C925    1.369   1_565 S
C1476  O1557   1.295   .     A
C1476  O1556   1.289   .     A
C1477  H1509   1.084   .     S
C1477  C1478   1.401   .     A
C1478  C1487   1.426   .     S
C1478  C1479   1.410   .     A
C1479  O1562   1.387   .     S
C1480  C1481   1.394   .     A
C1480  H1520   1.083   .     S
C1480  C927    1.375   1_565 S
C1482  N1546   1.362   .     A
C1482  H1531   1.080   .     S
C1482  C1575   1.429   .     S
C1483  N1545   1.370   .     A
C1483  O1552   1.390   .     S
C1484  C1495   1.404   .     A
C1484  C665    1.414   1_556 S
C1484  C675    1.419   1_556 S
C1485  H1539   1.080   .     S
C1485  N1545   1.363   .     A
C1486  N1546   1.371   .     A
C1486  O1553   1.391   .     S
C1486  C1577   1.430   .     S
C1487  O1558   1.281   .     A
C1487  O1559   1.286   .     A
C1488  O1561   1.285   .     A
C1488  C1490   1.452   .     S
C1488  O1560   1.293   .     A
C1489  C1508   1.402   .     A
C1490  C1507   1.393   .     A
C1490  C1508   1.406   .     A
C1491  C1492   1.401   .     A
C1491  N1549   1.434   .     S
C1492  C665    1.397   1_556 S
C1492  N722    1.433   1_556 S
C1493  H1541   1.079   .     S
C1494  O1562   1.414   .     S
C1494  H1511   1.115   .     S
C1495  C1506   1.409   .     A
C1496  H1513   1.109   .     S
C1496  H1515   1.111   .     S
C1496  C1586   1.520   .     S
C1496  H1606   1.110   .     S
C1497  O1552   1.416   .     S
C1497  H1516   1.110   .     S
C1497  C1498   1.524   .     S
C1497  H1517   1.114   .     S
C1498  H1521   1.111   .     S
C1498  H1519   1.110   .     S
C1498  H1518   1.110   .     S
C1499  H1522   1.109   .     S
C1499  H1523   1.115   .     S
C1499  O1553   1.416   .     S
C1499  C1500   1.524   .     S
C1500  H1526   1.111   .     S
C1500  H1525   1.110   .     S
C1500  H1524   1.107   .     S
C1501  C1502   1.521   .     S
C1501  H1529   1.114   .     S
C1501  O1554   1.411   .     S
C1501  H1530   1.114   .     S
C1502  H1532   1.111   .     S
C1502  H1534   1.111   .     S
C1502  H1533   1.111   .     S
C1503  C1507   1.402   .     A
C1504  C1505   1.398   .     A
C1504  C661    1.417   1_556 S
C1504  C675    1.425   1_556 S
C1505  C1506   1.383   .     A
C1505  H1540   1.079   .     S
C1506  H1542   1.083   .     S
C1507  O1554   1.385   .     S
C1508  N1547   1.435   .     S
H1510  N1547   1.045   .     S
H1512  C942    1.112   1_565 S
H1527  N1548   1.045   .     S
H1528  N1548   1.046   .     S
H1535  N1549   1.046   .     S
H1536  N1549   1.046   .     S
H1537  N1550   1.046   .     S
H1538  N1550   1.045   .     S
H1544  N1547   1.046   .     S
N1545  Zn1563  2.006   .     S
N1546  Zn1564  2.006   .     S
N1548  C661    1.436   1_556 S
O1551  Zn1563  1.998   .     S
O1555  Zn1564  2.008   .     S
O1556  Zn1563  1.948   .     S
O1557  Zn1564  1.889   .     S
O1558  Zn1563  2.008   .     S
O1559  Zn1564  1.998   .     S
O1560  Zn1563  1.889   .     S
O1561  Zn1564  1.948   .     S
C1565  C1573   1.418   .     S
C1565  O1643   1.279   .     A
C1565  O1647   1.284   .     A
C1566  C1568   1.467   .     S
C1566  C1587   1.409   .     A
C1566  C1583   1.413   .     A
C1567  H1635   1.083   .     S
C1567  C1573   1.391   .     A
C1567  C1017   1.369   1_565 S
C1568  O1649   1.295   .     A
C1568  O1648   1.289   .     A
C1569  H1601   1.084   .     S
C1569  C1570   1.401   .     A
C1570  C1579   1.426   .     S
C1570  C1571   1.410   .     A
C1571  O1654   1.387   .     S
C1572  C1573   1.394   .     A
C1572  H1612   1.083   .     S
C1572  C1019   1.375   1_565 S
C1574  N1638   1.362   .     A
C1574  H1623   1.080   .     S
C1574  C1391   1.429   1_655 S
C1575  N1637   1.370   .     A
C1575  O1644   1.390   .     S
C1576  C1587   1.404   .     A
C1576  C757    1.414   1_556 S
C1576  C767    1.419   1_556 S
C1577  H1631   1.080   .     S
C1577  N1637   1.363   .     A
C1578  N1638   1.371   .     A
C1578  O1645   1.391   .     S
C1578  C1393   1.430   1_655 S
C1579  O1650   1.281   .     A
C1579  O1651   1.286   .     A
C1580  O1653   1.285   .     A
C1580  C1582   1.452   .     S
C1580  O1652   1.293   .     A
C1581  C1600   1.402   .     A
C1582  C1599   1.393   .     A
C1582  C1600   1.406   .     A
C1583  C1584   1.401   .     A
C1583  N1641   1.434   .     S
C1584  C757    1.397   1_556 S
C1584  N814    1.433   1_556 S
C1585  H1633   1.079   .     S
C1586  O1654   1.414   .     S
C1586  H1603   1.115   .     S
C1587  C1598   1.409   .     A
C1588  H1605   1.109   .     S
C1588  H1607   1.111   .     S
C1588  C1402   1.520   1_655 S
C1588  H1422   1.110   1_655 S
C1589  O1644   1.416   .     S
C1589  H1608   1.110   .     S
C1589  C1590   1.524   .     S
C1589  H1609   1.114   .     S
C1590  H1613   1.111   .     S
C1590  H1611   1.110   .     S
C1590  H1610   1.110   .     S
C1591  H1614   1.109   .     S
C1591  H1615   1.115   .     S
C1591  O1645   1.416   .     S
C1591  C1592   1.524   .     S
C1592  H1618   1.111   .     S
C1592  H1617   1.110   .     S
C1592  H1616   1.107   .     S
C1593  C1594   1.521   .     S
C1593  H1621   1.114   .     S
C1593  O1646   1.411   .     S
C1593  H1622   1.114   .     S
C1594  H1624   1.111   .     S
C1594  H1626   1.111   .     S
C1594  H1625   1.111   .     S
C1595  C1599   1.402   .     A
C1596  C1597   1.398   .     A
C1596  C753    1.417   1_556 S
C1596  C767    1.425   1_556 S
C1597  C1598   1.383   .     A
C1597  H1632   1.079   .     S
C1598  H1634   1.083   .     S
C1599  O1646   1.385   .     S
C1600  N1639   1.435   .     S
H1602  N1639   1.045   .     S
H1604  C1034   1.112   1_565 S
H1619  N1640   1.045   .     S
H1620  N1640   1.046   .     S
H1627  N1641   1.046   .     S
H1628  N1641   1.046   .     S
H1629  N1642   1.046   .     S
H1630  N1642   1.045   .     S
H1636  N1639   1.046   .     S
N1637  Zn1655  2.006   .     S
N1638  Zn1656  2.006   .     S
N1640  C753    1.436   1_556 S
O1643  Zn1655  1.998   .     S
O1647  Zn1656  2.008   .     S
O1648  Zn1655  1.948   .     S
O1649  Zn1656  1.889   .     S
O1650  Zn1655  2.008   .     S
O1651  Zn1656  1.998   .     S
O1652  Zn1655  1.889   .     S
O1653  Zn1656  1.948   .     S
