data_str_m3_o2_o10_pcu_sym.17
_audit_creation_date              2020-01-03
_audit_creation_method            'Materials Studio'
_symmetry_space_group_name_H-M    'P1'
_symmetry_Int_Tables_number       1
_symmetry_cell_setting            triclinic
loop_
_symmetry_equiv_pos_as_xyz
  x,y,z
_cell_length_a                    25.9039
_cell_length_b                    29.8281
_cell_length_c                    28.3604
_cell_angle_alpha                 91.1517
_cell_angle_beta                  98.5616
_cell_angle_gamma                 90.0750
loop_
_atom_site_label
_atom_site_type_symbol
_atom_site_fract_x
_atom_site_fract_y
_atom_site_fract_z
_atom_site_U_iso_or_equiv
_atom_site_adp_type
_atom_site_occupancy
C1     C     0.16752   0.16385   0.24960   0.00000  Uiso   1.00
C2     C     0.12147   0.23733   0.44090   0.00000  Uiso   1.00
C3     C     0.16573   0.25057   0.02656   0.00000  Uiso   1.00
C4     C     0.16582   0.25054   0.47332   0.00000  Uiso   1.00
C5     C     0.06715   0.25010   0.23766   0.00000  Uiso   1.00
C6     C     0.26616   0.25024   0.26231   0.00000  Uiso   1.00
C7     C     0.01247   0.24875   0.23090   0.00000  Uiso   1.00
C8     C     0.32077   0.25231   0.26894   0.00000  Uiso   1.00
C9     C     0.15222   0.04357   0.27660   0.00000  Uiso   1.00
C10    C     0.15622   0.45566   0.21489   0.00000  Uiso   1.00
C11    C     0.14193   0.08898   0.27375   0.00000  Uiso   1.00
C12    C     0.16754   0.33627   0.25062   0.00000  Uiso   1.00
C13    C     0.14531   0.41029   0.21591   0.00000  Uiso   1.00
C14    C     0.17353   0.11576   0.24902   0.00000  Uiso   1.00
C15    C     0.17320   0.38463   0.25246   0.00000  Uiso   1.00
C16    C     0.21370   0.09669   0.22613   0.00000  Uiso   1.00
C17    C     0.21003   0.40504   0.28871   0.00000  Uiso   1.00
C18    C     0.22121   0.05007   0.22667   0.00000  Uiso   1.00
C19    C     0.21810   0.45157   0.28881   0.00000  Uiso   1.00
C20    C     0.19043   0.02437   0.25293   0.00000  Uiso   1.00
C21    C     0.19116   0.47604   0.25107   0.00000  Uiso   1.00
C22    C     0.09660   0.10651   0.29520   0.00000  Uiso   1.00
C23    C     0.14814   0.21299   0.04907   0.00000  Uiso   1.00
C24    C     0.10259   0.39146   0.18001   0.00000  Uiso   1.00
C25    C     0.25040   0.12570   0.20503   0.00000  Uiso   1.00
C26    C     0.24307   0.37758   0.32416   0.00000  Uiso   1.00
C27    C     0.26018   0.02823   0.19978   0.00000  Uiso   1.00
C28    C     0.25364   0.47466   0.32827   0.00000  Uiso   1.00
C29    C     0.21064   0.26324   0.45412   0.00000  Uiso   1.00
C30    C     0.14821   0.21367   0.09870   0.00000  Uiso   1.00
C31    C     0.21007   0.26321   0.40443   0.00000  Uiso   1.00
C32    C     0.18421   0.28673   0.10543   0.00000  Uiso   1.00
C33    C     0.12306   0.23673   0.39148   0.00000  Uiso   1.00
C34    C     0.18361   0.28796   0.05576   0.00000  Uiso   1.00
F35    F     0.32128   0.24240   0.18521   0.00000  Uiso   1.00
F36    F     0.01186   0.25934   0.31449   0.00000  Uiso   1.00
F37    F     0.13199   0.17530   0.02345   0.00000  Uiso   1.00
F38    F     0.25540   0.27458   0.48322   0.00000  Uiso   1.00
F39    F     0.12933   0.17768   0.11909   0.00000  Uiso   1.00
F40    F     0.25361   0.27628   0.38727   0.00000  Uiso   1.00
F41    F     0.19929   0.32596   0.03640   0.00000  Uiso   1.00
F42    F     0.07635   0.22594   0.45666   0.00000  Uiso   1.00
H43    H     0.12812   0.02211   0.29493   0.00000  Uiso   1.00
H44    H     0.28010   0.47965   0.39880   0.00000  Uiso   1.00
H45    H     0.13452   0.47617   0.18763   0.00000  Uiso   1.00
H46    H     0.19834   0.31557   0.12732   0.00000  Uiso   1.00
H47    H     0.08909   0.22563   0.36731   0.00000  Uiso   1.00
H48    H     0.04889   0.09910   0.34469   0.00000  Uiso   1.00
H49    H     0.04249   0.34776   0.16511   0.00000  Uiso   1.00
H50    H     0.26560   0.15948   0.14776   0.00000  Uiso   1.00
H51    H     0.31050   0.34407   0.34128   0.00000  Uiso   1.00
H52    H     0.31348   0.47932   0.19672   0.00000  Uiso   1.00
N53    N     0.16667   0.24999   0.12623   0.00000  Uiso   1.00
N54    N     0.16667   0.25001   0.37376   0.00000  Uiso   1.00
O55    O     0.16667   0.18454   0.28974   0.00000  Uiso   1.00
O56    O     0.08046   0.08452   0.33363   0.00000  Uiso   1.00
O57    O     0.09476   0.40657   0.13981   0.00000  Uiso   1.00
O58    O     0.07014   0.35754   0.19254   0.00000  Uiso   1.00
O59    O     0.29168   0.13716   0.22891   0.00000  Uiso   1.00
O60    O     0.23769   0.13955   0.15796   0.00000  Uiso   1.00
O61    O     0.22802   0.36866   0.36175   0.00000  Uiso   1.00
O62    O     0.29137   0.36228   0.31438   0.00000  Uiso   1.00
O63    O     0.26716   0.04251   0.16109   0.00000  Uiso   1.00
O64    O     0.28853   0.49109   0.21837   0.00000  Uiso   1.00
O65    O     0.28164   0.00555   0.31964   0.00000  Uiso   1.00
O66    O     0.16666   0.31547   0.21026   0.00000  Uiso   1.00
O67    O     0.25457   0.46141   0.37539   0.00000  Uiso   1.00
O68    O     0.16667   0.18453   0.21026   0.00000  Uiso   1.00
O69    O     0.16666   0.31547   0.28974   0.00000  Uiso   1.00
O70    O     0.09058   0.25000   0.28044   0.00000  Uiso   1.00
O71    O     0.24275   0.25000   0.21955   0.00000  Uiso   1.00
O72    O     0.09058   0.25000   0.20096   0.00000  Uiso   1.00
O73    O     0.24275   0.25001   0.29903   0.00000  Uiso   1.00
O74    O     0.07232   0.13911   0.27856   0.00000  Uiso   1.00
Zn75   Zn    0.16667   0.25001   0.30307   0.00000  Uiso   1.00
Zn76   Zn    0.16667   0.25000   0.19693   0.00000  Uiso   1.00
C77    C     0.50085   0.16385   0.24960   0.00000  Uiso   1.00
C78    C     0.45480   0.23733   0.44090   0.00000  Uiso   1.00
C79    C     0.49906   0.25057   0.02656   0.00000  Uiso   1.00
C80    C     0.49915   0.25054   0.47332   0.00000  Uiso   1.00
C81    C     0.40049   0.25010   0.23766   0.00000  Uiso   1.00
C82    C     0.59949   0.25024   0.26231   0.00000  Uiso   1.00
C83    C     0.34581   0.24875   0.23090   0.00000  Uiso   1.00
C84    C     0.65410   0.25231   0.26894   0.00000  Uiso   1.00
C85    C     0.48555   0.04357   0.27660   0.00000  Uiso   1.00
C86    C     0.48955   0.45566   0.21489   0.00000  Uiso   1.00
C87    C     0.47527   0.08898   0.27375   0.00000  Uiso   1.00
C88    C     0.50087   0.33627   0.25062   0.00000  Uiso   1.00
C89    C     0.47865   0.41029   0.21591   0.00000  Uiso   1.00
C90    C     0.50686   0.11576   0.24902   0.00000  Uiso   1.00
C91    C     0.50653   0.38463   0.25246   0.00000  Uiso   1.00
C92    C     0.54703   0.09669   0.22613   0.00000  Uiso   1.00
C93    C     0.54337   0.40504   0.28871   0.00000  Uiso   1.00
C94    C     0.55454   0.05007   0.22667   0.00000  Uiso   1.00
C95    C     0.55143   0.45157   0.28881   0.00000  Uiso   1.00
C96    C     0.52377   0.02437   0.25293   0.00000  Uiso   1.00
C97    C     0.52450   0.47604   0.25107   0.00000  Uiso   1.00
C98    C     0.42993   0.10651   0.29520   0.00000  Uiso   1.00
C99    C     0.48148   0.21299   0.04907   0.00000  Uiso   1.00
C100   C     0.43592   0.39146   0.18001   0.00000  Uiso   1.00
C101   C     0.58373   0.12570   0.20503   0.00000  Uiso   1.00
C102   C     0.57640   0.37758   0.32416   0.00000  Uiso   1.00
C103   C     0.59351   0.02823   0.19978   0.00000  Uiso   1.00
C104   C     0.58697   0.47466   0.32827   0.00000  Uiso   1.00
C105   C     0.54397   0.26324   0.45412   0.00000  Uiso   1.00
C106   C     0.48154   0.21367   0.09870   0.00000  Uiso   1.00
C107   C     0.54340   0.26321   0.40443   0.00000  Uiso   1.00
C108   C     0.51754   0.28673   0.10543   0.00000  Uiso   1.00
C109   C     0.45640   0.23673   0.39148   0.00000  Uiso   1.00
C110   C     0.51695   0.28796   0.05576   0.00000  Uiso   1.00
F111   F     0.65461   0.24240   0.18521   0.00000  Uiso   1.00
F112   F     0.34520   0.25934   0.31449   0.00000  Uiso   1.00
F113   F     0.46532   0.17530   0.02345   0.00000  Uiso   1.00
F114   F     0.58873   0.27458   0.48322   0.00000  Uiso   1.00
F115   F     0.46266   0.17768   0.11909   0.00000  Uiso   1.00
F116   F     0.58695   0.27628   0.38727   0.00000  Uiso   1.00
F117   F     0.53263   0.32596   0.03640   0.00000  Uiso   1.00
F118   F     0.40968   0.22594   0.45666   0.00000  Uiso   1.00
H119   H     0.46145   0.02211   0.29493   0.00000  Uiso   1.00
H120   H     0.61344   0.47965   0.39880   0.00000  Uiso   1.00
H121   H     0.46786   0.47617   0.18763   0.00000  Uiso   1.00
H122   H     0.53167   0.31557   0.12732   0.00000  Uiso   1.00
H123   H     0.42243   0.22563   0.36731   0.00000  Uiso   1.00
H124   H     0.38222   0.09910   0.34469   0.00000  Uiso   1.00
H125   H     0.37582   0.34776   0.16511   0.00000  Uiso   1.00
H126   H     0.59894   0.15948   0.14776   0.00000  Uiso   1.00
H127   H     0.64384   0.34407   0.34128   0.00000  Uiso   1.00
H128   H     0.64682   0.47932   0.19672   0.00000  Uiso   1.00
N129   N     0.50000   0.24999   0.12623   0.00000  Uiso   1.00
N130   N     0.50000   0.25001   0.37376   0.00000  Uiso   1.00
O131   O     0.50000   0.18454   0.28974   0.00000  Uiso   1.00
O132   O     0.41380   0.08452   0.33363   0.00000  Uiso   1.00
O133   O     0.42809   0.40657   0.13981   0.00000  Uiso   1.00
O134   O     0.40347   0.35754   0.19254   0.00000  Uiso   1.00
O135   O     0.62502   0.13716   0.22891   0.00000  Uiso   1.00
O136   O     0.57103   0.13955   0.15796   0.00000  Uiso   1.00
O137   O     0.56135   0.36866   0.36175   0.00000  Uiso   1.00
O138   O     0.62471   0.36228   0.31438   0.00000  Uiso   1.00
O139   O     0.60049   0.04251   0.16109   0.00000  Uiso   1.00
O140   O     0.62186   0.49109   0.21837   0.00000  Uiso   1.00
O141   O     0.61497   0.00555   0.31964   0.00000  Uiso   1.00
O142   O     0.50000   0.31547   0.21026   0.00000  Uiso   1.00
O143   O     0.58791   0.46141   0.37539   0.00000  Uiso   1.00
O144   O     0.50000   0.18453   0.21026   0.00000  Uiso   1.00
O145   O     0.50000   0.31547   0.28974   0.00000  Uiso   1.00
O146   O     0.42392   0.25000   0.28044   0.00000  Uiso   1.00
O147   O     0.57608   0.25000   0.21955   0.00000  Uiso   1.00
O148   O     0.42392   0.25000   0.20096   0.00000  Uiso   1.00
O149   O     0.57608   0.25001   0.29903   0.00000  Uiso   1.00
O150   O     0.40565   0.13911   0.27856   0.00000  Uiso   1.00
Zn151  Zn    0.50000   0.25001   0.30307   0.00000  Uiso   1.00
Zn152  Zn    0.50000   0.25000   0.19693   0.00000  Uiso   1.00
C153   C     0.83419   0.16385   0.24960   0.00000  Uiso   1.00
C154   C     0.78813   0.23733   0.44090   0.00000  Uiso   1.00
C155   C     0.83240   0.25057   0.02656   0.00000  Uiso   1.00
C156   C     0.83248   0.25054   0.47332   0.00000  Uiso   1.00
C157   C     0.73382   0.25010   0.23766   0.00000  Uiso   1.00
C158   C     0.93282   0.25024   0.26231   0.00000  Uiso   1.00
C159   C     0.67914   0.24875   0.23090   0.00000  Uiso   1.00
C160   C     0.98744   0.25231   0.26894   0.00000  Uiso   1.00
C161   C     0.81888   0.04357   0.27660   0.00000  Uiso   1.00
C162   C     0.82289   0.45566   0.21489   0.00000  Uiso   1.00
C163   C     0.80860   0.08898   0.27375   0.00000  Uiso   1.00
C164   C     0.83420   0.33627   0.25062   0.00000  Uiso   1.00
C165   C     0.81198   0.41029   0.21591   0.00000  Uiso   1.00
C166   C     0.84019   0.11576   0.24902   0.00000  Uiso   1.00
C167   C     0.83987   0.38463   0.25246   0.00000  Uiso   1.00
C168   C     0.88037   0.09669   0.22613   0.00000  Uiso   1.00
C169   C     0.87670   0.40504   0.28871   0.00000  Uiso   1.00
C170   C     0.88787   0.05007   0.22667   0.00000  Uiso   1.00
C171   C     0.88476   0.45157   0.28881   0.00000  Uiso   1.00
C172   C     0.85710   0.02437   0.25293   0.00000  Uiso   1.00
C173   C     0.85783   0.47604   0.25107   0.00000  Uiso   1.00
C174   C     0.76327   0.10651   0.29520   0.00000  Uiso   1.00
C175   C     0.81481   0.21299   0.04907   0.00000  Uiso   1.00
C176   C     0.76925   0.39146   0.18001   0.00000  Uiso   1.00
C177   C     0.91707   0.12570   0.20503   0.00000  Uiso   1.00
C178   C     0.90973   0.37758   0.32416   0.00000  Uiso   1.00
C179   C     0.92685   0.02823   0.19978   0.00000  Uiso   1.00
C180   C     0.92030   0.47466   0.32827   0.00000  Uiso   1.00
C181   C     0.87730   0.26324   0.45412   0.00000  Uiso   1.00
C182   C     0.81488   0.21367   0.09870   0.00000  Uiso   1.00
C183   C     0.87673   0.26321   0.40443   0.00000  Uiso   1.00
C184   C     0.85088   0.28673   0.10543   0.00000  Uiso   1.00
C185   C     0.78973   0.23673   0.39148   0.00000  Uiso   1.00
C186   C     0.85028   0.28796   0.05576   0.00000  Uiso   1.00
F187   F     0.98795   0.24240   0.18521   0.00000  Uiso   1.00
F188   F     0.67853   0.25934   0.31449   0.00000  Uiso   1.00
F189   F     0.79866   0.17530   0.02345   0.00000  Uiso   1.00
F190   F     0.92207   0.27458   0.48322   0.00000  Uiso   1.00
F191   F     0.79599   0.17768   0.11909   0.00000  Uiso   1.00
F192   F     0.92028   0.27628   0.38727   0.00000  Uiso   1.00
F193   F     0.86596   0.32596   0.03640   0.00000  Uiso   1.00
F194   F     0.74302   0.22594   0.45666   0.00000  Uiso   1.00
H195   H     0.79479   0.02211   0.29493   0.00000  Uiso   1.00
H196   H     0.94677   0.47965   0.39880   0.00000  Uiso   1.00
H197   H     0.80119   0.47617   0.18763   0.00000  Uiso   1.00
H198   H     0.86501   0.31557   0.12732   0.00000  Uiso   1.00
H199   H     0.75576   0.22563   0.36731   0.00000  Uiso   1.00
H200   H     0.71556   0.09910   0.34469   0.00000  Uiso   1.00
H201   H     0.70915   0.34776   0.16511   0.00000  Uiso   1.00
H202   H     0.93227   0.15948   0.14776   0.00000  Uiso   1.00
H203   H     0.97717   0.34407   0.34128   0.00000  Uiso   1.00
H204   H     0.98015   0.47932   0.19672   0.00000  Uiso   1.00
N205   N     0.83333   0.24999   0.12623   0.00000  Uiso   1.00
N206   N     0.83333   0.25001   0.37376   0.00000  Uiso   1.00
O207   O     0.83334   0.18454   0.28974   0.00000  Uiso   1.00
O208   O     0.74713   0.08452   0.33363   0.00000  Uiso   1.00
O209   O     0.76142   0.40657   0.13981   0.00000  Uiso   1.00
O210   O     0.73681   0.35754   0.19254   0.00000  Uiso   1.00
O211   O     0.95835   0.13716   0.22891   0.00000  Uiso   1.00
O212   O     0.90436   0.13955   0.15796   0.00000  Uiso   1.00
O213   O     0.89469   0.36866   0.36175   0.00000  Uiso   1.00
O214   O     0.95804   0.36228   0.31438   0.00000  Uiso   1.00
O215   O     0.93383   0.04251   0.16109   0.00000  Uiso   1.00
O216   O     0.95520   0.49109   0.21837   0.00000  Uiso   1.00
O217   O     0.94831   0.00555   0.31964   0.00000  Uiso   1.00
O218   O     0.83333   0.31547   0.21026   0.00000  Uiso   1.00
O219   O     0.92124   0.46141   0.37539   0.00000  Uiso   1.00
O220   O     0.83334   0.18453   0.21026   0.00000  Uiso   1.00
O221   O     0.83333   0.31547   0.28974   0.00000  Uiso   1.00
O222   O     0.75725   0.25000   0.28044   0.00000  Uiso   1.00
O223   O     0.90942   0.25000   0.21955   0.00000  Uiso   1.00
O224   O     0.75725   0.25000   0.20096   0.00000  Uiso   1.00
O225   O     0.90942   0.25001   0.29903   0.00000  Uiso   1.00
O226   O     0.73899   0.13911   0.27856   0.00000  Uiso   1.00
Zn227  Zn    0.83333   0.25001   0.30307   0.00000  Uiso   1.00
Zn228  Zn    0.83333   0.25000   0.19693   0.00000  Uiso   1.00
C229   C     0.16752   0.66385   0.24960   0.00000  Uiso   1.00
C230   C     0.12147   0.73733   0.44090   0.00000  Uiso   1.00
C231   C     0.16573   0.75057   0.02656   0.00000  Uiso   1.00
C232   C     0.16582   0.75054   0.47332   0.00000  Uiso   1.00
C233   C     0.06715   0.75010   0.23766   0.00000  Uiso   1.00
C234   C     0.26616   0.75024   0.26231   0.00000  Uiso   1.00
C235   C     0.01247   0.74875   0.23090   0.00000  Uiso   1.00
C236   C     0.32077   0.75231   0.26894   0.00000  Uiso   1.00
C237   C     0.15222   0.54357   0.27660   0.00000  Uiso   1.00
C238   C     0.15622   0.95566   0.21489   0.00000  Uiso   1.00
C239   C     0.14193   0.58898   0.27375   0.00000  Uiso   1.00
C240   C     0.16754   0.83627   0.25062   0.00000  Uiso   1.00
C241   C     0.14531   0.91029   0.21591   0.00000  Uiso   1.00
C242   C     0.17353   0.61576   0.24902   0.00000  Uiso   1.00
C243   C     0.17320   0.88463   0.25246   0.00000  Uiso   1.00
C244   C     0.21370   0.59669   0.22613   0.00000  Uiso   1.00
C245   C     0.21003   0.90504   0.28871   0.00000  Uiso   1.00
C246   C     0.22121   0.55007   0.22667   0.00000  Uiso   1.00
C247   C     0.21810   0.95157   0.28881   0.00000  Uiso   1.00
C248   C     0.19043   0.52437   0.25293   0.00000  Uiso   1.00
C249   C     0.19116   0.97604   0.25107   0.00000  Uiso   1.00
C250   C     0.09660   0.60651   0.29520   0.00000  Uiso   1.00
C251   C     0.14814   0.71299   0.04907   0.00000  Uiso   1.00
C252   C     0.10259   0.89146   0.18001   0.00000  Uiso   1.00
C253   C     0.25040   0.62570   0.20503   0.00000  Uiso   1.00
C254   C     0.24307   0.87758   0.32416   0.00000  Uiso   1.00
C255   C     0.26018   0.52823   0.19978   0.00000  Uiso   1.00
C256   C     0.25364   0.97466   0.32827   0.00000  Uiso   1.00
C257   C     0.21064   0.76324   0.45412   0.00000  Uiso   1.00
C258   C     0.14821   0.71367   0.09870   0.00000  Uiso   1.00
C259   C     0.21007   0.76321   0.40443   0.00000  Uiso   1.00
C260   C     0.18421   0.78673   0.10543   0.00000  Uiso   1.00
C261   C     0.12306   0.73673   0.39148   0.00000  Uiso   1.00
C262   C     0.18361   0.78796   0.05576   0.00000  Uiso   1.00
F263   F     0.32128   0.74240   0.18521   0.00000  Uiso   1.00
F264   F     0.01186   0.75934   0.31449   0.00000  Uiso   1.00
F265   F     0.13199   0.67530   0.02345   0.00000  Uiso   1.00
F266   F     0.25540   0.77458   0.48322   0.00000  Uiso   1.00
F267   F     0.12933   0.67768   0.11909   0.00000  Uiso   1.00
F268   F     0.25361   0.77628   0.38727   0.00000  Uiso   1.00
F269   F     0.19929   0.82596   0.03640   0.00000  Uiso   1.00
F270   F     0.07635   0.72594   0.45666   0.00000  Uiso   1.00
H271   H     0.12812   0.52211   0.29493   0.00000  Uiso   1.00
H272   H     0.28010   0.97965   0.39880   0.00000  Uiso   1.00
H273   H     0.13452   0.97617   0.18763   0.00000  Uiso   1.00
H274   H     0.19834   0.81557   0.12732   0.00000  Uiso   1.00
H275   H     0.08909   0.72563   0.36731   0.00000  Uiso   1.00
H276   H     0.04889   0.59910   0.34469   0.00000  Uiso   1.00
H277   H     0.04249   0.84776   0.16511   0.00000  Uiso   1.00
H278   H     0.26560   0.65948   0.14776   0.00000  Uiso   1.00
H279   H     0.31050   0.84407   0.34128   0.00000  Uiso   1.00
H280   H     0.31348   0.97932   0.19672   0.00000  Uiso   1.00
N281   N     0.16667   0.74999   0.12623   0.00000  Uiso   1.00
N282   N     0.16667   0.75001   0.37376   0.00000  Uiso   1.00
O283   O     0.16667   0.68454   0.28974   0.00000  Uiso   1.00
O284   O     0.08046   0.58452   0.33363   0.00000  Uiso   1.00
O285   O     0.09476   0.90657   0.13981   0.00000  Uiso   1.00
O286   O     0.07014   0.85754   0.19254   0.00000  Uiso   1.00
O287   O     0.29168   0.63716   0.22891   0.00000  Uiso   1.00
O288   O     0.23769   0.63955   0.15796   0.00000  Uiso   1.00
O289   O     0.22802   0.86866   0.36175   0.00000  Uiso   1.00
O290   O     0.29137   0.86228   0.31438   0.00000  Uiso   1.00
O291   O     0.26716   0.54251   0.16109   0.00000  Uiso   1.00
O292   O     0.28853   0.99109   0.21837   0.00000  Uiso   1.00
O293   O     0.28164   0.50555   0.31964   0.00000  Uiso   1.00
O294   O     0.16666   0.81547   0.21026   0.00000  Uiso   1.00
O295   O     0.25457   0.96141   0.37539   0.00000  Uiso   1.00
O296   O     0.16667   0.68453   0.21026   0.00000  Uiso   1.00
O297   O     0.16666   0.81547   0.28974   0.00000  Uiso   1.00
O298   O     0.09058   0.75000   0.28044   0.00000  Uiso   1.00
O299   O     0.24275   0.75000   0.21955   0.00000  Uiso   1.00
O300   O     0.09058   0.75000   0.20096   0.00000  Uiso   1.00
O301   O     0.24275   0.75001   0.29903   0.00000  Uiso   1.00
O302   O     0.07232   0.63911   0.27856   0.00000  Uiso   1.00
Zn303  Zn    0.16667   0.75001   0.30307   0.00000  Uiso   1.00
Zn304  Zn    0.16667   0.75000   0.19693   0.00000  Uiso   1.00
C305   C     0.50085   0.66385   0.24960   0.00000  Uiso   1.00
C306   C     0.45480   0.73733   0.44090   0.00000  Uiso   1.00
C307   C     0.49906   0.75057   0.02656   0.00000  Uiso   1.00
C308   C     0.49915   0.75054   0.47332   0.00000  Uiso   1.00
C309   C     0.40049   0.75010   0.23766   0.00000  Uiso   1.00
C310   C     0.59949   0.75024   0.26231   0.00000  Uiso   1.00
C311   C     0.34581   0.74875   0.23090   0.00000  Uiso   1.00
C312   C     0.65410   0.75231   0.26894   0.00000  Uiso   1.00
C313   C     0.48555   0.54357   0.27660   0.00000  Uiso   1.00
C314   C     0.48955   0.95566   0.21489   0.00000  Uiso   1.00
C315   C     0.47527   0.58898   0.27375   0.00000  Uiso   1.00
C316   C     0.50087   0.83627   0.25062   0.00000  Uiso   1.00
C317   C     0.47865   0.91029   0.21591   0.00000  Uiso   1.00
C318   C     0.50686   0.61576   0.24902   0.00000  Uiso   1.00
C319   C     0.50653   0.88463   0.25246   0.00000  Uiso   1.00
C320   C     0.54703   0.59669   0.22613   0.00000  Uiso   1.00
C321   C     0.54337   0.90504   0.28871   0.00000  Uiso   1.00
C322   C     0.55454   0.55007   0.22667   0.00000  Uiso   1.00
C323   C     0.55143   0.95157   0.28881   0.00000  Uiso   1.00
C324   C     0.52377   0.52437   0.25293   0.00000  Uiso   1.00
C325   C     0.52450   0.97604   0.25107   0.00000  Uiso   1.00
C326   C     0.42993   0.60651   0.29520   0.00000  Uiso   1.00
C327   C     0.48148   0.71299   0.04907   0.00000  Uiso   1.00
C328   C     0.43592   0.89146   0.18001   0.00000  Uiso   1.00
C329   C     0.58373   0.62570   0.20503   0.00000  Uiso   1.00
C330   C     0.57640   0.87758   0.32416   0.00000  Uiso   1.00
C331   C     0.59351   0.52823   0.19978   0.00000  Uiso   1.00
C332   C     0.58697   0.97466   0.32827   0.00000  Uiso   1.00
C333   C     0.54397   0.76324   0.45412   0.00000  Uiso   1.00
C334   C     0.48154   0.71367   0.09870   0.00000  Uiso   1.00
C335   C     0.54340   0.76321   0.40443   0.00000  Uiso   1.00
C336   C     0.51754   0.78673   0.10543   0.00000  Uiso   1.00
C337   C     0.45640   0.73673   0.39148   0.00000  Uiso   1.00
C338   C     0.51695   0.78796   0.05576   0.00000  Uiso   1.00
F339   F     0.65461   0.74240   0.18521   0.00000  Uiso   1.00
F340   F     0.34520   0.75934   0.31449   0.00000  Uiso   1.00
F341   F     0.46532   0.67530   0.02345   0.00000  Uiso   1.00
F342   F     0.58873   0.77458   0.48322   0.00000  Uiso   1.00
F343   F     0.46266   0.67768   0.11909   0.00000  Uiso   1.00
F344   F     0.58695   0.77628   0.38727   0.00000  Uiso   1.00
F345   F     0.53263   0.82596   0.03640   0.00000  Uiso   1.00
F346   F     0.40968   0.72594   0.45666   0.00000  Uiso   1.00
H347   H     0.46145   0.52211   0.29493   0.00000  Uiso   1.00
H348   H     0.61344   0.97965   0.39880   0.00000  Uiso   1.00
H349   H     0.46786   0.97617   0.18763   0.00000  Uiso   1.00
H350   H     0.53167   0.81557   0.12732   0.00000  Uiso   1.00
H351   H     0.42243   0.72563   0.36731   0.00000  Uiso   1.00
H352   H     0.38222   0.59910   0.34469   0.00000  Uiso   1.00
H353   H     0.37582   0.84776   0.16511   0.00000  Uiso   1.00
H354   H     0.59894   0.65948   0.14776   0.00000  Uiso   1.00
H355   H     0.64384   0.84407   0.34128   0.00000  Uiso   1.00
H356   H     0.64682   0.97932   0.19672   0.00000  Uiso   1.00
N357   N     0.50000   0.74999   0.12623   0.00000  Uiso   1.00
N358   N     0.50000   0.75001   0.37376   0.00000  Uiso   1.00
O359   O     0.50000   0.68454   0.28974   0.00000  Uiso   1.00
O360   O     0.41380   0.58452   0.33363   0.00000  Uiso   1.00
O361   O     0.42809   0.90657   0.13981   0.00000  Uiso   1.00
O362   O     0.40347   0.85754   0.19254   0.00000  Uiso   1.00
O363   O     0.62502   0.63716   0.22891   0.00000  Uiso   1.00
O364   O     0.57103   0.63955   0.15796   0.00000  Uiso   1.00
O365   O     0.56135   0.86866   0.36175   0.00000  Uiso   1.00
O366   O     0.62471   0.86228   0.31438   0.00000  Uiso   1.00
O367   O     0.60049   0.54251   0.16109   0.00000  Uiso   1.00
O368   O     0.62186   0.99109   0.21837   0.00000  Uiso   1.00
O369   O     0.61497   0.50555   0.31964   0.00000  Uiso   1.00
O370   O     0.50000   0.81547   0.21026   0.00000  Uiso   1.00
O371   O     0.58791   0.96141   0.37539   0.00000  Uiso   1.00
O372   O     0.50000   0.68453   0.21026   0.00000  Uiso   1.00
O373   O     0.50000   0.81547   0.28974   0.00000  Uiso   1.00
O374   O     0.42392   0.75000   0.28044   0.00000  Uiso   1.00
O375   O     0.57608   0.75000   0.21955   0.00000  Uiso   1.00
O376   O     0.42392   0.75000   0.20096   0.00000  Uiso   1.00
O377   O     0.57608   0.75001   0.29903   0.00000  Uiso   1.00
O378   O     0.40565   0.63911   0.27856   0.00000  Uiso   1.00
Zn379  Zn    0.50000   0.75001   0.30307   0.00000  Uiso   1.00
Zn380  Zn    0.50000   0.75000   0.19693   0.00000  Uiso   1.00
C381   C     0.83419   0.66385   0.24960   0.00000  Uiso   1.00
C382   C     0.78813   0.73733   0.44090   0.00000  Uiso   1.00
C383   C     0.83240   0.75057   0.02656   0.00000  Uiso   1.00
C384   C     0.83248   0.75054   0.47332   0.00000  Uiso   1.00
C385   C     0.73382   0.75010   0.23766   0.00000  Uiso   1.00
C386   C     0.93282   0.75024   0.26231   0.00000  Uiso   1.00
C387   C     0.67914   0.74875   0.23090   0.00000  Uiso   1.00
C388   C     0.98744   0.75231   0.26894   0.00000  Uiso   1.00
C389   C     0.81888   0.54357   0.27660   0.00000  Uiso   1.00
C390   C     0.82289   0.95566   0.21489   0.00000  Uiso   1.00
C391   C     0.80860   0.58898   0.27375   0.00000  Uiso   1.00
C392   C     0.83420   0.83627   0.25062   0.00000  Uiso   1.00
C393   C     0.81198   0.91029   0.21591   0.00000  Uiso   1.00
C394   C     0.84019   0.61576   0.24902   0.00000  Uiso   1.00
C395   C     0.83987   0.88463   0.25246   0.00000  Uiso   1.00
C396   C     0.88037   0.59669   0.22613   0.00000  Uiso   1.00
C397   C     0.87670   0.90504   0.28871   0.00000  Uiso   1.00
C398   C     0.88787   0.55007   0.22667   0.00000  Uiso   1.00
C399   C     0.88476   0.95157   0.28881   0.00000  Uiso   1.00
C400   C     0.85710   0.52437   0.25293   0.00000  Uiso   1.00
C401   C     0.85783   0.97604   0.25107   0.00000  Uiso   1.00
C402   C     0.76327   0.60651   0.29520   0.00000  Uiso   1.00
C403   C     0.81481   0.71299   0.04907   0.00000  Uiso   1.00
C404   C     0.76925   0.89146   0.18001   0.00000  Uiso   1.00
C405   C     0.91707   0.62570   0.20503   0.00000  Uiso   1.00
C406   C     0.90973   0.87758   0.32416   0.00000  Uiso   1.00
C407   C     0.92685   0.52823   0.19978   0.00000  Uiso   1.00
C408   C     0.92030   0.97466   0.32827   0.00000  Uiso   1.00
C409   C     0.87730   0.76324   0.45412   0.00000  Uiso   1.00
C410   C     0.81488   0.71367   0.09870   0.00000  Uiso   1.00
C411   C     0.87673   0.76321   0.40443   0.00000  Uiso   1.00
C412   C     0.85088   0.78673   0.10543   0.00000  Uiso   1.00
C413   C     0.78973   0.73673   0.39148   0.00000  Uiso   1.00
C414   C     0.85028   0.78796   0.05576   0.00000  Uiso   1.00
F415   F     0.98795   0.74240   0.18521   0.00000  Uiso   1.00
F416   F     0.67853   0.75934   0.31449   0.00000  Uiso   1.00
F417   F     0.79866   0.67530   0.02345   0.00000  Uiso   1.00
F418   F     0.92207   0.77458   0.48322   0.00000  Uiso   1.00
F419   F     0.79599   0.67768   0.11909   0.00000  Uiso   1.00
F420   F     0.92028   0.77628   0.38727   0.00000  Uiso   1.00
F421   F     0.86596   0.82596   0.03640   0.00000  Uiso   1.00
F422   F     0.74302   0.72594   0.45666   0.00000  Uiso   1.00
H423   H     0.79479   0.52211   0.29493   0.00000  Uiso   1.00
H424   H     0.94677   0.97965   0.39880   0.00000  Uiso   1.00
H425   H     0.80119   0.97617   0.18763   0.00000  Uiso   1.00
H426   H     0.86501   0.81557   0.12732   0.00000  Uiso   1.00
H427   H     0.75576   0.72563   0.36731   0.00000  Uiso   1.00
H428   H     0.71556   0.59910   0.34469   0.00000  Uiso   1.00
H429   H     0.70915   0.84776   0.16511   0.00000  Uiso   1.00
H430   H     0.93227   0.65948   0.14776   0.00000  Uiso   1.00
H431   H     0.97717   0.84407   0.34128   0.00000  Uiso   1.00
H432   H     0.98015   0.97932   0.19672   0.00000  Uiso   1.00
N433   N     0.83333   0.74999   0.12623   0.00000  Uiso   1.00
N434   N     0.83333   0.75001   0.37376   0.00000  Uiso   1.00
O435   O     0.83334   0.68454   0.28974   0.00000  Uiso   1.00
O436   O     0.74713   0.58452   0.33363   0.00000  Uiso   1.00
O437   O     0.76142   0.90657   0.13981   0.00000  Uiso   1.00
O438   O     0.73681   0.85754   0.19254   0.00000  Uiso   1.00
O439   O     0.95835   0.63716   0.22891   0.00000  Uiso   1.00
O440   O     0.90436   0.63955   0.15796   0.00000  Uiso   1.00
O441   O     0.89469   0.86866   0.36175   0.00000  Uiso   1.00
O442   O     0.95804   0.86228   0.31438   0.00000  Uiso   1.00
O443   O     0.93383   0.54251   0.16109   0.00000  Uiso   1.00
O444   O     0.95520   0.99109   0.21837   0.00000  Uiso   1.00
O445   O     0.94831   0.50555   0.31964   0.00000  Uiso   1.00
O446   O     0.83333   0.81547   0.21026   0.00000  Uiso   1.00
O447   O     0.92124   0.96141   0.37539   0.00000  Uiso   1.00
O448   O     0.83334   0.68453   0.21026   0.00000  Uiso   1.00
O449   O     0.83333   0.81547   0.28974   0.00000  Uiso   1.00
O450   O     0.75725   0.75000   0.28044   0.00000  Uiso   1.00
O451   O     0.90942   0.75000   0.21955   0.00000  Uiso   1.00
O452   O     0.75725   0.75000   0.20096   0.00000  Uiso   1.00
O453   O     0.90942   0.75001   0.29903   0.00000  Uiso   1.00
O454   O     0.73899   0.63911   0.27856   0.00000  Uiso   1.00
Zn455  Zn    0.83333   0.75001   0.30307   0.00000  Uiso   1.00
Zn456  Zn    0.83333   0.75000   0.19693   0.00000  Uiso   1.00
C457   C     0.16752   0.16385   0.74960   0.00000  Uiso   1.00
C458   C     0.12147   0.23733   0.94090   0.00000  Uiso   1.00
C459   C     0.16573   0.25057   0.52656   0.00000  Uiso   1.00
C460   C     0.16582   0.25054   0.97332   0.00000  Uiso   1.00
C461   C     0.06715   0.25010   0.73766   0.00000  Uiso   1.00
C462   C     0.26616   0.25024   0.76231   0.00000  Uiso   1.00
C463   C     0.01247   0.24875   0.73090   0.00000  Uiso   1.00
C464   C     0.32077   0.25231   0.76894   0.00000  Uiso   1.00
C465   C     0.15222   0.04357   0.77660   0.00000  Uiso   1.00
C466   C     0.15622   0.45566   0.71489   0.00000  Uiso   1.00
C467   C     0.14193   0.08898   0.77375   0.00000  Uiso   1.00
C468   C     0.16754   0.33627   0.75062   0.00000  Uiso   1.00
C469   C     0.14531   0.41029   0.71591   0.00000  Uiso   1.00
C470   C     0.17353   0.11576   0.74902   0.00000  Uiso   1.00
C471   C     0.17320   0.38463   0.75246   0.00000  Uiso   1.00
C472   C     0.21370   0.09669   0.72613   0.00000  Uiso   1.00
C473   C     0.21003   0.40504   0.78871   0.00000  Uiso   1.00
C474   C     0.22121   0.05007   0.72667   0.00000  Uiso   1.00
C475   C     0.21810   0.45157   0.78881   0.00000  Uiso   1.00
C476   C     0.19043   0.02437   0.75293   0.00000  Uiso   1.00
C477   C     0.19116   0.47604   0.75107   0.00000  Uiso   1.00
C478   C     0.09660   0.10651   0.79520   0.00000  Uiso   1.00
C479   C     0.14814   0.21299   0.54907   0.00000  Uiso   1.00
C480   C     0.10259   0.39146   0.68001   0.00000  Uiso   1.00
C481   C     0.25040   0.12570   0.70503   0.00000  Uiso   1.00
C482   C     0.24307   0.37758   0.82416   0.00000  Uiso   1.00
C483   C     0.26018   0.02823   0.69978   0.00000  Uiso   1.00
C484   C     0.25364   0.47466   0.82827   0.00000  Uiso   1.00
C485   C     0.21064   0.26324   0.95412   0.00000  Uiso   1.00
C486   C     0.14821   0.21367   0.59870   0.00000  Uiso   1.00
C487   C     0.21007   0.26321   0.90443   0.00000  Uiso   1.00
C488   C     0.18421   0.28673   0.60543   0.00000  Uiso   1.00
C489   C     0.12306   0.23673   0.89148   0.00000  Uiso   1.00
C490   C     0.18361   0.28796   0.55576   0.00000  Uiso   1.00
F491   F     0.32128   0.24240   0.68521   0.00000  Uiso   1.00
F492   F     0.01186   0.25934   0.81449   0.00000  Uiso   1.00
F493   F     0.13199   0.17530   0.52345   0.00000  Uiso   1.00
F494   F     0.25540   0.27458   0.98322   0.00000  Uiso   1.00
F495   F     0.12933   0.17768   0.61909   0.00000  Uiso   1.00
F496   F     0.25361   0.27628   0.88727   0.00000  Uiso   1.00
F497   F     0.19929   0.32596   0.53640   0.00000  Uiso   1.00
F498   F     0.07635   0.22594   0.95666   0.00000  Uiso   1.00
H499   H     0.12812   0.02211   0.79493   0.00000  Uiso   1.00
H500   H     0.28010   0.47965   0.89880   0.00000  Uiso   1.00
H501   H     0.13452   0.47617   0.68763   0.00000  Uiso   1.00
H502   H     0.19834   0.31557   0.62732   0.00000  Uiso   1.00
H503   H     0.08909   0.22563   0.86731   0.00000  Uiso   1.00
H504   H     0.04889   0.09910   0.84469   0.00000  Uiso   1.00
H505   H     0.04249   0.34776   0.66511   0.00000  Uiso   1.00
H506   H     0.26560   0.15948   0.64776   0.00000  Uiso   1.00
H507   H     0.31050   0.34407   0.84128   0.00000  Uiso   1.00
H508   H     0.31348   0.47932   0.69672   0.00000  Uiso   1.00
N509   N     0.16667   0.24999   0.62623   0.00000  Uiso   1.00
N510   N     0.16667   0.25001   0.87376   0.00000  Uiso   1.00
O511   O     0.16667   0.18454   0.78974   0.00000  Uiso   1.00
O512   O     0.08046   0.08452   0.83363   0.00000  Uiso   1.00
O513   O     0.09476   0.40657   0.63981   0.00000  Uiso   1.00
O514   O     0.07014   0.35754   0.69254   0.00000  Uiso   1.00
O515   O     0.29168   0.13716   0.72891   0.00000  Uiso   1.00
O516   O     0.23769   0.13955   0.65796   0.00000  Uiso   1.00
O517   O     0.22802   0.36866   0.86175   0.00000  Uiso   1.00
O518   O     0.29137   0.36228   0.81438   0.00000  Uiso   1.00
O519   O     0.26716   0.04251   0.66109   0.00000  Uiso   1.00
O520   O     0.28853   0.49109   0.71837   0.00000  Uiso   1.00
O521   O     0.28164   0.00555   0.81964   0.00000  Uiso   1.00
O522   O     0.16666   0.31547   0.71026   0.00000  Uiso   1.00
O523   O     0.25457   0.46141   0.87539   0.00000  Uiso   1.00
O524   O     0.16667   0.18453   0.71026   0.00000  Uiso   1.00
O525   O     0.16666   0.31547   0.78974   0.00000  Uiso   1.00
O526   O     0.09058   0.25000   0.78044   0.00000  Uiso   1.00
O527   O     0.24275   0.25000   0.71955   0.00000  Uiso   1.00
O528   O     0.09058   0.25000   0.70096   0.00000  Uiso   1.00
O529   O     0.24275   0.25001   0.79903   0.00000  Uiso   1.00
O530   O     0.07232   0.13911   0.77856   0.00000  Uiso   1.00
Zn531  Zn    0.16667   0.25001   0.80307   0.00000  Uiso   1.00
Zn532  Zn    0.16667   0.25000   0.69693   0.00000  Uiso   1.00
C533   C     0.50085   0.16385   0.74960   0.00000  Uiso   1.00
C534   C     0.45480   0.23733   0.94090   0.00000  Uiso   1.00
C535   C     0.49906   0.25057   0.52656   0.00000  Uiso   1.00
C536   C     0.49915   0.25054   0.97332   0.00000  Uiso   1.00
C537   C     0.40049   0.25010   0.73766   0.00000  Uiso   1.00
C538   C     0.59949   0.25024   0.76231   0.00000  Uiso   1.00
C539   C     0.34581   0.24875   0.73090   0.00000  Uiso   1.00
C540   C     0.65410   0.25231   0.76894   0.00000  Uiso   1.00
C541   C     0.48555   0.04357   0.77660   0.00000  Uiso   1.00
C542   C     0.48955   0.45566   0.71489   0.00000  Uiso   1.00
C543   C     0.47527   0.08898   0.77375   0.00000  Uiso   1.00
C544   C     0.50087   0.33627   0.75062   0.00000  Uiso   1.00
C545   C     0.47865   0.41029   0.71591   0.00000  Uiso   1.00
C546   C     0.50686   0.11576   0.74902   0.00000  Uiso   1.00
C547   C     0.50653   0.38463   0.75246   0.00000  Uiso   1.00
C548   C     0.54703   0.09669   0.72613   0.00000  Uiso   1.00
C549   C     0.54337   0.40504   0.78871   0.00000  Uiso   1.00
C550   C     0.55454   0.05007   0.72667   0.00000  Uiso   1.00
C551   C     0.55143   0.45157   0.78881   0.00000  Uiso   1.00
C552   C     0.52377   0.02437   0.75293   0.00000  Uiso   1.00
C553   C     0.52450   0.47604   0.75107   0.00000  Uiso   1.00
C554   C     0.42993   0.10651   0.79520   0.00000  Uiso   1.00
C555   C     0.48148   0.21299   0.54907   0.00000  Uiso   1.00
C556   C     0.43592   0.39146   0.68001   0.00000  Uiso   1.00
C557   C     0.58373   0.12570   0.70503   0.00000  Uiso   1.00
C558   C     0.57640   0.37758   0.82416   0.00000  Uiso   1.00
C559   C     0.59351   0.02823   0.69978   0.00000  Uiso   1.00
C560   C     0.58697   0.47466   0.82827   0.00000  Uiso   1.00
C561   C     0.54397   0.26324   0.95412   0.00000  Uiso   1.00
C562   C     0.48154   0.21367   0.59870   0.00000  Uiso   1.00
C563   C     0.54340   0.26321   0.90443   0.00000  Uiso   1.00
C564   C     0.51754   0.28673   0.60543   0.00000  Uiso   1.00
C565   C     0.45640   0.23673   0.89148   0.00000  Uiso   1.00
C566   C     0.51695   0.28796   0.55576   0.00000  Uiso   1.00
F567   F     0.65461   0.24240   0.68521   0.00000  Uiso   1.00
F568   F     0.34520   0.25934   0.81449   0.00000  Uiso   1.00
F569   F     0.46532   0.17530   0.52345   0.00000  Uiso   1.00
F570   F     0.58873   0.27458   0.98322   0.00000  Uiso   1.00
F571   F     0.46266   0.17768   0.61909   0.00000  Uiso   1.00
F572   F     0.58695   0.27628   0.88727   0.00000  Uiso   1.00
F573   F     0.53263   0.32596   0.53640   0.00000  Uiso   1.00
F574   F     0.40968   0.22594   0.95666   0.00000  Uiso   1.00
H575   H     0.46145   0.02211   0.79493   0.00000  Uiso   1.00
H576   H     0.61344   0.47965   0.89880   0.00000  Uiso   1.00
H577   H     0.46786   0.47617   0.68763   0.00000  Uiso   1.00
H578   H     0.53167   0.31557   0.62732   0.00000  Uiso   1.00
H579   H     0.42243   0.22563   0.86731   0.00000  Uiso   1.00
H580   H     0.38222   0.09910   0.84469   0.00000  Uiso   1.00
H581   H     0.37582   0.34776   0.66511   0.00000  Uiso   1.00
H582   H     0.59894   0.15948   0.64776   0.00000  Uiso   1.00
H583   H     0.64384   0.34407   0.84128   0.00000  Uiso   1.00
H584   H     0.64682   0.47932   0.69672   0.00000  Uiso   1.00
N585   N     0.50000   0.24999   0.62623   0.00000  Uiso   1.00
N586   N     0.50000   0.25001   0.87376   0.00000  Uiso   1.00
O587   O     0.50000   0.18454   0.78974   0.00000  Uiso   1.00
O588   O     0.41380   0.08452   0.83363   0.00000  Uiso   1.00
O589   O     0.42809   0.40657   0.63981   0.00000  Uiso   1.00
O590   O     0.40347   0.35754   0.69254   0.00000  Uiso   1.00
O591   O     0.62502   0.13716   0.72891   0.00000  Uiso   1.00
O592   O     0.57103   0.13955   0.65796   0.00000  Uiso   1.00
O593   O     0.56135   0.36866   0.86175   0.00000  Uiso   1.00
O594   O     0.62471   0.36228   0.81438   0.00000  Uiso   1.00
O595   O     0.60049   0.04251   0.66109   0.00000  Uiso   1.00
O596   O     0.62186   0.49109   0.71837   0.00000  Uiso   1.00
O597   O     0.61497   0.00555   0.81964   0.00000  Uiso   1.00
O598   O     0.50000   0.31547   0.71026   0.00000  Uiso   1.00
O599   O     0.58791   0.46141   0.87539   0.00000  Uiso   1.00
O600   O     0.50000   0.18453   0.71026   0.00000  Uiso   1.00
O601   O     0.50000   0.31547   0.78974   0.00000  Uiso   1.00
O602   O     0.42392   0.25000   0.78044   0.00000  Uiso   1.00
O603   O     0.57608   0.25000   0.71955   0.00000  Uiso   1.00
O604   O     0.42392   0.25000   0.70096   0.00000  Uiso   1.00
O605   O     0.57608   0.25001   0.79903   0.00000  Uiso   1.00
O606   O     0.40565   0.13911   0.77856   0.00000  Uiso   1.00
Zn607  Zn    0.50000   0.25001   0.80307   0.00000  Uiso   1.00
Zn608  Zn    0.50000   0.25000   0.69693   0.00000  Uiso   1.00
C609   C     0.83419   0.16385   0.74960   0.00000  Uiso   1.00
C610   C     0.78813   0.23733   0.94090   0.00000  Uiso   1.00
C611   C     0.83240   0.25057   0.52656   0.00000  Uiso   1.00
C612   C     0.83248   0.25054   0.97332   0.00000  Uiso   1.00
C613   C     0.73382   0.25010   0.73766   0.00000  Uiso   1.00
C614   C     0.93282   0.25024   0.76231   0.00000  Uiso   1.00
C615   C     0.67914   0.24875   0.73090   0.00000  Uiso   1.00
C616   C     0.98744   0.25231   0.76894   0.00000  Uiso   1.00
C617   C     0.81888   0.04357   0.77660   0.00000  Uiso   1.00
C618   C     0.82289   0.45566   0.71489   0.00000  Uiso   1.00
C619   C     0.80860   0.08898   0.77375   0.00000  Uiso   1.00
C620   C     0.83420   0.33627   0.75062   0.00000  Uiso   1.00
C621   C     0.81198   0.41029   0.71591   0.00000  Uiso   1.00
C622   C     0.84019   0.11576   0.74902   0.00000  Uiso   1.00
C623   C     0.83987   0.38463   0.75246   0.00000  Uiso   1.00
C624   C     0.88037   0.09669   0.72613   0.00000  Uiso   1.00
C625   C     0.87670   0.40504   0.78871   0.00000  Uiso   1.00
C626   C     0.88787   0.05007   0.72667   0.00000  Uiso   1.00
C627   C     0.88476   0.45157   0.78881   0.00000  Uiso   1.00
C628   C     0.85710   0.02437   0.75293   0.00000  Uiso   1.00
C629   C     0.85783   0.47604   0.75107   0.00000  Uiso   1.00
C630   C     0.76327   0.10651   0.79520   0.00000  Uiso   1.00
C631   C     0.81481   0.21299   0.54907   0.00000  Uiso   1.00
C632   C     0.76925   0.39146   0.68001   0.00000  Uiso   1.00
C633   C     0.91707   0.12570   0.70503   0.00000  Uiso   1.00
C634   C     0.90973   0.37758   0.82416   0.00000  Uiso   1.00
C635   C     0.92685   0.02823   0.69978   0.00000  Uiso   1.00
C636   C     0.92030   0.47466   0.82827   0.00000  Uiso   1.00
C637   C     0.87730   0.26324   0.95412   0.00000  Uiso   1.00
C638   C     0.81488   0.21367   0.59870   0.00000  Uiso   1.00
C639   C     0.87673   0.26321   0.90443   0.00000  Uiso   1.00
C640   C     0.85088   0.28673   0.60543   0.00000  Uiso   1.00
C641   C     0.78973   0.23673   0.89148   0.00000  Uiso   1.00
C642   C     0.85028   0.28796   0.55576   0.00000  Uiso   1.00
F643   F     0.98795   0.24240   0.68521   0.00000  Uiso   1.00
F644   F     0.67853   0.25934   0.81449   0.00000  Uiso   1.00
F645   F     0.79866   0.17530   0.52345   0.00000  Uiso   1.00
F646   F     0.92207   0.27458   0.98322   0.00000  Uiso   1.00
F647   F     0.79599   0.17768   0.61909   0.00000  Uiso   1.00
F648   F     0.92028   0.27628   0.88727   0.00000  Uiso   1.00
F649   F     0.86596   0.32596   0.53640   0.00000  Uiso   1.00
F650   F     0.74302   0.22594   0.95666   0.00000  Uiso   1.00
H651   H     0.79479   0.02211   0.79493   0.00000  Uiso   1.00
H652   H     0.94677   0.47965   0.89880   0.00000  Uiso   1.00
H653   H     0.80119   0.47617   0.68763   0.00000  Uiso   1.00
H654   H     0.86501   0.31557   0.62732   0.00000  Uiso   1.00
H655   H     0.75576   0.22563   0.86731   0.00000  Uiso   1.00
H656   H     0.71556   0.09910   0.84469   0.00000  Uiso   1.00
H657   H     0.70915   0.34776   0.66511   0.00000  Uiso   1.00
H658   H     0.93227   0.15948   0.64776   0.00000  Uiso   1.00
H659   H     0.97717   0.34407   0.84128   0.00000  Uiso   1.00
H660   H     0.98015   0.47932   0.69672   0.00000  Uiso   1.00
N661   N     0.83333   0.24999   0.62623   0.00000  Uiso   1.00
N662   N     0.83333   0.25001   0.87376   0.00000  Uiso   1.00
O663   O     0.83334   0.18454   0.78974   0.00000  Uiso   1.00
O664   O     0.74713   0.08452   0.83363   0.00000  Uiso   1.00
O665   O     0.76142   0.40657   0.63981   0.00000  Uiso   1.00
O666   O     0.73681   0.35754   0.69254   0.00000  Uiso   1.00
O667   O     0.95835   0.13716   0.72891   0.00000  Uiso   1.00
O668   O     0.90436   0.13955   0.65796   0.00000  Uiso   1.00
O669   O     0.89469   0.36866   0.86175   0.00000  Uiso   1.00
O670   O     0.95804   0.36228   0.81438   0.00000  Uiso   1.00
O671   O     0.93383   0.04251   0.66109   0.00000  Uiso   1.00
O672   O     0.95520   0.49109   0.71837   0.00000  Uiso   1.00
O673   O     0.94831   0.00555   0.81964   0.00000  Uiso   1.00
O674   O     0.83333   0.31547   0.71026   0.00000  Uiso   1.00
O675   O     0.92124   0.46141   0.87539   0.00000  Uiso   1.00
O676   O     0.83334   0.18453   0.71026   0.00000  Uiso   1.00
O677   O     0.83333   0.31547   0.78974   0.00000  Uiso   1.00
O678   O     0.75725   0.25000   0.78044   0.00000  Uiso   1.00
O679   O     0.90942   0.25000   0.71955   0.00000  Uiso   1.00
O680   O     0.75725   0.25000   0.70096   0.00000  Uiso   1.00
O681   O     0.90942   0.25001   0.79903   0.00000  Uiso   1.00
O682   O     0.73899   0.13911   0.77856   0.00000  Uiso   1.00
Zn683  Zn    0.83333   0.25001   0.80307   0.00000  Uiso   1.00
Zn684  Zn    0.83333   0.25000   0.69693   0.00000  Uiso   1.00
C685   C     0.16752   0.66385   0.74960   0.00000  Uiso   1.00
C686   C     0.12147   0.73733   0.94090   0.00000  Uiso   1.00
C687   C     0.16573   0.75057   0.52656   0.00000  Uiso   1.00
C688   C     0.16582   0.75054   0.97332   0.00000  Uiso   1.00
C689   C     0.06715   0.75010   0.73766   0.00000  Uiso   1.00
C690   C     0.26616   0.75024   0.76231   0.00000  Uiso   1.00
C691   C     0.01247   0.74875   0.73090   0.00000  Uiso   1.00
C692   C     0.32077   0.75231   0.76894   0.00000  Uiso   1.00
C693   C     0.15222   0.54357   0.77660   0.00000  Uiso   1.00
C694   C     0.15622   0.95566   0.71489   0.00000  Uiso   1.00
C695   C     0.14193   0.58898   0.77375   0.00000  Uiso   1.00
C696   C     0.16754   0.83627   0.75062   0.00000  Uiso   1.00
C697   C     0.14531   0.91029   0.71591   0.00000  Uiso   1.00
C698   C     0.17353   0.61576   0.74902   0.00000  Uiso   1.00
C699   C     0.17320   0.88463   0.75246   0.00000  Uiso   1.00
C700   C     0.21370   0.59669   0.72613   0.00000  Uiso   1.00
C701   C     0.21003   0.90504   0.78871   0.00000  Uiso   1.00
C702   C     0.22121   0.55007   0.72667   0.00000  Uiso   1.00
C703   C     0.21810   0.95157   0.78881   0.00000  Uiso   1.00
C704   C     0.19043   0.52437   0.75293   0.00000  Uiso   1.00
C705   C     0.19116   0.97604   0.75107   0.00000  Uiso   1.00
C706   C     0.09660   0.60651   0.79520   0.00000  Uiso   1.00
C707   C     0.14814   0.71299   0.54907   0.00000  Uiso   1.00
C708   C     0.10259   0.89146   0.68001   0.00000  Uiso   1.00
C709   C     0.25040   0.62570   0.70503   0.00000  Uiso   1.00
C710   C     0.24307   0.87758   0.82416   0.00000  Uiso   1.00
C711   C     0.26018   0.52823   0.69978   0.00000  Uiso   1.00
C712   C     0.25364   0.97466   0.82827   0.00000  Uiso   1.00
C713   C     0.21064   0.76324   0.95412   0.00000  Uiso   1.00
C714   C     0.14821   0.71367   0.59870   0.00000  Uiso   1.00
C715   C     0.21007   0.76321   0.90443   0.00000  Uiso   1.00
C716   C     0.18421   0.78673   0.60543   0.00000  Uiso   1.00
C717   C     0.12306   0.73673   0.89148   0.00000  Uiso   1.00
C718   C     0.18361   0.78796   0.55576   0.00000  Uiso   1.00
F719   F     0.32128   0.74240   0.68521   0.00000  Uiso   1.00
F720   F     0.01186   0.75934   0.81449   0.00000  Uiso   1.00
F721   F     0.13199   0.67530   0.52345   0.00000  Uiso   1.00
F722   F     0.25540   0.77458   0.98322   0.00000  Uiso   1.00
F723   F     0.12933   0.67768   0.61909   0.00000  Uiso   1.00
F724   F     0.25361   0.77628   0.88727   0.00000  Uiso   1.00
F725   F     0.19929   0.82596   0.53640   0.00000  Uiso   1.00
F726   F     0.07635   0.72594   0.95666   0.00000  Uiso   1.00
H727   H     0.12812   0.52211   0.79493   0.00000  Uiso   1.00
H728   H     0.28010   0.97965   0.89880   0.00000  Uiso   1.00
H729   H     0.13452   0.97617   0.68763   0.00000  Uiso   1.00
H730   H     0.19834   0.81557   0.62732   0.00000  Uiso   1.00
H731   H     0.08909   0.72563   0.86731   0.00000  Uiso   1.00
H732   H     0.04889   0.59910   0.84469   0.00000  Uiso   1.00
H733   H     0.04249   0.84776   0.66511   0.00000  Uiso   1.00
H734   H     0.26560   0.65948   0.64776   0.00000  Uiso   1.00
H735   H     0.31050   0.84407   0.84128   0.00000  Uiso   1.00
H736   H     0.31348   0.97932   0.69672   0.00000  Uiso   1.00
N737   N     0.16667   0.74999   0.62623   0.00000  Uiso   1.00
N738   N     0.16667   0.75001   0.87376   0.00000  Uiso   1.00
O739   O     0.16667   0.68454   0.78974   0.00000  Uiso   1.00
O740   O     0.08046   0.58452   0.83363   0.00000  Uiso   1.00
O741   O     0.09476   0.90657   0.63981   0.00000  Uiso   1.00
O742   O     0.07014   0.85754   0.69254   0.00000  Uiso   1.00
O743   O     0.29168   0.63716   0.72891   0.00000  Uiso   1.00
O744   O     0.23769   0.63955   0.65796   0.00000  Uiso   1.00
O745   O     0.22802   0.86866   0.86175   0.00000  Uiso   1.00
O746   O     0.29137   0.86228   0.81438   0.00000  Uiso   1.00
O747   O     0.26716   0.54251   0.66109   0.00000  Uiso   1.00
O748   O     0.28853   0.99109   0.71837   0.00000  Uiso   1.00
O749   O     0.28164   0.50555   0.81964   0.00000  Uiso   1.00
O750   O     0.16666   0.81547   0.71026   0.00000  Uiso   1.00
O751   O     0.25457   0.96141   0.87539   0.00000  Uiso   1.00
O752   O     0.16667   0.68453   0.71026   0.00000  Uiso   1.00
O753   O     0.16666   0.81547   0.78974   0.00000  Uiso   1.00
O754   O     0.09058   0.75000   0.78044   0.00000  Uiso   1.00
O755   O     0.24275   0.75000   0.71955   0.00000  Uiso   1.00
O756   O     0.09058   0.75000   0.70096   0.00000  Uiso   1.00
O757   O     0.24275   0.75001   0.79903   0.00000  Uiso   1.00
O758   O     0.07232   0.63911   0.77856   0.00000  Uiso   1.00
Zn759  Zn    0.16667   0.75001   0.80307   0.00000  Uiso   1.00
Zn760  Zn    0.16667   0.75000   0.69693   0.00000  Uiso   1.00
C761   C     0.50085   0.66385   0.74960   0.00000  Uiso   1.00
C762   C     0.45480   0.73733   0.94090   0.00000  Uiso   1.00
C763   C     0.49906   0.75057   0.52656   0.00000  Uiso   1.00
C764   C     0.49915   0.75054   0.97332   0.00000  Uiso   1.00
C765   C     0.40049   0.75010   0.73766   0.00000  Uiso   1.00
C766   C     0.59949   0.75024   0.76231   0.00000  Uiso   1.00
C767   C     0.34581   0.74875   0.73090   0.00000  Uiso   1.00
C768   C     0.65410   0.75231   0.76894   0.00000  Uiso   1.00
C769   C     0.48555   0.54357   0.77660   0.00000  Uiso   1.00
C770   C     0.48955   0.95566   0.71489   0.00000  Uiso   1.00
C771   C     0.47527   0.58898   0.77375   0.00000  Uiso   1.00
C772   C     0.50087   0.83627   0.75062   0.00000  Uiso   1.00
C773   C     0.47865   0.91029   0.71591   0.00000  Uiso   1.00
C774   C     0.50686   0.61576   0.74902   0.00000  Uiso   1.00
C775   C     0.50653   0.88463   0.75246   0.00000  Uiso   1.00
C776   C     0.54703   0.59669   0.72613   0.00000  Uiso   1.00
C777   C     0.54337   0.90504   0.78871   0.00000  Uiso   1.00
C778   C     0.55454   0.55007   0.72667   0.00000  Uiso   1.00
C779   C     0.55143   0.95157   0.78881   0.00000  Uiso   1.00
C780   C     0.52377   0.52437   0.75293   0.00000  Uiso   1.00
C781   C     0.52450   0.97604   0.75107   0.00000  Uiso   1.00
C782   C     0.42993   0.60651   0.79520   0.00000  Uiso   1.00
C783   C     0.48148   0.71299   0.54907   0.00000  Uiso   1.00
C784   C     0.43592   0.89146   0.68001   0.00000  Uiso   1.00
C785   C     0.58373   0.62570   0.70503   0.00000  Uiso   1.00
C786   C     0.57640   0.87758   0.82416   0.00000  Uiso   1.00
C787   C     0.59351   0.52823   0.69978   0.00000  Uiso   1.00
C788   C     0.58697   0.97466   0.82827   0.00000  Uiso   1.00
C789   C     0.54397   0.76324   0.95412   0.00000  Uiso   1.00
C790   C     0.48154   0.71367   0.59870   0.00000  Uiso   1.00
C791   C     0.54340   0.76321   0.90443   0.00000  Uiso   1.00
C792   C     0.51754   0.78673   0.60543   0.00000  Uiso   1.00
C793   C     0.45640   0.73673   0.89148   0.00000  Uiso   1.00
C794   C     0.51695   0.78796   0.55576   0.00000  Uiso   1.00
F795   F     0.65461   0.74240   0.68521   0.00000  Uiso   1.00
F796   F     0.34520   0.75934   0.81449   0.00000  Uiso   1.00
F797   F     0.46532   0.67530   0.52345   0.00000  Uiso   1.00
F798   F     0.58873   0.77458   0.98322   0.00000  Uiso   1.00
F799   F     0.46266   0.67768   0.61909   0.00000  Uiso   1.00
F800   F     0.58695   0.77628   0.88727   0.00000  Uiso   1.00
F801   F     0.53263   0.82596   0.53640   0.00000  Uiso   1.00
F802   F     0.40968   0.72594   0.95666   0.00000  Uiso   1.00
H803   H     0.46145   0.52211   0.79493   0.00000  Uiso   1.00
H804   H     0.61344   0.97965   0.89880   0.00000  Uiso   1.00
H805   H     0.46786   0.97617   0.68763   0.00000  Uiso   1.00
H806   H     0.53167   0.81557   0.62732   0.00000  Uiso   1.00
H807   H     0.42243   0.72563   0.86731   0.00000  Uiso   1.00
H808   H     0.38222   0.59910   0.84469   0.00000  Uiso   1.00
H809   H     0.37582   0.84776   0.66511   0.00000  Uiso   1.00
H810   H     0.59894   0.65948   0.64776   0.00000  Uiso   1.00
H811   H     0.64384   0.84407   0.84128   0.00000  Uiso   1.00
H812   H     0.64682   0.97932   0.69672   0.00000  Uiso   1.00
N813   N     0.50000   0.74999   0.62623   0.00000  Uiso   1.00
N814   N     0.50000   0.75001   0.87376   0.00000  Uiso   1.00
O815   O     0.50000   0.68454   0.78974   0.00000  Uiso   1.00
O816   O     0.41380   0.58452   0.83363   0.00000  Uiso   1.00
O817   O     0.42809   0.90657   0.63981   0.00000  Uiso   1.00
O818   O     0.40347   0.85754   0.69254   0.00000  Uiso   1.00
O819   O     0.62502   0.63716   0.72891   0.00000  Uiso   1.00
O820   O     0.57103   0.63955   0.65796   0.00000  Uiso   1.00
O821   O     0.56135   0.86866   0.86175   0.00000  Uiso   1.00
O822   O     0.62471   0.86228   0.81438   0.00000  Uiso   1.00
O823   O     0.60049   0.54251   0.66109   0.00000  Uiso   1.00
O824   O     0.62186   0.99109   0.71837   0.00000  Uiso   1.00
O825   O     0.61497   0.50555   0.81964   0.00000  Uiso   1.00
O826   O     0.50000   0.81547   0.71026   0.00000  Uiso   1.00
O827   O     0.58791   0.96141   0.87539   0.00000  Uiso   1.00
O828   O     0.50000   0.68453   0.71026   0.00000  Uiso   1.00
O829   O     0.50000   0.81547   0.78974   0.00000  Uiso   1.00
O830   O     0.42392   0.75000   0.78044   0.00000  Uiso   1.00
O831   O     0.57608   0.75000   0.71955   0.00000  Uiso   1.00
O832   O     0.42392   0.75000   0.70096   0.00000  Uiso   1.00
O833   O     0.57608   0.75001   0.79903   0.00000  Uiso   1.00
O834   O     0.40565   0.63911   0.77856   0.00000  Uiso   1.00
Zn835  Zn    0.50000   0.75001   0.80307   0.00000  Uiso   1.00
Zn836  Zn    0.50000   0.75000   0.69693   0.00000  Uiso   1.00
C837   C     0.83419   0.66385   0.74960   0.00000  Uiso   1.00
C838   C     0.78813   0.73733   0.94090   0.00000  Uiso   1.00
C839   C     0.83240   0.75057   0.52656   0.00000  Uiso   1.00
C840   C     0.83248   0.75054   0.97332   0.00000  Uiso   1.00
C841   C     0.73382   0.75010   0.73766   0.00000  Uiso   1.00
C842   C     0.93282   0.75024   0.76231   0.00000  Uiso   1.00
C843   C     0.67914   0.74875   0.73090   0.00000  Uiso   1.00
C844   C     0.98744   0.75231   0.76894   0.00000  Uiso   1.00
C845   C     0.81888   0.54357   0.77660   0.00000  Uiso   1.00
C846   C     0.82289   0.95566   0.71489   0.00000  Uiso   1.00
C847   C     0.80860   0.58898   0.77375   0.00000  Uiso   1.00
C848   C     0.83420   0.83627   0.75062   0.00000  Uiso   1.00
C849   C     0.81198   0.91029   0.71591   0.00000  Uiso   1.00
C850   C     0.84019   0.61576   0.74902   0.00000  Uiso   1.00
C851   C     0.83987   0.88463   0.75246   0.00000  Uiso   1.00
C852   C     0.88037   0.59669   0.72613   0.00000  Uiso   1.00
C853   C     0.87670   0.90504   0.78871   0.00000  Uiso   1.00
C854   C     0.88787   0.55007   0.72667   0.00000  Uiso   1.00
C855   C     0.88476   0.95157   0.78881   0.00000  Uiso   1.00
C856   C     0.85710   0.52437   0.75293   0.00000  Uiso   1.00
C857   C     0.85783   0.97604   0.75107   0.00000  Uiso   1.00
C858   C     0.76327   0.60651   0.79520   0.00000  Uiso   1.00
C859   C     0.81481   0.71299   0.54907   0.00000  Uiso   1.00
C860   C     0.76925   0.89146   0.68001   0.00000  Uiso   1.00
C861   C     0.91707   0.62570   0.70503   0.00000  Uiso   1.00
C862   C     0.90973   0.87758   0.82416   0.00000  Uiso   1.00
C863   C     0.92685   0.52823   0.69978   0.00000  Uiso   1.00
C864   C     0.92030   0.97466   0.82827   0.00000  Uiso   1.00
C865   C     0.87730   0.76324   0.95412   0.00000  Uiso   1.00
C866   C     0.81488   0.71367   0.59870   0.00000  Uiso   1.00
C867   C     0.87673   0.76321   0.90443   0.00000  Uiso   1.00
C868   C     0.85088   0.78673   0.60543   0.00000  Uiso   1.00
C869   C     0.78973   0.73673   0.89148   0.00000  Uiso   1.00
C870   C     0.85028   0.78796   0.55576   0.00000  Uiso   1.00
F871   F     0.98795   0.74240   0.68521   0.00000  Uiso   1.00
F872   F     0.67853   0.75934   0.81449   0.00000  Uiso   1.00
F873   F     0.79866   0.67530   0.52345   0.00000  Uiso   1.00
F874   F     0.92207   0.77458   0.98322   0.00000  Uiso   1.00
F875   F     0.79599   0.67768   0.61909   0.00000  Uiso   1.00
F876   F     0.92028   0.77628   0.88727   0.00000  Uiso   1.00
F877   F     0.86596   0.82596   0.53640   0.00000  Uiso   1.00
F878   F     0.74302   0.72594   0.95666   0.00000  Uiso   1.00
H879   H     0.79479   0.52211   0.79493   0.00000  Uiso   1.00
H880   H     0.94677   0.97965   0.89880   0.00000  Uiso   1.00
H881   H     0.80119   0.97617   0.68763   0.00000  Uiso   1.00
H882   H     0.86501   0.81557   0.62732   0.00000  Uiso   1.00
H883   H     0.75576   0.72563   0.86731   0.00000  Uiso   1.00
H884   H     0.71556   0.59910   0.84469   0.00000  Uiso   1.00
H885   H     0.70915   0.84776   0.66511   0.00000  Uiso   1.00
H886   H     0.93227   0.65948   0.64776   0.00000  Uiso   1.00
H887   H     0.97717   0.84407   0.84128   0.00000  Uiso   1.00
H888   H     0.98015   0.97932   0.69672   0.00000  Uiso   1.00
N889   N     0.83333   0.74999   0.62623   0.00000  Uiso   1.00
N890   N     0.83333   0.75001   0.87376   0.00000  Uiso   1.00
O891   O     0.83334   0.68454   0.78974   0.00000  Uiso   1.00
O892   O     0.74713   0.58452   0.83363   0.00000  Uiso   1.00
O893   O     0.76142   0.90657   0.63981   0.00000  Uiso   1.00
O894   O     0.73681   0.85754   0.69254   0.00000  Uiso   1.00
O895   O     0.95835   0.63716   0.72891   0.00000  Uiso   1.00
O896   O     0.90436   0.63955   0.65796   0.00000  Uiso   1.00
O897   O     0.89469   0.86866   0.86175   0.00000  Uiso   1.00
O898   O     0.95804   0.86228   0.81438   0.00000  Uiso   1.00
O899   O     0.93383   0.54251   0.66109   0.00000  Uiso   1.00
O900   O     0.95520   0.99109   0.71837   0.00000  Uiso   1.00
O901   O     0.94831   0.50555   0.81964   0.00000  Uiso   1.00
O902   O     0.83333   0.81547   0.71026   0.00000  Uiso   1.00
O903   O     0.92124   0.96141   0.87539   0.00000  Uiso   1.00
O904   O     0.83334   0.68453   0.71026   0.00000  Uiso   1.00
O905   O     0.83333   0.81547   0.78974   0.00000  Uiso   1.00
O906   O     0.75725   0.75000   0.78044   0.00000  Uiso   1.00
O907   O     0.90942   0.75000   0.71955   0.00000  Uiso   1.00
O908   O     0.75725   0.75000   0.70096   0.00000  Uiso   1.00
O909   O     0.90942   0.75001   0.79903   0.00000  Uiso   1.00
O910   O     0.73899   0.63911   0.77856   0.00000  Uiso   1.00
Zn911  Zn    0.83333   0.75001   0.80307   0.00000  Uiso   1.00
Zn912  Zn    0.83333   0.75000   0.69693   0.00000  Uiso   1.00
loop_
_geom_bond_atom_site_label_1
_geom_bond_atom_site_label_2
_geom_bond_distance
_geom_bond_site_symmetry_2
_ccdc_geom_bond_type
C1     O68     1.283   .     A
C1     O55     1.287   .     A
C1     C14     1.443   .     S
C2     C4      1.411   .     A
C2     F42     1.357   .     S
C2     C33     1.408   .     A
C3     C23     1.409   .     A
C3     C34     1.411   .     A
C3     C460    1.510   1_554 S
C4     C29     1.408   .     A
C4     C459    1.510   .     S
C5     C7      1.401   .     S
C5     O70     1.273   .     A
C5     O72     1.280   .     A
C6     O71     1.272   .     A
C6     O73     1.281   .     A
C6     C8      1.400   .     S
C7     C160    1.342   1_455 S
C7     F187    1.365   1_455 S
C8     C83     1.342   .     S
C8     F112    1.363   .     S
C9     C11     1.382   .     A
C9     H43     1.086   .     S
C9     C20     1.394   .     A
C10    H45     1.086   .     S
C10    C21     1.392   .     A
C10    C13     1.384   .     A
C11    C22     1.491   .     S
C11    C14     1.411   .     A
C12    O69     1.285   .     A
C12    C15     1.449   .     S
C12    O66     1.288   .     A
C13    C15     1.412   .     A
C13    C24     1.489   .     S
C14    C16     1.420   .     A
C15    C17     1.421   .     A
C16    C18     1.404   .     A
C16    C25     1.483   .     S
C17    C26     1.481   .     S
C17    C19     1.403   .     A
C18    C20     1.406   .     A
C18    C27     1.496   .     S
C19    C28     1.495   .     S
C19    C21     1.406   .     A
C20    C249    1.442   1_545 S
C21    C248    1.442   .     S
C22    O56     1.399   .     S
C22    O74     1.223   .     D
C23    C30     1.407   .     A
C23    F37     1.357   .     S
C24    O58     1.399   .     S
C24    O57     1.223   .     D
C25    O60     1.397   .     S
C25    O59     1.222   .     D
C26    O61     1.223   .     D
C26    O62     1.397   .     S
C27    O63     1.223   .     D
C27    O292    1.398   1_545 S
C28    O67     1.398   .     S
C28    O293    1.223   .     S
C29    F38     1.358   .     S
C29    C31     1.407   .     A
C30    F39     1.354   .     S
C30    N53     1.366   .     A
C31    N54     1.367   .     A
C31    F40     1.353   .     S
C32    H46     1.081   .     S
C32    N53     1.364   .     A
C32    C34     1.408   .     A
C33    H47     1.079   .     S
C33    N54     1.364   .     A
C34    F41     1.357   .     S
F35    C83     1.365   .     S
F36    C160    1.363   1_455 S
H44    O67     1.014   .     S
H48    O56     1.014   .     S
H49    O58     1.014   .     S
H50    O60     1.014   .     S
H51    O62     1.014   .     S
H52    O64     1.014   .     S
N53    Zn76    2.005   .     S
N54    Zn75    2.005   .     S
O55    Zn75    1.982   .     S
O64    C255    1.398   .     S
O65    C256    1.223   1_545 S
O66    Zn76    1.982   .     S
O68    Zn76    1.996   .     S
O69    Zn75    1.996   .     S
O70    Zn75    1.980   .     S
O71    Zn76    1.980   .     S
O72    Zn76    1.991   .     S
O73    Zn75    1.991   .     S
C77    O144    1.283   .     A
C77    O131    1.287   .     A
C77    C90     1.443   .     S
C78    C80     1.411   .     A
C78    F118    1.357   .     S
C78    C109    1.408   .     A
C79    C99     1.409   .     A
C79    C110    1.411   .     A
C79    C536    1.510   1_554 S
C80    C105    1.408   .     A
C80    C535    1.510   .     S
C81    C83     1.401   .     S
C81    O146    1.273   .     A
C81    O148    1.280   .     A
C82    O147    1.272   .     A
C82    O149    1.281   .     A
C82    C84     1.400   .     S
C84    C159    1.342   .     S
C84    F188    1.363   .     S
C85    C87     1.382   .     A
C85    H119    1.086   .     S
C85    C96     1.394   .     A
C86    H121    1.086   .     S
C86    C97     1.392   .     A
C86    C89     1.384   .     A
C87    C98     1.491   .     S
C87    C90     1.411   .     A
C88    O145    1.285   .     A
C88    C91     1.449   .     S
C88    O142    1.288   .     A
C89    C91     1.412   .     A
C89    C100    1.489   .     S
C90    C92     1.420   .     A
C91    C93     1.421   .     A
C92    C94     1.404   .     A
C92    C101    1.483   .     S
C93    C102    1.481   .     S
C93    C95     1.403   .     A
C94    C96     1.406   .     A
C94    C103    1.496   .     S
C95    C104    1.495   .     S
C95    C97     1.406   .     A
C96    C325    1.442   1_545 S
C97    C324    1.442   .     S
C98    O132    1.399   .     S
C98    O150    1.223   .     D
C99    C106    1.407   .     A
C99    F113    1.357   .     S
C100   O134    1.399   .     S
C100   O133    1.223   .     D
C101   O136    1.397   .     S
C101   O135    1.222   .     D
C102   O137    1.223   .     D
C102   O138    1.397   .     S
C103   O139    1.223   .     D
C103   O368    1.398   1_545 S
C104   O143    1.398   .     S
C104   O369    1.223   .     S
C105   F114    1.358   .     S
C105   C107    1.407   .     A
C106   F115    1.354   .     S
C106   N129    1.366   .     A
C107   N130    1.367   .     A
C107   F116    1.353   .     S
C108   H122    1.081   .     S
C108   N129    1.364   .     A
C108   C110    1.408   .     A
C109   H123    1.079   .     S
C109   N130    1.364   .     A
C110   F117    1.357   .     S
F111   C159    1.365   .     S
H120   O143    1.014   .     S
H124   O132    1.014   .     S
H125   O134    1.014   .     S
H126   O136    1.014   .     S
H127   O138    1.014   .     S
H128   O140    1.014   .     S
N129   Zn152   2.005   .     S
N130   Zn151   2.005   .     S
O131   Zn151   1.982   .     S
O140   C331    1.398   .     S
O141   C332    1.223   1_545 S
O142   Zn152   1.982   .     S
O144   Zn152   1.996   .     S
O145   Zn151   1.996   .     S
O146   Zn151   1.980   .     S
O147   Zn152   1.980   .     S
O148   Zn152   1.991   .     S
O149   Zn151   1.991   .     S
C153   O220    1.283   .     A
C153   O207    1.287   .     A
C153   C166    1.443   .     S
C154   C156    1.411   .     A
C154   F194    1.357   .     S
C154   C185    1.408   .     A
C155   C175    1.409   .     A
C155   C186    1.411   .     A
C155   C612    1.510   1_554 S
C156   C181    1.408   .     A
C156   C611    1.510   .     S
C157   C159    1.401   .     S
C157   O222    1.273   .     A
C157   O224    1.280   .     A
C158   O223    1.272   .     A
C158   O225    1.281   .     A
C158   C160    1.400   .     S
C160   C7      1.342   1_655 S
C160   F36     1.363   1_655 S
C161   C163    1.382   .     A
C161   H195    1.086   .     S
C161   C172    1.394   .     A
C162   H197    1.086   .     S
C162   C173    1.392   .     A
C162   C165    1.384   .     A
C163   C174    1.491   .     S
C163   C166    1.411   .     A
C164   O221    1.285   .     A
C164   C167    1.449   .     S
C164   O218    1.288   .     A
C165   C167    1.412   .     A
C165   C176    1.489   .     S
C166   C168    1.420   .     A
C167   C169    1.421   .     A
C168   C170    1.404   .     A
C168   C177    1.483   .     S
C169   C178    1.481   .     S
C169   C171    1.403   .     A
C170   C172    1.406   .     A
C170   C179    1.496   .     S
C171   C180    1.495   .     S
C171   C173    1.406   .     A
C172   C401    1.442   1_545 S
C173   C400    1.442   .     S
C174   O208    1.399   .     S
C174   O226    1.223   .     D
C175   C182    1.407   .     A
C175   F189    1.357   .     S
C176   O210    1.399   .     S
C176   O209    1.223   .     D
C177   O212    1.397   .     S
C177   O211    1.222   .     D
C178   O213    1.223   .     D
C178   O214    1.397   .     S
C179   O215    1.223   .     D
C179   O444    1.398   1_545 S
C180   O219    1.398   .     S
C180   O445    1.223   .     S
C181   F190    1.358   .     S
C181   C183    1.407   .     A
C182   F191    1.354   .     S
C182   N205    1.366   .     A
C183   N206    1.367   .     A
C183   F192    1.353   .     S
C184   H198    1.081   .     S
C184   N205    1.364   .     A
C184   C186    1.408   .     A
C185   H199    1.079   .     S
C185   N206    1.364   .     A
C186   F193    1.357   .     S
F187   C7      1.365   1_655 S
H196   O219    1.014   .     S
H200   O208    1.014   .     S
H201   O210    1.014   .     S
H202   O212    1.014   .     S
H203   O214    1.014   .     S
H204   O216    1.014   .     S
N205   Zn228   2.005   .     S
N206   Zn227   2.005   .     S
O207   Zn227   1.982   .     S
O216   C407    1.398   .     S
O217   C408    1.223   1_545 S
O218   Zn228   1.982   .     S
O220   Zn228   1.996   .     S
O221   Zn227   1.996   .     S
O222   Zn227   1.980   .     S
O223   Zn228   1.980   .     S
O224   Zn228   1.991   .     S
O225   Zn227   1.991   .     S
C229   O296    1.283   .     A
C229   O283    1.287   .     A
C229   C242    1.443   .     S
C230   C232    1.411   .     A
C230   F270    1.357   .     S
C230   C261    1.408   .     A
C231   C251    1.409   .     A
C231   C262    1.411   .     A
C231   C688    1.510   1_554 S
C232   C257    1.408   .     A
C232   C687    1.510   .     S
C233   C235    1.401   .     S
C233   O298    1.273   .     A
C233   O300    1.280   .     A
C234   O299    1.272   .     A
C234   O301    1.281   .     A
C234   C236    1.400   .     S
C235   C388    1.342   1_455 S
C235   F415    1.365   1_455 S
C236   C311    1.342   .     S
C236   F340    1.363   .     S
C237   C239    1.382   .     A
C237   H271    1.086   .     S
C237   C248    1.394   .     A
C238   H273    1.086   .     S
C238   C249    1.392   .     A
C238   C241    1.384   .     A
C239   C250    1.491   .     S
C239   C242    1.411   .     A
C240   O297    1.285   .     A
C240   C243    1.449   .     S
C240   O294    1.288   .     A
C241   C243    1.412   .     A
C241   C252    1.489   .     S
C242   C244    1.420   .     A
C243   C245    1.421   .     A
C244   C246    1.404   .     A
C244   C253    1.483   .     S
C245   C254    1.481   .     S
C245   C247    1.403   .     A
C246   C248    1.406   .     A
C246   C255    1.496   .     S
C247   C256    1.495   .     S
C247   C249    1.406   .     A
C249   C20     1.442   1_565 S
C250   O284    1.399   .     S
C250   O302    1.223   .     D
C251   C258    1.407   .     A
C251   F265    1.357   .     S
C252   O286    1.399   .     S
C252   O285    1.223   .     D
C253   O288    1.397   .     S
C253   O287    1.222   .     D
C254   O289    1.223   .     D
C254   O290    1.397   .     S
C255   O291    1.223   .     D
C256   O295    1.398   .     S
C256   O65     1.223   1_565 S
C257   F266    1.358   .     S
C257   C259    1.407   .     A
C258   F267    1.354   .     S
C258   N281    1.366   .     A
C259   N282    1.367   .     A
C259   F268    1.353   .     S
C260   H274    1.081   .     S
C260   N281    1.364   .     A
C260   C262    1.408   .     A
C261   H275    1.079   .     S
C261   N282    1.364   .     A
C262   F269    1.357   .     S
F263   C311    1.365   .     S
F264   C388    1.363   1_455 S
H272   O295    1.014   .     S
H276   O284    1.014   .     S
H277   O286    1.014   .     S
H278   O288    1.014   .     S
H279   O290    1.014   .     S
H280   O292    1.014   .     S
N281   Zn304   2.005   .     S
N282   Zn303   2.005   .     S
O283   Zn303   1.982   .     S
O292   C27     1.398   1_565 S
O294   Zn304   1.982   .     S
O296   Zn304   1.996   .     S
O297   Zn303   1.996   .     S
O298   Zn303   1.980   .     S
O299   Zn304   1.980   .     S
O300   Zn304   1.991   .     S
O301   Zn303   1.991   .     S
C305   O372    1.283   .     A
C305   O359    1.287   .     A
C305   C318    1.443   .     S
C306   C308    1.411   .     A
C306   F346    1.357   .     S
C306   C337    1.408   .     A
C307   C327    1.409   .     A
C307   C338    1.411   .     A
C307   C764    1.510   1_554 S
C308   C333    1.408   .     A
C308   C763    1.510   .     S
C309   C311    1.401   .     S
C309   O374    1.273   .     A
C309   O376    1.280   .     A
C310   O375    1.272   .     A
C310   O377    1.281   .     A
C310   C312    1.400   .     S
C312   C387    1.342   .     S
C312   F416    1.363   .     S
C313   C315    1.382   .     A
C313   H347    1.086   .     S
C313   C324    1.394   .     A
C314   H349    1.086   .     S
C314   C325    1.392   .     A
C314   C317    1.384   .     A
C315   C326    1.491   .     S
C315   C318    1.411   .     A
C316   O373    1.285   .     A
C316   C319    1.449   .     S
C316   O370    1.288   .     A
C317   C319    1.412   .     A
C317   C328    1.489   .     S
C318   C320    1.420   .     A
C319   C321    1.421   .     A
C320   C322    1.404   .     A
C320   C329    1.483   .     S
C321   C330    1.481   .     S
C321   C323    1.403   .     A
C322   C324    1.406   .     A
C322   C331    1.496   .     S
C323   C332    1.495   .     S
C323   C325    1.406   .     A
C325   C96     1.442   1_565 S
C326   O360    1.399   .     S
C326   O378    1.223   .     D
C327   C334    1.407   .     A
C327   F341    1.357   .     S
C328   O362    1.399   .     S
C328   O361    1.223   .     D
C329   O364    1.397   .     S
C329   O363    1.222   .     D
C330   O365    1.223   .     D
C330   O366    1.397   .     S
C331   O367    1.223   .     D
C332   O371    1.398   .     S
C332   O141    1.223   1_565 S
C333   F342    1.358   .     S
C333   C335    1.407   .     A
C334   F343    1.354   .     S
C334   N357    1.366   .     A
C335   N358    1.367   .     A
C335   F344    1.353   .     S
C336   H350    1.081   .     S
C336   N357    1.364   .     A
C336   C338    1.408   .     A
C337   H351    1.079   .     S
C337   N358    1.364   .     A
C338   F345    1.357   .     S
F339   C387    1.365   .     S
H348   O371    1.014   .     S
H352   O360    1.014   .     S
H353   O362    1.014   .     S
H354   O364    1.014   .     S
H355   O366    1.014   .     S
H356   O368    1.014   .     S
N357   Zn380   2.005   .     S
N358   Zn379   2.005   .     S
O359   Zn379   1.982   .     S
O368   C103    1.398   1_565 S
O370   Zn380   1.982   .     S
O372   Zn380   1.996   .     S
O373   Zn379   1.996   .     S
O374   Zn379   1.980   .     S
O375   Zn380   1.980   .     S
O376   Zn380   1.991   .     S
O377   Zn379   1.991   .     S
C381   O448    1.283   .     A
C381   O435    1.287   .     A
C381   C394    1.443   .     S
C382   C384    1.411   .     A
C382   F422    1.357   .     S
C382   C413    1.408   .     A
C383   C403    1.409   .     A
C383   C414    1.411   .     A
C383   C840    1.510   1_554 S
C384   C409    1.408   .     A
C384   C839    1.510   .     S
C385   C387    1.401   .     S
C385   O450    1.273   .     A
C385   O452    1.280   .     A
C386   O451    1.272   .     A
C386   O453    1.281   .     A
C386   C388    1.400   .     S
C388   C235    1.342   1_655 S
C388   F264    1.363   1_655 S
C389   C391    1.382   .     A
C389   H423    1.086   .     S
C389   C400    1.394   .     A
C390   H425    1.086   .     S
C390   C401    1.392   .     A
C390   C393    1.384   .     A
C391   C402    1.491   .     S
C391   C394    1.411   .     A
C392   O449    1.285   .     A
C392   C395    1.449   .     S
C392   O446    1.288   .     A
C393   C395    1.412   .     A
C393   C404    1.489   .     S
C394   C396    1.420   .     A
C395   C397    1.421   .     A
C396   C398    1.404   .     A
C396   C405    1.483   .     S
C397   C406    1.481   .     S
C397   C399    1.403   .     A
C398   C400    1.406   .     A
C398   C407    1.496   .     S
C399   C408    1.495   .     S
C399   C401    1.406   .     A
C401   C172    1.442   1_565 S
C402   O436    1.399   .     S
C402   O454    1.223   .     D
C403   C410    1.407   .     A
C403   F417    1.357   .     S
C404   O438    1.399   .     S
C404   O437    1.223   .     D
C405   O440    1.397   .     S
C405   O439    1.222   .     D
C406   O441    1.223   .     D
C406   O442    1.397   .     S
C407   O443    1.223   .     D
C408   O447    1.398   .     S
C408   O217    1.223   1_565 S
C409   F418    1.358   .     S
C409   C411    1.407   .     A
C410   F419    1.354   .     S
C410   N433    1.366   .     A
C411   N434    1.367   .     A
C411   F420    1.353   .     S
C412   H426    1.081   .     S
C412   N433    1.364   .     A
C412   C414    1.408   .     A
C413   H427    1.079   .     S
C413   N434    1.364   .     A
C414   F421    1.357   .     S
F415   C235    1.365   1_655 S
H424   O447    1.014   .     S
H428   O436    1.014   .     S
H429   O438    1.014   .     S
H430   O440    1.014   .     S
H431   O442    1.014   .     S
H432   O444    1.014   .     S
N433   Zn456   2.005   .     S
N434   Zn455   2.005   .     S
O435   Zn455   1.982   .     S
O444   C179    1.398   1_565 S
O446   Zn456   1.982   .     S
O448   Zn456   1.996   .     S
O449   Zn455   1.996   .     S
O450   Zn455   1.980   .     S
O451   Zn456   1.980   .     S
O452   Zn456   1.991   .     S
O453   Zn455   1.991   .     S
C457   O524    1.283   .     A
C457   O511    1.287   .     A
C457   C470    1.443   .     S
C458   C460    1.411   .     A
C458   F498    1.357   .     S
C458   C489    1.408   .     A
C459   C479    1.409   .     A
C459   C490    1.411   .     A
C460   C485    1.408   .     A
C460   C3      1.510   1_556 S
C461   C463    1.401   .     S
C461   O526    1.273   .     A
C461   O528    1.280   .     A
C462   O527    1.272   .     A
C462   O529    1.281   .     A
C462   C464    1.400   .     S
C463   C616    1.342   1_455 S
C463   F643    1.365   1_455 S
C464   C539    1.342   .     S
C464   F568    1.363   .     S
C465   C467    1.382   .     A
C465   H499    1.086   .     S
C465   C476    1.394   .     A
C466   H501    1.086   .     S
C466   C477    1.392   .     A
C466   C469    1.384   .     A
C467   C478    1.491   .     S
C467   C470    1.411   .     A
C468   O525    1.285   .     A
C468   C471    1.449   .     S
C468   O522    1.288   .     A
C469   C471    1.412   .     A
C469   C480    1.489   .     S
C470   C472    1.420   .     A
C471   C473    1.421   .     A
C472   C474    1.404   .     A
C472   C481    1.483   .     S
C473   C482    1.481   .     S
C473   C475    1.403   .     A
C474   C476    1.406   .     A
C474   C483    1.496   .     S
C475   C484    1.495   .     S
C475   C477    1.406   .     A
C476   C705    1.442   1_545 S
C477   C704    1.442   .     S
C478   O512    1.399   .     S
C478   O530    1.223   .     D
C479   C486    1.407   .     A
C479   F493    1.357   .     S
C480   O514    1.399   .     S
C480   O513    1.223   .     D
C481   O516    1.397   .     S
C481   O515    1.222   .     D
C482   O517    1.223   .     D
C482   O518    1.397   .     S
C483   O519    1.223   .     D
C483   O748    1.398   1_545 S
C484   O523    1.398   .     S
C484   O749    1.223   .     S
C485   F494    1.358   .     S
C485   C487    1.407   .     A
C486   F495    1.354   .     S
C486   N509    1.366   .     A
C487   N510    1.367   .     A
C487   F496    1.353   .     S
C488   H502    1.081   .     S
C488   N509    1.364   .     A
C488   C490    1.408   .     A
C489   H503    1.079   .     S
C489   N510    1.364   .     A
C490   F497    1.357   .     S
F491   C539    1.365   .     S
F492   C616    1.363   1_455 S
H500   O523    1.014   .     S
H504   O512    1.014   .     S
H505   O514    1.014   .     S
H506   O516    1.014   .     S
H507   O518    1.014   .     S
H508   O520    1.014   .     S
N509   Zn532   2.005   .     S
N510   Zn531   2.005   .     S
O511   Zn531   1.982   .     S
O520   C711    1.398   .     S
O521   C712    1.223   1_545 S
O522   Zn532   1.982   .     S
O524   Zn532   1.996   .     S
O525   Zn531   1.996   .     S
O526   Zn531   1.980   .     S
O527   Zn532   1.980   .     S
O528   Zn532   1.991   .     S
O529   Zn531   1.991   .     S
C533   O600    1.283   .     A
C533   O587    1.287   .     A
C533   C546    1.443   .     S
C534   C536    1.411   .     A
C534   F574    1.357   .     S
C534   C565    1.408   .     A
C535   C555    1.409   .     A
C535   C566    1.411   .     A
C536   C561    1.408   .     A
C536   C79     1.510   1_556 S
C537   C539    1.401   .     S
C537   O602    1.273   .     A
C537   O604    1.280   .     A
C538   O603    1.272   .     A
C538   O605    1.281   .     A
C538   C540    1.400   .     S
C540   C615    1.342   .     S
C540   F644    1.363   .     S
C541   C543    1.382   .     A
C541   H575    1.086   .     S
C541   C552    1.394   .     A
C542   H577    1.086   .     S
C542   C553    1.392   .     A
C542   C545    1.384   .     A
C543   C554    1.491   .     S
C543   C546    1.411   .     A
C544   O601    1.285   .     A
C544   C547    1.449   .     S
C544   O598    1.288   .     A
C545   C547    1.412   .     A
C545   C556    1.489   .     S
C546   C548    1.420   .     A
C547   C549    1.421   .     A
C548   C550    1.404   .     A
C548   C557    1.483   .     S
C549   C558    1.481   .     S
C549   C551    1.403   .     A
C550   C552    1.406   .     A
C550   C559    1.496   .     S
C551   C560    1.495   .     S
C551   C553    1.406   .     A
C552   C781    1.442   1_545 S
C553   C780    1.442   .     S
C554   O588    1.399   .     S
C554   O606    1.223   .     D
C555   C562    1.407   .     A
C555   F569    1.357   .     S
C556   O590    1.399   .     S
C556   O589    1.223   .     D
C557   O592    1.397   .     S
C557   O591    1.222   .     D
C558   O593    1.223   .     D
C558   O594    1.397   .     S
C559   O595    1.223   .     D
C559   O824    1.398   1_545 S
C560   O599    1.398   .     S
C560   O825    1.223   .     S
C561   F570    1.358   .     S
C561   C563    1.407   .     A
C562   F571    1.354   .     S
C562   N585    1.366   .     A
C563   N586    1.367   .     A
C563   F572    1.353   .     S
C564   H578    1.081   .     S
C564   N585    1.364   .     A
C564   C566    1.408   .     A
C565   H579    1.079   .     S
C565   N586    1.364   .     A
C566   F573    1.357   .     S
F567   C615    1.365   .     S
H576   O599    1.014   .     S
H580   O588    1.014   .     S
H581   O590    1.014   .     S
H582   O592    1.014   .     S
H583   O594    1.014   .     S
H584   O596    1.014   .     S
N585   Zn608   2.005   .     S
N586   Zn607   2.005   .     S
O587   Zn607   1.982   .     S
O596   C787    1.398   .     S
O597   C788    1.223   1_545 S
O598   Zn608   1.982   .     S
O600   Zn608   1.996   .     S
O601   Zn607   1.996   .     S
O602   Zn607   1.980   .     S
O603   Zn608   1.980   .     S
O604   Zn608   1.991   .     S
O605   Zn607   1.991   .     S
C609   O676    1.283   .     A
C609   O663    1.287   .     A
C609   C622    1.443   .     S
C610   C612    1.411   .     A
C610   F650    1.357   .     S
C610   C641    1.408   .     A
C611   C631    1.409   .     A
C611   C642    1.411   .     A
C612   C637    1.408   .     A
C612   C155    1.510   1_556 S
C613   C615    1.401   .     S
C613   O678    1.273   .     A
C613   O680    1.280   .     A
C614   O679    1.272   .     A
C614   O681    1.281   .     A
C614   C616    1.400   .     S
C616   C463    1.342   1_655 S
C616   F492    1.363   1_655 S
C617   C619    1.382   .     A
C617   H651    1.086   .     S
C617   C628    1.394   .     A
C618   H653    1.086   .     S
C618   C629    1.392   .     A
C618   C621    1.384   .     A
C619   C630    1.491   .     S
C619   C622    1.411   .     A
C620   O677    1.285   .     A
C620   C623    1.449   .     S
C620   O674    1.288   .     A
C621   C623    1.412   .     A
C621   C632    1.489   .     S
C622   C624    1.420   .     A
C623   C625    1.421   .     A
C624   C626    1.404   .     A
C624   C633    1.483   .     S
C625   C634    1.481   .     S
C625   C627    1.403   .     A
C626   C628    1.406   .     A
C626   C635    1.496   .     S
C627   C636    1.495   .     S
C627   C629    1.406   .     A
C628   C857    1.442   1_545 S
C629   C856    1.442   .     S
C630   O664    1.399   .     S
C630   O682    1.223   .     D
C631   C638    1.407   .     A
C631   F645    1.357   .     S
C632   O666    1.399   .     S
C632   O665    1.223   .     D
C633   O668    1.397   .     S
C633   O667    1.222   .     D
C634   O669    1.223   .     D
C634   O670    1.397   .     S
C635   O671    1.223   .     D
C635   O900    1.398   1_545 S
C636   O675    1.398   .     S
C636   O901    1.223   .     S
C637   F646    1.358   .     S
C637   C639    1.407   .     A
C638   F647    1.354   .     S
C638   N661    1.366   .     A
C639   N662    1.367   .     A
C639   F648    1.353   .     S
C640   H654    1.081   .     S
C640   N661    1.364   .     A
C640   C642    1.408   .     A
C641   H655    1.079   .     S
C641   N662    1.364   .     A
C642   F649    1.357   .     S
F643   C463    1.365   1_655 S
H652   O675    1.014   .     S
H656   O664    1.014   .     S
H657   O666    1.014   .     S
H658   O668    1.014   .     S
H659   O670    1.014   .     S
H660   O672    1.014   .     S
N661   Zn684   2.005   .     S
N662   Zn683   2.005   .     S
O663   Zn683   1.982   .     S
O672   C863    1.398   .     S
O673   C864    1.223   1_545 S
O674   Zn684   1.982   .     S
O676   Zn684   1.996   .     S
O677   Zn683   1.996   .     S
O678   Zn683   1.980   .     S
O679   Zn684   1.980   .     S
O680   Zn684   1.991   .     S
O681   Zn683   1.991   .     S
C685   O752    1.283   .     A
C685   O739    1.287   .     A
C685   C698    1.443   .     S
C686   C688    1.411   .     A
C686   F726    1.357   .     S
C686   C717    1.408   .     A
C687   C707    1.409   .     A
C687   C718    1.411   .     A
C688   C713    1.408   .     A
C688   C231    1.510   1_556 S
C689   C691    1.401   .     S
C689   O754    1.273   .     A
C689   O756    1.280   .     A
C690   O755    1.272   .     A
C690   O757    1.281   .     A
C690   C692    1.400   .     S
C691   C844    1.342   1_455 S
C691   F871    1.365   1_455 S
C692   C767    1.342   .     S
C692   F796    1.363   .     S
C693   C695    1.382   .     A
C693   H727    1.086   .     S
C693   C704    1.394   .     A
C694   H729    1.086   .     S
C694   C705    1.392   .     A
C694   C697    1.384   .     A
C695   C706    1.491   .     S
C695   C698    1.411   .     A
C696   O753    1.285   .     A
C696   C699    1.449   .     S
C696   O750    1.288   .     A
C697   C699    1.412   .     A
C697   C708    1.489   .     S
C698   C700    1.420   .     A
C699   C701    1.421   .     A
C700   C702    1.404   .     A
C700   C709    1.483   .     S
C701   C710    1.481   .     S
C701   C703    1.403   .     A
C702   C704    1.406   .     A
C702   C711    1.496   .     S
C703   C712    1.495   .     S
C703   C705    1.406   .     A
C705   C476    1.442   1_565 S
C706   O740    1.399   .     S
C706   O758    1.223   .     D
C707   C714    1.407   .     A
C707   F721    1.357   .     S
C708   O742    1.399   .     S
C708   O741    1.223   .     D
C709   O744    1.397   .     S
C709   O743    1.222   .     D
C710   O745    1.223   .     D
C710   O746    1.397   .     S
C711   O747    1.223   .     D
C712   O751    1.398   .     S
C712   O521    1.223   1_565 S
C713   F722    1.358   .     S
C713   C715    1.407   .     A
C714   F723    1.354   .     S
C714   N737    1.366   .     A
C715   N738    1.367   .     A
C715   F724    1.353   .     S
C716   H730    1.081   .     S
C716   N737    1.364   .     A
C716   C718    1.408   .     A
C717   H731    1.079   .     S
C717   N738    1.364   .     A
C718   F725    1.357   .     S
F719   C767    1.365   .     S
F720   C844    1.363   1_455 S
H728   O751    1.014   .     S
H732   O740    1.014   .     S
H733   O742    1.014   .     S
H734   O744    1.014   .     S
H735   O746    1.014   .     S
H736   O748    1.014   .     S
N737   Zn760   2.005   .     S
N738   Zn759   2.005   .     S
O739   Zn759   1.982   .     S
O748   C483    1.398   1_565 S
O750   Zn760   1.982   .     S
O752   Zn760   1.996   .     S
O753   Zn759   1.996   .     S
O754   Zn759   1.980   .     S
O755   Zn760   1.980   .     S
O756   Zn760   1.991   .     S
O757   Zn759   1.991   .     S
C761   O828    1.283   .     A
C761   O815    1.287   .     A
C761   C774    1.443   .     S
C762   C764    1.411   .     A
C762   F802    1.357   .     S
C762   C793    1.408   .     A
C763   C783    1.409   .     A
C763   C794    1.411   .     A
C764   C789    1.408   .     A
C764   C307    1.510   1_556 S
C765   C767    1.401   .     S
C765   O830    1.273   .     A
C765   O832    1.280   .     A
C766   O831    1.272   .     A
C766   O833    1.281   .     A
C766   C768    1.400   .     S
C768   C843    1.342   .     S
C768   F872    1.363   .     S
C769   C771    1.382   .     A
C769   H803    1.086   .     S
C769   C780    1.394   .     A
C770   H805    1.086   .     S
C770   C781    1.392   .     A
C770   C773    1.384   .     A
C771   C782    1.491   .     S
C771   C774    1.411   .     A
C772   O829    1.285   .     A
C772   C775    1.449   .     S
C772   O826    1.288   .     A
C773   C775    1.412   .     A
C773   C784    1.489   .     S
C774   C776    1.420   .     A
C775   C777    1.421   .     A
C776   C778    1.404   .     A
C776   C785    1.483   .     S
C777   C786    1.481   .     S
C777   C779    1.403   .     A
C778   C780    1.406   .     A
C778   C787    1.496   .     S
C779   C788    1.495   .     S
C779   C781    1.406   .     A
C781   C552    1.442   1_565 S
C782   O816    1.399   .     S
C782   O834    1.223   .     D
C783   C790    1.407   .     A
C783   F797    1.357   .     S
C784   O818    1.399   .     S
C784   O817    1.223   .     D
C785   O820    1.397   .     S
C785   O819    1.222   .     D
C786   O821    1.223   .     D
C786   O822    1.397   .     S
C787   O823    1.223   .     D
C788   O827    1.398   .     S
C788   O597    1.223   1_565 S
C789   F798    1.358   .     S
C789   C791    1.407   .     A
C790   F799    1.354   .     S
C790   N813    1.366   .     A
C791   N814    1.367   .     A
C791   F800    1.353   .     S
C792   H806    1.081   .     S
C792   N813    1.364   .     A
C792   C794    1.408   .     A
C793   H807    1.079   .     S
C793   N814    1.364   .     A
C794   F801    1.357   .     S
F795   C843    1.365   .     S
H804   O827    1.014   .     S
H808   O816    1.014   .     S
H809   O818    1.014   .     S
H810   O820    1.014   .     S
H811   O822    1.014   .     S
H812   O824    1.014   .     S
N813   Zn836   2.005   .     S
N814   Zn835   2.005   .     S
O815   Zn835   1.982   .     S
O824   C559    1.398   1_565 S
O826   Zn836   1.982   .     S
O828   Zn836   1.996   .     S
O829   Zn835   1.996   .     S
O830   Zn835   1.980   .     S
O831   Zn836   1.980   .     S
O832   Zn836   1.991   .     S
O833   Zn835   1.991   .     S
C837   O904    1.283   .     A
C837   O891    1.287   .     A
C837   C850    1.443   .     S
C838   C840    1.411   .     A
C838   F878    1.357   .     S
C838   C869    1.408   .     A
C839   C859    1.409   .     A
C839   C870    1.411   .     A
C840   C865    1.408   .     A
C840   C383    1.510   1_556 S
C841   C843    1.401   .     S
C841   O906    1.273   .     A
C841   O908    1.280   .     A
C842   O907    1.272   .     A
C842   O909    1.281   .     A
C842   C844    1.400   .     S
C844   C691    1.342   1_655 S
C844   F720    1.363   1_655 S
C845   C847    1.382   .     A
C845   H879    1.086   .     S
C845   C856    1.394   .     A
C846   H881    1.086   .     S
C846   C857    1.392   .     A
C846   C849    1.384   .     A
C847   C858    1.491   .     S
C847   C850    1.411   .     A
C848   O905    1.285   .     A
C848   C851    1.449   .     S
C848   O902    1.288   .     A
C849   C851    1.412   .     A
C849   C860    1.489   .     S
C850   C852    1.420   .     A
C851   C853    1.421   .     A
C852   C854    1.404   .     A
C852   C861    1.483   .     S
C853   C862    1.481   .     S
C853   C855    1.403   .     A
C854   C856    1.406   .     A
C854   C863    1.496   .     S
C855   C864    1.495   .     S
C855   C857    1.406   .     A
C857   C628    1.442   1_565 S
C858   O892    1.399   .     S
C858   O910    1.223   .     D
C859   C866    1.407   .     A
C859   F873    1.357   .     S
C860   O894    1.399   .     S
C860   O893    1.223   .     D
C861   O896    1.397   .     S
C861   O895    1.222   .     D
C862   O897    1.223   .     D
C862   O898    1.397   .     S
C863   O899    1.223   .     D
C864   O903    1.398   .     S
C864   O673    1.223   1_565 S
C865   F874    1.358   .     S
C865   C867    1.407   .     A
C866   F875    1.354   .     S
C866   N889    1.366   .     A
C867   N890    1.367   .     A
C867   F876    1.353   .     S
C868   H882    1.081   .     S
C868   N889    1.364   .     A
C868   C870    1.408   .     A
C869   H883    1.079   .     S
C869   N890    1.364   .     A
C870   F877    1.357   .     S
F871   C691    1.365   1_655 S
H880   O903    1.014   .     S
H884   O892    1.014   .     S
H885   O894    1.014   .     S
H886   O896    1.014   .     S
H887   O898    1.014   .     S
H888   O900    1.014   .     S
N889   Zn912   2.005   .     S
N890   Zn911   2.005   .     S
O891   Zn911   1.982   .     S
O900   C635    1.398   1_565 S
O902   Zn912   1.982   .     S
O904   Zn912   1.996   .     S
O905   Zn911   1.996   .     S
O906   Zn911   1.980   .     S
O907   Zn912   1.980   .     S
O908   Zn912   1.991   .     S
O909   Zn911   1.991   .     S
