data_str_m3_o1_o17_pcu_sym.13
_audit_creation_date              2020-01-03
_audit_creation_method            'Materials Studio'
_symmetry_space_group_name_H-M    'P1'
_symmetry_Int_Tables_number       1
_symmetry_cell_setting            triclinic
loop_
_symmetry_equiv_pos_as_xyz
  x,y,z
_cell_length_a                    32.2596
_cell_length_b                    30.0200
_cell_length_c                    29.8601
_cell_angle_alpha                 89.9998
_cell_angle_beta                  91.9800
_cell_angle_gamma                 90.0001
loop_
_atom_site_label
_atom_site_type_symbol
_atom_site_fract_x
_atom_site_fract_y
_atom_site_fract_z
_atom_site_U_iso_or_equiv
_atom_site_adp_type
_atom_site_occupancy
Br1    Br    0.25522   0.16084   0.37707   0.00000  Uiso   1.00
Br2    Br    0.07812   0.16084   0.12293   0.00000  Uiso   1.00
Br3    Br    0.08004   0.18697   0.36675   0.00000  Uiso   1.00
Br4    Br    0.25329   0.18697   0.13325   0.00000  Uiso   1.00
Br5    Br    0.03881   0.14963   0.45393   0.00000  Uiso   1.00
Br6    Br    0.29452   0.14963   0.04607   0.00000  Uiso   1.00
C7     C     0.08677   0.16667   0.24991   0.00000  Uiso   1.00
C8     C     0.04251   0.16667   0.25001   0.00000  Uiso   1.00
C9     C     0.19291   0.02371   0.27830   0.00000  Uiso   1.00
C10    C     0.14051   0.30942   0.22155   0.00000  Uiso   1.00
C11    C     0.14042   0.02371   0.22170   0.00000  Uiso   1.00
C12    C     0.19282   0.30942   0.27845   0.00000  Uiso   1.00
C13    C     0.16652   0.16682   0.16372   0.00000  Uiso   1.00
C14    C     0.16681   0.16682   0.33628   0.00000  Uiso   1.00
C15    C     0.20424   0.17134   0.40796   0.00000  Uiso   1.00
C16    C     0.12910   0.17134   0.09204   0.00000  Uiso   1.00
C17    C     0.16637   0.16815   0.38410   0.00000  Uiso   1.00
C18    C     0.24656   0.16667   0.25009   0.00000  Uiso   1.00
C19    C     0.16696   0.16816   0.11590   0.00000  Uiso   1.00
C20    C     0.12830   0.17284   0.40476   0.00000  Uiso   1.00
C21    C     0.20503   0.17284   0.09524   0.00000  Uiso   1.00
C22    C     0.12777   0.17362   0.45184   0.00000  Uiso   1.00
C23    C     0.20556   0.17362   0.04816   0.00000  Uiso   1.00
C24    C     0.16630   0.17597   0.47644   0.00000  Uiso   1.00
C25    C     0.16703   0.17597   0.02356   0.00000  Uiso   1.00
C26    C     0.20419   0.17831   0.45418   0.00000  Uiso   1.00
C27    C     0.12915   0.17831   0.04582   0.00000  Uiso   1.00
C28    C     0.09059   0.17495   0.47548   0.00000  Uiso   1.00
C29    C     0.09220   0.18527   0.02078   0.00000  Uiso   1.00
C30    C     0.24274   0.17495   0.02452   0.00000  Uiso   1.00
C31    C     0.24113   0.18527   0.47922   0.00000  Uiso   1.00
C32    C     0.02126   0.12611   0.25013   0.00000  Uiso   1.00
C33    C     0.31208   0.20725   0.24992   0.00000  Uiso   1.00
C34    C     0.31208   0.12611   0.24987   0.00000  Uiso   1.00
C35    C     0.02126   0.20725   0.25008   0.00000  Uiso   1.00
C36    C     0.29082   0.16667   0.24999   0.00000  Uiso   1.00
H37    H     0.03727   0.09441   0.25045   0.00000  Uiso   1.00
H38    H     0.29606   0.23894   0.24965   0.00000  Uiso   1.00
H39    H     0.29606   0.09441   0.24955   0.00000  Uiso   1.00
H40    H     0.03728   0.23894   0.25035   0.00000  Uiso   1.00
I41    I     0.04770   0.23285   0.04178   0.00000  Uiso   1.00
I42    I     0.28563   0.23284   0.45822   0.00000  Uiso   1.00
I43    I     0.23492   0.05720   0.32303   0.00000  Uiso   1.00
I44    I     0.09920   0.27514   0.17598   0.00000  Uiso   1.00
I45    I     0.09841   0.05720   0.17697   0.00000  Uiso   1.00
I46    I     0.23414   0.27514   0.32402   0.00000  Uiso   1.00
N47    N     0.16667   0.28573   0.25000   0.00000  Uiso   1.00
N48    N     0.16667   0.04760   0.25000   0.00000  Uiso   1.00
O49    O     0.10559   0.20487   0.24999   0.00000  Uiso   1.00
O50    O     0.22774   0.12846   0.25000   0.00000  Uiso   1.00
O51    O     0.22774   0.20487   0.25000   0.00000  Uiso   1.00
O52    O     0.10559   0.12846   0.24999   0.00000  Uiso   1.00
O53    O     0.16666   0.20489   0.18392   0.00000  Uiso   1.00
O54    O     0.16667   0.12844   0.31607   0.00000  Uiso   1.00
O55    O     0.16667   0.20489   0.31607   0.00000  Uiso   1.00
O56    O     0.16666   0.12844   0.18392   0.00000  Uiso   1.00
Zn57   Zn    0.16667   0.21771   0.25000   0.00000  Uiso   1.00
Zn58   Zn    0.16667   0.11563   0.25000   0.00000  Uiso   1.00
Br59   Br    0.58855   0.16084   0.37707   0.00000  Uiso   1.00
Br60   Br    0.41145   0.16084   0.12293   0.00000  Uiso   1.00
Br61   Br    0.41337   0.18697   0.36675   0.00000  Uiso   1.00
Br62   Br    0.58662   0.18697   0.13325   0.00000  Uiso   1.00
Br63   Br    0.37214   0.14963   0.45393   0.00000  Uiso   1.00
Br64   Br    0.62786   0.14963   0.04607   0.00000  Uiso   1.00
C65    C     0.42010   0.16667   0.24991   0.00000  Uiso   1.00
C66    C     0.37585   0.16667   0.25001   0.00000  Uiso   1.00
C67    C     0.52625   0.02371   0.27830   0.00000  Uiso   1.00
C68    C     0.47384   0.30942   0.22155   0.00000  Uiso   1.00
C69    C     0.47375   0.02371   0.22170   0.00000  Uiso   1.00
C70    C     0.52616   0.30942   0.27845   0.00000  Uiso   1.00
C71    C     0.49986   0.16682   0.16372   0.00000  Uiso   1.00
C72    C     0.50014   0.16682   0.33628   0.00000  Uiso   1.00
C73    C     0.53757   0.17134   0.40796   0.00000  Uiso   1.00
C74    C     0.46243   0.17134   0.09204   0.00000  Uiso   1.00
C75    C     0.49970   0.16815   0.38410   0.00000  Uiso   1.00
C76    C     0.57990   0.16667   0.25009   0.00000  Uiso   1.00
C77    C     0.50030   0.16816   0.11590   0.00000  Uiso   1.00
C78    C     0.46164   0.17284   0.40476   0.00000  Uiso   1.00
C79    C     0.53836   0.17284   0.09524   0.00000  Uiso   1.00
C80    C     0.46111   0.17362   0.45184   0.00000  Uiso   1.00
C81    C     0.53889   0.17362   0.04816   0.00000  Uiso   1.00
C82    C     0.49964   0.17597   0.47644   0.00000  Uiso   1.00
C83    C     0.50036   0.17597   0.02356   0.00000  Uiso   1.00
C84    C     0.53752   0.17831   0.45418   0.00000  Uiso   1.00
C85    C     0.46248   0.17831   0.04582   0.00000  Uiso   1.00
C86    C     0.42392   0.17495   0.47548   0.00000  Uiso   1.00
C87    C     0.42553   0.18527   0.02078   0.00000  Uiso   1.00
C88    C     0.57608   0.17495   0.02452   0.00000  Uiso   1.00
C89    C     0.57447   0.18527   0.47922   0.00000  Uiso   1.00
C90    C     0.35459   0.12611   0.25013   0.00000  Uiso   1.00
C91    C     0.64541   0.20725   0.24992   0.00000  Uiso   1.00
C92    C     0.64541   0.12611   0.24987   0.00000  Uiso   1.00
C93    C     0.35459   0.20725   0.25008   0.00000  Uiso   1.00
C94    C     0.62415   0.16667   0.24999   0.00000  Uiso   1.00
H95    H     0.37060   0.09441   0.25045   0.00000  Uiso   1.00
H96    H     0.62939   0.23894   0.24965   0.00000  Uiso   1.00
H97    H     0.62940   0.09441   0.24955   0.00000  Uiso   1.00
H98    H     0.37061   0.23894   0.25035   0.00000  Uiso   1.00
I99    I     0.38104   0.23285   0.04178   0.00000  Uiso   1.00
I100   I     0.61896   0.23284   0.45822   0.00000  Uiso   1.00
I101   I     0.56825   0.05720   0.32303   0.00000  Uiso   1.00
I102   I     0.43253   0.27514   0.17598   0.00000  Uiso   1.00
I103   I     0.43175   0.05720   0.17697   0.00000  Uiso   1.00
I104   I     0.56747   0.27514   0.32402   0.00000  Uiso   1.00
N105   N     0.50000   0.28573   0.25000   0.00000  Uiso   1.00
N106   N     0.50000   0.04760   0.25000   0.00000  Uiso   1.00
O107   O     0.43892   0.20487   0.24999   0.00000  Uiso   1.00
O108   O     0.56108   0.12846   0.25000   0.00000  Uiso   1.00
O109   O     0.56108   0.20487   0.25000   0.00000  Uiso   1.00
O110   O     0.43892   0.12846   0.24999   0.00000  Uiso   1.00
O111   O     0.49999   0.20489   0.18392   0.00000  Uiso   1.00
O112   O     0.50001   0.12844   0.31607   0.00000  Uiso   1.00
O113   O     0.50001   0.20489   0.31607   0.00000  Uiso   1.00
O114   O     0.49999   0.12844   0.18392   0.00000  Uiso   1.00
Zn115  Zn    0.50000   0.21771   0.25000   0.00000  Uiso   1.00
Zn116  Zn    0.50000   0.11563   0.25000   0.00000  Uiso   1.00
Br117  Br    0.92188   0.16084   0.37707   0.00000  Uiso   1.00
Br118  Br    0.74478   0.16084   0.12293   0.00000  Uiso   1.00
Br119  Br    0.74671   0.18697   0.36675   0.00000  Uiso   1.00
Br120  Br    0.91996   0.18697   0.13325   0.00000  Uiso   1.00
Br121  Br    0.70548   0.14963   0.45393   0.00000  Uiso   1.00
Br122  Br    0.96119   0.14963   0.04607   0.00000  Uiso   1.00
C123   C     0.75344   0.16667   0.24991   0.00000  Uiso   1.00
C124   C     0.70918   0.16667   0.25001   0.00000  Uiso   1.00
C125   C     0.85958   0.02371   0.27830   0.00000  Uiso   1.00
C126   C     0.80718   0.30942   0.22155   0.00000  Uiso   1.00
C127   C     0.80708   0.02371   0.22170   0.00000  Uiso   1.00
C128   C     0.85949   0.30942   0.27845   0.00000  Uiso   1.00
C129   C     0.83319   0.16682   0.16372   0.00000  Uiso   1.00
C130   C     0.83348   0.16682   0.33628   0.00000  Uiso   1.00
C131   C     0.87090   0.17134   0.40796   0.00000  Uiso   1.00
C132   C     0.79576   0.17134   0.09204   0.00000  Uiso   1.00
C133   C     0.83304   0.16815   0.38410   0.00000  Uiso   1.00
C134   C     0.91323   0.16667   0.25009   0.00000  Uiso   1.00
C135   C     0.83363   0.16816   0.11590   0.00000  Uiso   1.00
C136   C     0.79497   0.17284   0.40476   0.00000  Uiso   1.00
C137   C     0.87170   0.17284   0.09524   0.00000  Uiso   1.00
C138   C     0.79444   0.17362   0.45184   0.00000  Uiso   1.00
C139   C     0.87222   0.17362   0.04816   0.00000  Uiso   1.00
C140   C     0.83297   0.17597   0.47644   0.00000  Uiso   1.00
C141   C     0.83370   0.17597   0.02356   0.00000  Uiso   1.00
C142   C     0.87085   0.17831   0.45418   0.00000  Uiso   1.00
C143   C     0.79581   0.17831   0.04582   0.00000  Uiso   1.00
C144   C     0.75725   0.17495   0.47548   0.00000  Uiso   1.00
C145   C     0.75886   0.18527   0.02078   0.00000  Uiso   1.00
C146   C     0.90941   0.17495   0.02452   0.00000  Uiso   1.00
C147   C     0.90780   0.18527   0.47922   0.00000  Uiso   1.00
C148   C     0.68792   0.12611   0.25013   0.00000  Uiso   1.00
C149   C     0.97874   0.20725   0.24992   0.00000  Uiso   1.00
C150   C     0.97874   0.12611   0.24987   0.00000  Uiso   1.00
C151   C     0.68792   0.20725   0.25008   0.00000  Uiso   1.00
C152   C     0.95748   0.16667   0.24999   0.00000  Uiso   1.00
H153   H     0.70393   0.09441   0.25045   0.00000  Uiso   1.00
H154   H     0.96272   0.23894   0.24965   0.00000  Uiso   1.00
H155   H     0.96273   0.09441   0.24955   0.00000  Uiso   1.00
H156   H     0.70394   0.23894   0.25035   0.00000  Uiso   1.00
I157   I     0.71437   0.23285   0.04178   0.00000  Uiso   1.00
I158   I     0.95230   0.23284   0.45822   0.00000  Uiso   1.00
I159   I     0.90158   0.05720   0.32303   0.00000  Uiso   1.00
I160   I     0.76586   0.27514   0.17598   0.00000  Uiso   1.00
I161   I     0.76508   0.05720   0.17697   0.00000  Uiso   1.00
I162   I     0.90080   0.27514   0.32402   0.00000  Uiso   1.00
N163   N     0.83333   0.28573   0.25000   0.00000  Uiso   1.00
N164   N     0.83333   0.04760   0.25000   0.00000  Uiso   1.00
O165   O     0.77226   0.20487   0.24999   0.00000  Uiso   1.00
O166   O     0.89441   0.12846   0.25000   0.00000  Uiso   1.00
O167   O     0.89441   0.20487   0.25000   0.00000  Uiso   1.00
O168   O     0.77226   0.12846   0.24999   0.00000  Uiso   1.00
O169   O     0.83333   0.20489   0.18392   0.00000  Uiso   1.00
O170   O     0.83334   0.12844   0.31607   0.00000  Uiso   1.00
O171   O     0.83334   0.20489   0.31607   0.00000  Uiso   1.00
O172   O     0.83333   0.12844   0.18392   0.00000  Uiso   1.00
Zn173  Zn    0.83333   0.21771   0.25000   0.00000  Uiso   1.00
Zn174  Zn    0.83333   0.11563   0.25000   0.00000  Uiso   1.00
Br175  Br    0.25522   0.49417   0.37707   0.00000  Uiso   1.00
Br176  Br    0.07812   0.49417   0.12293   0.00000  Uiso   1.00
Br177  Br    0.08004   0.52030   0.36675   0.00000  Uiso   1.00
Br178  Br    0.25329   0.52031   0.13325   0.00000  Uiso   1.00
Br179  Br    0.03881   0.48296   0.45393   0.00000  Uiso   1.00
Br180  Br    0.29452   0.48296   0.04607   0.00000  Uiso   1.00
C181   C     0.08677   0.50000   0.24991   0.00000  Uiso   1.00
C182   C     0.04251   0.50000   0.25001   0.00000  Uiso   1.00
C183   C     0.19291   0.35705   0.27830   0.00000  Uiso   1.00
C184   C     0.14051   0.64275   0.22155   0.00000  Uiso   1.00
C185   C     0.14042   0.35705   0.22170   0.00000  Uiso   1.00
C186   C     0.19282   0.64275   0.27845   0.00000  Uiso   1.00
C187   C     0.16652   0.50015   0.16372   0.00000  Uiso   1.00
C188   C     0.16681   0.50015   0.33628   0.00000  Uiso   1.00
C189   C     0.20424   0.50467   0.40796   0.00000  Uiso   1.00
C190   C     0.12910   0.50467   0.09204   0.00000  Uiso   1.00
C191   C     0.16637   0.50149   0.38410   0.00000  Uiso   1.00
C192   C     0.24656   0.50000   0.25009   0.00000  Uiso   1.00
C193   C     0.16696   0.50149   0.11590   0.00000  Uiso   1.00
C194   C     0.12830   0.50617   0.40476   0.00000  Uiso   1.00
C195   C     0.20503   0.50618   0.09524   0.00000  Uiso   1.00
C196   C     0.12777   0.50695   0.45184   0.00000  Uiso   1.00
C197   C     0.20556   0.50696   0.04816   0.00000  Uiso   1.00
C198   C     0.16630   0.50930   0.47644   0.00000  Uiso   1.00
C199   C     0.16703   0.50930   0.02356   0.00000  Uiso   1.00
C200   C     0.20419   0.51165   0.45418   0.00000  Uiso   1.00
C201   C     0.12915   0.51165   0.04582   0.00000  Uiso   1.00
C202   C     0.09059   0.50828   0.47548   0.00000  Uiso   1.00
C203   C     0.09220   0.51860   0.02078   0.00000  Uiso   1.00
C204   C     0.24274   0.50829   0.02452   0.00000  Uiso   1.00
C205   C     0.24113   0.51860   0.47922   0.00000  Uiso   1.00
C206   C     0.02126   0.45944   0.25013   0.00000  Uiso   1.00
C207   C     0.31208   0.54058   0.24992   0.00000  Uiso   1.00
C208   C     0.31208   0.45944   0.24987   0.00000  Uiso   1.00
C209   C     0.02126   0.54058   0.25008   0.00000  Uiso   1.00
C210   C     0.29082   0.50000   0.24999   0.00000  Uiso   1.00
H211   H     0.03727   0.42774   0.25045   0.00000  Uiso   1.00
H212   H     0.29606   0.57227   0.24965   0.00000  Uiso   1.00
H213   H     0.29606   0.42774   0.24955   0.00000  Uiso   1.00
H214   H     0.03728   0.57227   0.25035   0.00000  Uiso   1.00
I215   I     0.04770   0.56618   0.04178   0.00000  Uiso   1.00
I216   I     0.28563   0.56618   0.45822   0.00000  Uiso   1.00
I217   I     0.23492   0.39053   0.32303   0.00000  Uiso   1.00
I218   I     0.09920   0.60848   0.17598   0.00000  Uiso   1.00
I219   I     0.09841   0.39053   0.17697   0.00000  Uiso   1.00
I220   I     0.23414   0.60848   0.32402   0.00000  Uiso   1.00
N221   N     0.16667   0.61907   0.25000   0.00000  Uiso   1.00
N222   N     0.16667   0.38093   0.25000   0.00000  Uiso   1.00
O223   O     0.10559   0.53821   0.24999   0.00000  Uiso   1.00
O224   O     0.22774   0.46179   0.25000   0.00000  Uiso   1.00
O225   O     0.22774   0.53821   0.25000   0.00000  Uiso   1.00
O226   O     0.10559   0.46179   0.24999   0.00000  Uiso   1.00
O227   O     0.16666   0.53823   0.18392   0.00000  Uiso   1.00
O228   O     0.16667   0.46177   0.31607   0.00000  Uiso   1.00
O229   O     0.16667   0.53823   0.31607   0.00000  Uiso   1.00
O230   O     0.16666   0.46177   0.18392   0.00000  Uiso   1.00
Zn231  Zn    0.16667   0.55104   0.25000   0.00000  Uiso   1.00
Zn232  Zn    0.16667   0.44896   0.25000   0.00000  Uiso   1.00
Br233  Br    0.58855   0.49417   0.37707   0.00000  Uiso   1.00
Br234  Br    0.41145   0.49417   0.12293   0.00000  Uiso   1.00
Br235  Br    0.41337   0.52030   0.36675   0.00000  Uiso   1.00
Br236  Br    0.58662   0.52031   0.13325   0.00000  Uiso   1.00
Br237  Br    0.37214   0.48296   0.45393   0.00000  Uiso   1.00
Br238  Br    0.62786   0.48296   0.04607   0.00000  Uiso   1.00
C239   C     0.42010   0.50000   0.24991   0.00000  Uiso   1.00
C240   C     0.37585   0.50000   0.25001   0.00000  Uiso   1.00
C241   C     0.52625   0.35705   0.27830   0.00000  Uiso   1.00
C242   C     0.47384   0.64275   0.22155   0.00000  Uiso   1.00
C243   C     0.47375   0.35705   0.22170   0.00000  Uiso   1.00
C244   C     0.52616   0.64275   0.27845   0.00000  Uiso   1.00
C245   C     0.49986   0.50015   0.16372   0.00000  Uiso   1.00
C246   C     0.50014   0.50015   0.33628   0.00000  Uiso   1.00
C247   C     0.53757   0.50467   0.40796   0.00000  Uiso   1.00
C248   C     0.46243   0.50467   0.09204   0.00000  Uiso   1.00
C249   C     0.49970   0.50149   0.38410   0.00000  Uiso   1.00
C250   C     0.57990   0.50000   0.25009   0.00000  Uiso   1.00
C251   C     0.50030   0.50149   0.11590   0.00000  Uiso   1.00
C252   C     0.46164   0.50617   0.40476   0.00000  Uiso   1.00
C253   C     0.53836   0.50618   0.09524   0.00000  Uiso   1.00
C254   C     0.46111   0.50695   0.45184   0.00000  Uiso   1.00
C255   C     0.53889   0.50696   0.04816   0.00000  Uiso   1.00
C256   C     0.49964   0.50930   0.47644   0.00000  Uiso   1.00
C257   C     0.50036   0.50930   0.02356   0.00000  Uiso   1.00
C258   C     0.53752   0.51165   0.45418   0.00000  Uiso   1.00
C259   C     0.46248   0.51165   0.04582   0.00000  Uiso   1.00
C260   C     0.42392   0.50828   0.47548   0.00000  Uiso   1.00
C261   C     0.42553   0.51860   0.02078   0.00000  Uiso   1.00
C262   C     0.57608   0.50829   0.02452   0.00000  Uiso   1.00
C263   C     0.57447   0.51860   0.47922   0.00000  Uiso   1.00
C264   C     0.35459   0.45944   0.25013   0.00000  Uiso   1.00
C265   C     0.64541   0.54058   0.24992   0.00000  Uiso   1.00
C266   C     0.64541   0.45944   0.24987   0.00000  Uiso   1.00
C267   C     0.35459   0.54058   0.25008   0.00000  Uiso   1.00
C268   C     0.62415   0.50000   0.24999   0.00000  Uiso   1.00
H269   H     0.37060   0.42774   0.25045   0.00000  Uiso   1.00
H270   H     0.62939   0.57227   0.24965   0.00000  Uiso   1.00
H271   H     0.62940   0.42774   0.24955   0.00000  Uiso   1.00
H272   H     0.37061   0.57227   0.25035   0.00000  Uiso   1.00
I273   I     0.38104   0.56618   0.04178   0.00000  Uiso   1.00
I274   I     0.61896   0.56618   0.45822   0.00000  Uiso   1.00
I275   I     0.56825   0.39053   0.32303   0.00000  Uiso   1.00
I276   I     0.43253   0.60848   0.17598   0.00000  Uiso   1.00
I277   I     0.43175   0.39053   0.17697   0.00000  Uiso   1.00
I278   I     0.56747   0.60848   0.32402   0.00000  Uiso   1.00
N279   N     0.50000   0.61907   0.25000   0.00000  Uiso   1.00
N280   N     0.50000   0.38093   0.25000   0.00000  Uiso   1.00
O281   O     0.43892   0.53821   0.24999   0.00000  Uiso   1.00
O282   O     0.56108   0.46179   0.25000   0.00000  Uiso   1.00
O283   O     0.56108   0.53821   0.25000   0.00000  Uiso   1.00
O284   O     0.43892   0.46179   0.24999   0.00000  Uiso   1.00
O285   O     0.49999   0.53823   0.18392   0.00000  Uiso   1.00
O286   O     0.50001   0.46177   0.31607   0.00000  Uiso   1.00
O287   O     0.50001   0.53823   0.31607   0.00000  Uiso   1.00
O288   O     0.49999   0.46177   0.18392   0.00000  Uiso   1.00
Zn289  Zn    0.50000   0.55104   0.25000   0.00000  Uiso   1.00
Zn290  Zn    0.50000   0.44896   0.25000   0.00000  Uiso   1.00
Br291  Br    0.92188   0.49417   0.37707   0.00000  Uiso   1.00
Br292  Br    0.74478   0.49417   0.12293   0.00000  Uiso   1.00
Br293  Br    0.74671   0.52030   0.36675   0.00000  Uiso   1.00
Br294  Br    0.91996   0.52031   0.13325   0.00000  Uiso   1.00
Br295  Br    0.70548   0.48296   0.45393   0.00000  Uiso   1.00
Br296  Br    0.96119   0.48296   0.04607   0.00000  Uiso   1.00
C297   C     0.75344   0.50000   0.24991   0.00000  Uiso   1.00
C298   C     0.70918   0.50000   0.25001   0.00000  Uiso   1.00
C299   C     0.85958   0.35705   0.27830   0.00000  Uiso   1.00
C300   C     0.80718   0.64275   0.22155   0.00000  Uiso   1.00
C301   C     0.80708   0.35705   0.22170   0.00000  Uiso   1.00
C302   C     0.85949   0.64275   0.27845   0.00000  Uiso   1.00
C303   C     0.83319   0.50015   0.16372   0.00000  Uiso   1.00
C304   C     0.83348   0.50015   0.33628   0.00000  Uiso   1.00
C305   C     0.87090   0.50467   0.40796   0.00000  Uiso   1.00
C306   C     0.79576   0.50467   0.09204   0.00000  Uiso   1.00
C307   C     0.83304   0.50149   0.38410   0.00000  Uiso   1.00
C308   C     0.91323   0.50000   0.25009   0.00000  Uiso   1.00
C309   C     0.83363   0.50149   0.11590   0.00000  Uiso   1.00
C310   C     0.79497   0.50617   0.40476   0.00000  Uiso   1.00
C311   C     0.87170   0.50618   0.09524   0.00000  Uiso   1.00
C312   C     0.79444   0.50695   0.45184   0.00000  Uiso   1.00
C313   C     0.87222   0.50696   0.04816   0.00000  Uiso   1.00
C314   C     0.83297   0.50930   0.47644   0.00000  Uiso   1.00
C315   C     0.83370   0.50930   0.02356   0.00000  Uiso   1.00
C316   C     0.87085   0.51165   0.45418   0.00000  Uiso   1.00
C317   C     0.79581   0.51165   0.04582   0.00000  Uiso   1.00
C318   C     0.75725   0.50828   0.47548   0.00000  Uiso   1.00
C319   C     0.75886   0.51860   0.02078   0.00000  Uiso   1.00
C320   C     0.90941   0.50829   0.02452   0.00000  Uiso   1.00
C321   C     0.90780   0.51860   0.47922   0.00000  Uiso   1.00
C322   C     0.68792   0.45944   0.25013   0.00000  Uiso   1.00
C323   C     0.97874   0.54058   0.24992   0.00000  Uiso   1.00
C324   C     0.97874   0.45944   0.24987   0.00000  Uiso   1.00
C325   C     0.68792   0.54058   0.25008   0.00000  Uiso   1.00
C326   C     0.95748   0.50000   0.24999   0.00000  Uiso   1.00
H327   H     0.70393   0.42774   0.25045   0.00000  Uiso   1.00
H328   H     0.96272   0.57227   0.24965   0.00000  Uiso   1.00
H329   H     0.96273   0.42774   0.24955   0.00000  Uiso   1.00
H330   H     0.70394   0.57227   0.25035   0.00000  Uiso   1.00
I331   I     0.71437   0.56618   0.04178   0.00000  Uiso   1.00
I332   I     0.95230   0.56618   0.45822   0.00000  Uiso   1.00
I333   I     0.90158   0.39053   0.32303   0.00000  Uiso   1.00
I334   I     0.76586   0.60848   0.17598   0.00000  Uiso   1.00
I335   I     0.76508   0.39053   0.17697   0.00000  Uiso   1.00
I336   I     0.90080   0.60848   0.32402   0.00000  Uiso   1.00
N337   N     0.83333   0.61907   0.25000   0.00000  Uiso   1.00
N338   N     0.83333   0.38093   0.25000   0.00000  Uiso   1.00
O339   O     0.77226   0.53821   0.24999   0.00000  Uiso   1.00
O340   O     0.89441   0.46179   0.25000   0.00000  Uiso   1.00
O341   O     0.89441   0.53821   0.25000   0.00000  Uiso   1.00
O342   O     0.77226   0.46179   0.24999   0.00000  Uiso   1.00
O343   O     0.83333   0.53823   0.18392   0.00000  Uiso   1.00
O344   O     0.83334   0.46177   0.31607   0.00000  Uiso   1.00
O345   O     0.83334   0.53823   0.31607   0.00000  Uiso   1.00
O346   O     0.83333   0.46177   0.18392   0.00000  Uiso   1.00
Zn347  Zn    0.83333   0.55104   0.25000   0.00000  Uiso   1.00
Zn348  Zn    0.83333   0.44896   0.25000   0.00000  Uiso   1.00
Br349  Br    0.25522   0.82750   0.37707   0.00000  Uiso   1.00
Br350  Br    0.07812   0.82750   0.12293   0.00000  Uiso   1.00
Br351  Br    0.08004   0.85364   0.36675   0.00000  Uiso   1.00
Br352  Br    0.25329   0.85364   0.13325   0.00000  Uiso   1.00
Br353  Br    0.03881   0.81629   0.45393   0.00000  Uiso   1.00
Br354  Br    0.29452   0.81630   0.04607   0.00000  Uiso   1.00
C355   C     0.08677   0.83333   0.24991   0.00000  Uiso   1.00
C356   C     0.04251   0.83334   0.25001   0.00000  Uiso   1.00
C357   C     0.19291   0.69038   0.27830   0.00000  Uiso   1.00
C358   C     0.14051   0.97609   0.22155   0.00000  Uiso   1.00
C359   C     0.14042   0.69038   0.22170   0.00000  Uiso   1.00
C360   C     0.19282   0.97609   0.27845   0.00000  Uiso   1.00
C361   C     0.16652   0.83349   0.16372   0.00000  Uiso   1.00
C362   C     0.16681   0.83348   0.33628   0.00000  Uiso   1.00
C363   C     0.20424   0.83800   0.40796   0.00000  Uiso   1.00
C364   C     0.12910   0.83800   0.09204   0.00000  Uiso   1.00
C365   C     0.16637   0.83482   0.38410   0.00000  Uiso   1.00
C366   C     0.24656   0.83333   0.25009   0.00000  Uiso   1.00
C367   C     0.16696   0.83482   0.11590   0.00000  Uiso   1.00
C368   C     0.12830   0.83951   0.40476   0.00000  Uiso   1.00
C369   C     0.20503   0.83951   0.09524   0.00000  Uiso   1.00
C370   C     0.12777   0.84029   0.45184   0.00000  Uiso   1.00
C371   C     0.20556   0.84029   0.04816   0.00000  Uiso   1.00
C372   C     0.16630   0.84264   0.47644   0.00000  Uiso   1.00
C373   C     0.16703   0.84264   0.02356   0.00000  Uiso   1.00
C374   C     0.20419   0.84498   0.45418   0.00000  Uiso   1.00
C375   C     0.12915   0.84498   0.04582   0.00000  Uiso   1.00
C376   C     0.09059   0.84162   0.47548   0.00000  Uiso   1.00
C377   C     0.09220   0.85193   0.02078   0.00000  Uiso   1.00
C378   C     0.24274   0.84162   0.02452   0.00000  Uiso   1.00
C379   C     0.24113   0.85193   0.47922   0.00000  Uiso   1.00
C380   C     0.02126   0.79277   0.25013   0.00000  Uiso   1.00
C381   C     0.31208   0.87391   0.24992   0.00000  Uiso   1.00
C382   C     0.31208   0.79277   0.24987   0.00000  Uiso   1.00
C383   C     0.02126   0.87391   0.25008   0.00000  Uiso   1.00
C384   C     0.29082   0.83334   0.24999   0.00000  Uiso   1.00
H385   H     0.03727   0.76108   0.25045   0.00000  Uiso   1.00
H386   H     0.29606   0.90561   0.24965   0.00000  Uiso   1.00
H387   H     0.29606   0.76108   0.24955   0.00000  Uiso   1.00
H388   H     0.03728   0.90561   0.25035   0.00000  Uiso   1.00
I389   I     0.04770   0.89951   0.04178   0.00000  Uiso   1.00
I390   I     0.28563   0.89951   0.45822   0.00000  Uiso   1.00
I391   I     0.23492   0.72387   0.32303   0.00000  Uiso   1.00
I392   I     0.09920   0.94181   0.17598   0.00000  Uiso   1.00
I393   I     0.09841   0.72387   0.17697   0.00000  Uiso   1.00
I394   I     0.23414   0.94181   0.32402   0.00000  Uiso   1.00
N395   N     0.16667   0.95240   0.25000   0.00000  Uiso   1.00
N396   N     0.16667   0.71427   0.25000   0.00000  Uiso   1.00
O397   O     0.10559   0.87154   0.24999   0.00000  Uiso   1.00
O398   O     0.22774   0.79513   0.25000   0.00000  Uiso   1.00
O399   O     0.22774   0.87154   0.25000   0.00000  Uiso   1.00
O400   O     0.10559   0.79513   0.24999   0.00000  Uiso   1.00
O401   O     0.16666   0.87156   0.18392   0.00000  Uiso   1.00
O402   O     0.16667   0.79511   0.31607   0.00000  Uiso   1.00
O403   O     0.16667   0.87156   0.31607   0.00000  Uiso   1.00
O404   O     0.16666   0.79511   0.18392   0.00000  Uiso   1.00
Zn405  Zn    0.16667   0.88437   0.25000   0.00000  Uiso   1.00
Zn406  Zn    0.16667   0.78229   0.25000   0.00000  Uiso   1.00
Br407  Br    0.58855   0.82750   0.37707   0.00000  Uiso   1.00
Br408  Br    0.41145   0.82750   0.12293   0.00000  Uiso   1.00
Br409  Br    0.41337   0.85364   0.36675   0.00000  Uiso   1.00
Br410  Br    0.58662   0.85364   0.13325   0.00000  Uiso   1.00
Br411  Br    0.37214   0.81629   0.45393   0.00000  Uiso   1.00
Br412  Br    0.62786   0.81630   0.04607   0.00000  Uiso   1.00
C413   C     0.42010   0.83333   0.24991   0.00000  Uiso   1.00
C414   C     0.37585   0.83334   0.25001   0.00000  Uiso   1.00
C415   C     0.52625   0.69038   0.27830   0.00000  Uiso   1.00
C416   C     0.47384   0.97609   0.22155   0.00000  Uiso   1.00
C417   C     0.47375   0.69038   0.22170   0.00000  Uiso   1.00
C418   C     0.52616   0.97609   0.27845   0.00000  Uiso   1.00
C419   C     0.49986   0.83349   0.16372   0.00000  Uiso   1.00
C420   C     0.50014   0.83348   0.33628   0.00000  Uiso   1.00
C421   C     0.53757   0.83800   0.40796   0.00000  Uiso   1.00
C422   C     0.46243   0.83800   0.09204   0.00000  Uiso   1.00
C423   C     0.49970   0.83482   0.38410   0.00000  Uiso   1.00
C424   C     0.57990   0.83333   0.25009   0.00000  Uiso   1.00
C425   C     0.50030   0.83482   0.11590   0.00000  Uiso   1.00
C426   C     0.46164   0.83951   0.40476   0.00000  Uiso   1.00
C427   C     0.53836   0.83951   0.09524   0.00000  Uiso   1.00
C428   C     0.46111   0.84029   0.45184   0.00000  Uiso   1.00
C429   C     0.53889   0.84029   0.04816   0.00000  Uiso   1.00
C430   C     0.49964   0.84264   0.47644   0.00000  Uiso   1.00
C431   C     0.50036   0.84264   0.02356   0.00000  Uiso   1.00
C432   C     0.53752   0.84498   0.45418   0.00000  Uiso   1.00
C433   C     0.46248   0.84498   0.04582   0.00000  Uiso   1.00
C434   C     0.42392   0.84162   0.47548   0.00000  Uiso   1.00
C435   C     0.42553   0.85193   0.02078   0.00000  Uiso   1.00
C436   C     0.57608   0.84162   0.02452   0.00000  Uiso   1.00
C437   C     0.57447   0.85193   0.47922   0.00000  Uiso   1.00
C438   C     0.35459   0.79277   0.25013   0.00000  Uiso   1.00
C439   C     0.64541   0.87391   0.24992   0.00000  Uiso   1.00
C440   C     0.64541   0.79277   0.24987   0.00000  Uiso   1.00
C441   C     0.35459   0.87391   0.25008   0.00000  Uiso   1.00
C442   C     0.62415   0.83334   0.24999   0.00000  Uiso   1.00
H443   H     0.37060   0.76108   0.25045   0.00000  Uiso   1.00
H444   H     0.62939   0.90561   0.24965   0.00000  Uiso   1.00
H445   H     0.62940   0.76108   0.24955   0.00000  Uiso   1.00
H446   H     0.37061   0.90561   0.25035   0.00000  Uiso   1.00
I447   I     0.38104   0.89951   0.04178   0.00000  Uiso   1.00
I448   I     0.61896   0.89951   0.45822   0.00000  Uiso   1.00
I449   I     0.56825   0.72387   0.32303   0.00000  Uiso   1.00
I450   I     0.43253   0.94181   0.17598   0.00000  Uiso   1.00
I451   I     0.43175   0.72387   0.17697   0.00000  Uiso   1.00
I452   I     0.56747   0.94181   0.32402   0.00000  Uiso   1.00
N453   N     0.50000   0.95240   0.25000   0.00000  Uiso   1.00
N454   N     0.50000   0.71427   0.25000   0.00000  Uiso   1.00
O455   O     0.43892   0.87154   0.24999   0.00000  Uiso   1.00
O456   O     0.56108   0.79513   0.25000   0.00000  Uiso   1.00
O457   O     0.56108   0.87154   0.25000   0.00000  Uiso   1.00
O458   O     0.43892   0.79513   0.24999   0.00000  Uiso   1.00
O459   O     0.49999   0.87156   0.18392   0.00000  Uiso   1.00
O460   O     0.50001   0.79511   0.31607   0.00000  Uiso   1.00
O461   O     0.50001   0.87156   0.31607   0.00000  Uiso   1.00
O462   O     0.49999   0.79511   0.18392   0.00000  Uiso   1.00
Zn463  Zn    0.50000   0.88437   0.25000   0.00000  Uiso   1.00
Zn464  Zn    0.50000   0.78229   0.25000   0.00000  Uiso   1.00
Br465  Br    0.92188   0.82750   0.37707   0.00000  Uiso   1.00
Br466  Br    0.74478   0.82750   0.12293   0.00000  Uiso   1.00
Br467  Br    0.74671   0.85364   0.36675   0.00000  Uiso   1.00
Br468  Br    0.91996   0.85364   0.13325   0.00000  Uiso   1.00
Br469  Br    0.70548   0.81629   0.45393   0.00000  Uiso   1.00
Br470  Br    0.96119   0.81630   0.04607   0.00000  Uiso   1.00
C471   C     0.75344   0.83333   0.24991   0.00000  Uiso   1.00
C472   C     0.70918   0.83334   0.25001   0.00000  Uiso   1.00
C473   C     0.85958   0.69038   0.27830   0.00000  Uiso   1.00
C474   C     0.80718   0.97609   0.22155   0.00000  Uiso   1.00
C475   C     0.80708   0.69038   0.22170   0.00000  Uiso   1.00
C476   C     0.85949   0.97609   0.27845   0.00000  Uiso   1.00
C477   C     0.83319   0.83349   0.16372   0.00000  Uiso   1.00
C478   C     0.83348   0.83348   0.33628   0.00000  Uiso   1.00
C479   C     0.87090   0.83800   0.40796   0.00000  Uiso   1.00
C480   C     0.79576   0.83800   0.09204   0.00000  Uiso   1.00
C481   C     0.83304   0.83482   0.38410   0.00000  Uiso   1.00
C482   C     0.91323   0.83333   0.25009   0.00000  Uiso   1.00
C483   C     0.83363   0.83482   0.11590   0.00000  Uiso   1.00
C484   C     0.79497   0.83951   0.40476   0.00000  Uiso   1.00
C485   C     0.87170   0.83951   0.09524   0.00000  Uiso   1.00
C486   C     0.79444   0.84029   0.45184   0.00000  Uiso   1.00
C487   C     0.87222   0.84029   0.04816   0.00000  Uiso   1.00
C488   C     0.83297   0.84264   0.47644   0.00000  Uiso   1.00
C489   C     0.83370   0.84264   0.02356   0.00000  Uiso   1.00
C490   C     0.87085   0.84498   0.45418   0.00000  Uiso   1.00
C491   C     0.79581   0.84498   0.04582   0.00000  Uiso   1.00
C492   C     0.75725   0.84162   0.47548   0.00000  Uiso   1.00
C493   C     0.75886   0.85193   0.02078   0.00000  Uiso   1.00
C494   C     0.90941   0.84162   0.02452   0.00000  Uiso   1.00
C495   C     0.90780   0.85193   0.47922   0.00000  Uiso   1.00
C496   C     0.68792   0.79277   0.25013   0.00000  Uiso   1.00
C497   C     0.97874   0.87391   0.24992   0.00000  Uiso   1.00
C498   C     0.97874   0.79277   0.24987   0.00000  Uiso   1.00
C499   C     0.68792   0.87391   0.25008   0.00000  Uiso   1.00
C500   C     0.95748   0.83334   0.24999   0.00000  Uiso   1.00
H501   H     0.70393   0.76108   0.25045   0.00000  Uiso   1.00
H502   H     0.96272   0.90561   0.24965   0.00000  Uiso   1.00
H503   H     0.96273   0.76108   0.24955   0.00000  Uiso   1.00
H504   H     0.70394   0.90561   0.25035   0.00000  Uiso   1.00
I505   I     0.71437   0.89951   0.04178   0.00000  Uiso   1.00
I506   I     0.95230   0.89951   0.45822   0.00000  Uiso   1.00
I507   I     0.90158   0.72387   0.32303   0.00000  Uiso   1.00
I508   I     0.76586   0.94181   0.17598   0.00000  Uiso   1.00
I509   I     0.76508   0.72387   0.17697   0.00000  Uiso   1.00
I510   I     0.90080   0.94181   0.32402   0.00000  Uiso   1.00
N511   N     0.83333   0.95240   0.25000   0.00000  Uiso   1.00
N512   N     0.83333   0.71427   0.25000   0.00000  Uiso   1.00
O513   O     0.77226   0.87154   0.24999   0.00000  Uiso   1.00
O514   O     0.89441   0.79513   0.25000   0.00000  Uiso   1.00
O515   O     0.89441   0.87154   0.25000   0.00000  Uiso   1.00
O516   O     0.77226   0.79513   0.24999   0.00000  Uiso   1.00
O517   O     0.83333   0.87156   0.18392   0.00000  Uiso   1.00
O518   O     0.83334   0.79511   0.31607   0.00000  Uiso   1.00
O519   O     0.83334   0.87156   0.31607   0.00000  Uiso   1.00
O520   O     0.83333   0.79511   0.18392   0.00000  Uiso   1.00
Zn521  Zn    0.83333   0.88437   0.25000   0.00000  Uiso   1.00
Zn522  Zn    0.83333   0.78229   0.25000   0.00000  Uiso   1.00
Br523  Br    0.25522   0.16084   0.87707   0.00000  Uiso   1.00
Br524  Br    0.07812   0.16084   0.62293   0.00000  Uiso   1.00
Br525  Br    0.08004   0.18697   0.86675   0.00000  Uiso   1.00
Br526  Br    0.25329   0.18697   0.63325   0.00000  Uiso   1.00
Br527  Br    0.03881   0.14963   0.95393   0.00000  Uiso   1.00
Br528  Br    0.29452   0.14963   0.54607   0.00000  Uiso   1.00
C529   C     0.08677   0.16667   0.74991   0.00000  Uiso   1.00
C530   C     0.04251   0.16667   0.75001   0.00000  Uiso   1.00
C531   C     0.19291   0.02371   0.77830   0.00000  Uiso   1.00
C532   C     0.14051   0.30942   0.72155   0.00000  Uiso   1.00
C533   C     0.14042   0.02371   0.72170   0.00000  Uiso   1.00
C534   C     0.19282   0.30942   0.77845   0.00000  Uiso   1.00
C535   C     0.16652   0.16682   0.66372   0.00000  Uiso   1.00
C536   C     0.16681   0.16682   0.83628   0.00000  Uiso   1.00
C537   C     0.20424   0.17134   0.90796   0.00000  Uiso   1.00
C538   C     0.12910   0.17134   0.59204   0.00000  Uiso   1.00
C539   C     0.16637   0.16815   0.88410   0.00000  Uiso   1.00
C540   C     0.24656   0.16667   0.75009   0.00000  Uiso   1.00
C541   C     0.16696   0.16816   0.61590   0.00000  Uiso   1.00
C542   C     0.12830   0.17284   0.90476   0.00000  Uiso   1.00
C543   C     0.20503   0.17284   0.59524   0.00000  Uiso   1.00
C544   C     0.12777   0.17362   0.95184   0.00000  Uiso   1.00
C545   C     0.20556   0.17362   0.54816   0.00000  Uiso   1.00
C546   C     0.16630   0.17597   0.97644   0.00000  Uiso   1.00
C547   C     0.16703   0.17597   0.52356   0.00000  Uiso   1.00
C548   C     0.20419   0.17831   0.95418   0.00000  Uiso   1.00
C549   C     0.12915   0.17831   0.54582   0.00000  Uiso   1.00
C550   C     0.09059   0.17495   0.97548   0.00000  Uiso   1.00
C551   C     0.09220   0.18527   0.52078   0.00000  Uiso   1.00
C552   C     0.24274   0.17495   0.52452   0.00000  Uiso   1.00
C553   C     0.24113   0.18527   0.97922   0.00000  Uiso   1.00
C554   C     0.02126   0.12611   0.75013   0.00000  Uiso   1.00
C555   C     0.31208   0.20725   0.74992   0.00000  Uiso   1.00
C556   C     0.31208   0.12611   0.74987   0.00000  Uiso   1.00
C557   C     0.02126   0.20725   0.75008   0.00000  Uiso   1.00
C558   C     0.29082   0.16667   0.74999   0.00000  Uiso   1.00
H559   H     0.03727   0.09441   0.75045   0.00000  Uiso   1.00
H560   H     0.29606   0.23894   0.74965   0.00000  Uiso   1.00
H561   H     0.29606   0.09441   0.74955   0.00000  Uiso   1.00
H562   H     0.03728   0.23894   0.75035   0.00000  Uiso   1.00
I563   I     0.04770   0.23285   0.54178   0.00000  Uiso   1.00
I564   I     0.28563   0.23284   0.95822   0.00000  Uiso   1.00
I565   I     0.23492   0.05720   0.82303   0.00000  Uiso   1.00
I566   I     0.09920   0.27514   0.67598   0.00000  Uiso   1.00
I567   I     0.09841   0.05720   0.67697   0.00000  Uiso   1.00
I568   I     0.23414   0.27514   0.82402   0.00000  Uiso   1.00
N569   N     0.16667   0.28573   0.75000   0.00000  Uiso   1.00
N570   N     0.16667   0.04760   0.75000   0.00000  Uiso   1.00
O571   O     0.10559   0.20487   0.74999   0.00000  Uiso   1.00
O572   O     0.22774   0.12846   0.75000   0.00000  Uiso   1.00
O573   O     0.22774   0.20487   0.75000   0.00000  Uiso   1.00
O574   O     0.10559   0.12846   0.74999   0.00000  Uiso   1.00
O575   O     0.16666   0.20489   0.68392   0.00000  Uiso   1.00
O576   O     0.16667   0.12844   0.81607   0.00000  Uiso   1.00
O577   O     0.16667   0.20489   0.81607   0.00000  Uiso   1.00
O578   O     0.16666   0.12844   0.68392   0.00000  Uiso   1.00
Zn579  Zn    0.16667   0.21771   0.75000   0.00000  Uiso   1.00
Zn580  Zn    0.16667   0.11563   0.75000   0.00000  Uiso   1.00
Br581  Br    0.58855   0.16084   0.87707   0.00000  Uiso   1.00
Br582  Br    0.41145   0.16084   0.62293   0.00000  Uiso   1.00
Br583  Br    0.41337   0.18697   0.86675   0.00000  Uiso   1.00
Br584  Br    0.58662   0.18697   0.63325   0.00000  Uiso   1.00
Br585  Br    0.37214   0.14963   0.95393   0.00000  Uiso   1.00
Br586  Br    0.62786   0.14963   0.54607   0.00000  Uiso   1.00
C587   C     0.42010   0.16667   0.74991   0.00000  Uiso   1.00
C588   C     0.37585   0.16667   0.75001   0.00000  Uiso   1.00
C589   C     0.52625   0.02371   0.77830   0.00000  Uiso   1.00
C590   C     0.47384   0.30942   0.72155   0.00000  Uiso   1.00
C591   C     0.47375   0.02371   0.72170   0.00000  Uiso   1.00
C592   C     0.52616   0.30942   0.77845   0.00000  Uiso   1.00
C593   C     0.49986   0.16682   0.66372   0.00000  Uiso   1.00
C594   C     0.50014   0.16682   0.83628   0.00000  Uiso   1.00
C595   C     0.53757   0.17134   0.90796   0.00000  Uiso   1.00
C596   C     0.46243   0.17134   0.59204   0.00000  Uiso   1.00
C597   C     0.49970   0.16815   0.88410   0.00000  Uiso   1.00
C598   C     0.57990   0.16667   0.75009   0.00000  Uiso   1.00
C599   C     0.50030   0.16816   0.61590   0.00000  Uiso   1.00
C600   C     0.46164   0.17284   0.90476   0.00000  Uiso   1.00
C601   C     0.53836   0.17284   0.59524   0.00000  Uiso   1.00
C602   C     0.46111   0.17362   0.95184   0.00000  Uiso   1.00
C603   C     0.53889   0.17362   0.54816   0.00000  Uiso   1.00
C604   C     0.49964   0.17597   0.97644   0.00000  Uiso   1.00
C605   C     0.50036   0.17597   0.52356   0.00000  Uiso   1.00
C606   C     0.53752   0.17831   0.95418   0.00000  Uiso   1.00
C607   C     0.46248   0.17831   0.54582   0.00000  Uiso   1.00
C608   C     0.42392   0.17495   0.97548   0.00000  Uiso   1.00
C609   C     0.42553   0.18527   0.52078   0.00000  Uiso   1.00
C610   C     0.57608   0.17495   0.52452   0.00000  Uiso   1.00
C611   C     0.57447   0.18527   0.97922   0.00000  Uiso   1.00
C612   C     0.35459   0.12611   0.75013   0.00000  Uiso   1.00
C613   C     0.64541   0.20725   0.74992   0.00000  Uiso   1.00
C614   C     0.64541   0.12611   0.74987   0.00000  Uiso   1.00
C615   C     0.35459   0.20725   0.75008   0.00000  Uiso   1.00
C616   C     0.62415   0.16667   0.74999   0.00000  Uiso   1.00
H617   H     0.37060   0.09441   0.75045   0.00000  Uiso   1.00
H618   H     0.62939   0.23894   0.74965   0.00000  Uiso   1.00
H619   H     0.62940   0.09441   0.74955   0.00000  Uiso   1.00
H620   H     0.37061   0.23894   0.75035   0.00000  Uiso   1.00
I621   I     0.38104   0.23285   0.54178   0.00000  Uiso   1.00
I622   I     0.61896   0.23284   0.95822   0.00000  Uiso   1.00
I623   I     0.56825   0.05720   0.82303   0.00000  Uiso   1.00
I624   I     0.43253   0.27514   0.67598   0.00000  Uiso   1.00
I625   I     0.43175   0.05720   0.67697   0.00000  Uiso   1.00
I626   I     0.56747   0.27514   0.82402   0.00000  Uiso   1.00
N627   N     0.50000   0.28573   0.75000   0.00000  Uiso   1.00
N628   N     0.50000   0.04760   0.75000   0.00000  Uiso   1.00
O629   O     0.43892   0.20487   0.74999   0.00000  Uiso   1.00
O630   O     0.56108   0.12846   0.75000   0.00000  Uiso   1.00
O631   O     0.56108   0.20487   0.75000   0.00000  Uiso   1.00
O632   O     0.43892   0.12846   0.74999   0.00000  Uiso   1.00
O633   O     0.49999   0.20489   0.68392   0.00000  Uiso   1.00
O634   O     0.50001   0.12844   0.81607   0.00000  Uiso   1.00
O635   O     0.50001   0.20489   0.81607   0.00000  Uiso   1.00
O636   O     0.49999   0.12844   0.68392   0.00000  Uiso   1.00
Zn637  Zn    0.50000   0.21771   0.75000   0.00000  Uiso   1.00
Zn638  Zn    0.50000   0.11563   0.75000   0.00000  Uiso   1.00
Br639  Br    0.92188   0.16084   0.87707   0.00000  Uiso   1.00
Br640  Br    0.74478   0.16084   0.62293   0.00000  Uiso   1.00
Br641  Br    0.74671   0.18697   0.86675   0.00000  Uiso   1.00
Br642  Br    0.91996   0.18697   0.63325   0.00000  Uiso   1.00
Br643  Br    0.70548   0.14963   0.95393   0.00000  Uiso   1.00
Br644  Br    0.96119   0.14963   0.54607   0.00000  Uiso   1.00
C645   C     0.75344   0.16667   0.74991   0.00000  Uiso   1.00
C646   C     0.70918   0.16667   0.75001   0.00000  Uiso   1.00
C647   C     0.85958   0.02371   0.77830   0.00000  Uiso   1.00
C648   C     0.80718   0.30942   0.72155   0.00000  Uiso   1.00
C649   C     0.80708   0.02371   0.72170   0.00000  Uiso   1.00
C650   C     0.85949   0.30942   0.77845   0.00000  Uiso   1.00
C651   C     0.83319   0.16682   0.66372   0.00000  Uiso   1.00
C652   C     0.83348   0.16682   0.83628   0.00000  Uiso   1.00
C653   C     0.87090   0.17134   0.90796   0.00000  Uiso   1.00
C654   C     0.79576   0.17134   0.59204   0.00000  Uiso   1.00
C655   C     0.83304   0.16815   0.88410   0.00000  Uiso   1.00
C656   C     0.91323   0.16667   0.75009   0.00000  Uiso   1.00
C657   C     0.83363   0.16816   0.61590   0.00000  Uiso   1.00
C658   C     0.79497   0.17284   0.90476   0.00000  Uiso   1.00
C659   C     0.87170   0.17284   0.59524   0.00000  Uiso   1.00
C660   C     0.79444   0.17362   0.95184   0.00000  Uiso   1.00
C661   C     0.87222   0.17362   0.54816   0.00000  Uiso   1.00
C662   C     0.83297   0.17597   0.97644   0.00000  Uiso   1.00
C663   C     0.83370   0.17597   0.52356   0.00000  Uiso   1.00
C664   C     0.87085   0.17831   0.95418   0.00000  Uiso   1.00
C665   C     0.79581   0.17831   0.54582   0.00000  Uiso   1.00
C666   C     0.75725   0.17495   0.97548   0.00000  Uiso   1.00
C667   C     0.75886   0.18527   0.52078   0.00000  Uiso   1.00
C668   C     0.90941   0.17495   0.52452   0.00000  Uiso   1.00
C669   C     0.90780   0.18527   0.97922   0.00000  Uiso   1.00
C670   C     0.68792   0.12611   0.75013   0.00000  Uiso   1.00
C671   C     0.97874   0.20725   0.74992   0.00000  Uiso   1.00
C672   C     0.97874   0.12611   0.74987   0.00000  Uiso   1.00
C673   C     0.68792   0.20725   0.75008   0.00000  Uiso   1.00
C674   C     0.95748   0.16667   0.74999   0.00000  Uiso   1.00
H675   H     0.70393   0.09441   0.75045   0.00000  Uiso   1.00
H676   H     0.96272   0.23894   0.74965   0.00000  Uiso   1.00
H677   H     0.96273   0.09441   0.74955   0.00000  Uiso   1.00
H678   H     0.70394   0.23894   0.75035   0.00000  Uiso   1.00
I679   I     0.71437   0.23285   0.54178   0.00000  Uiso   1.00
I680   I     0.95230   0.23284   0.95822   0.00000  Uiso   1.00
I681   I     0.90158   0.05720   0.82303   0.00000  Uiso   1.00
I682   I     0.76586   0.27514   0.67598   0.00000  Uiso   1.00
I683   I     0.76508   0.05720   0.67697   0.00000  Uiso   1.00
I684   I     0.90080   0.27514   0.82402   0.00000  Uiso   1.00
N685   N     0.83333   0.28573   0.75000   0.00000  Uiso   1.00
N686   N     0.83333   0.04760   0.75000   0.00000  Uiso   1.00
O687   O     0.77226   0.20487   0.74999   0.00000  Uiso   1.00
O688   O     0.89441   0.12846   0.75000   0.00000  Uiso   1.00
O689   O     0.89441   0.20487   0.75000   0.00000  Uiso   1.00
O690   O     0.77226   0.12846   0.74999   0.00000  Uiso   1.00
O691   O     0.83333   0.20489   0.68392   0.00000  Uiso   1.00
O692   O     0.83334   0.12844   0.81607   0.00000  Uiso   1.00
O693   O     0.83334   0.20489   0.81607   0.00000  Uiso   1.00
O694   O     0.83333   0.12844   0.68392   0.00000  Uiso   1.00
Zn695  Zn    0.83333   0.21771   0.75000   0.00000  Uiso   1.00
Zn696  Zn    0.83333   0.11563   0.75000   0.00000  Uiso   1.00
Br697  Br    0.25522   0.49417   0.87707   0.00000  Uiso   1.00
Br698  Br    0.07812   0.49417   0.62293   0.00000  Uiso   1.00
Br699  Br    0.08004   0.52030   0.86675   0.00000  Uiso   1.00
Br700  Br    0.25329   0.52031   0.63325   0.00000  Uiso   1.00
Br701  Br    0.03881   0.48296   0.95393   0.00000  Uiso   1.00
Br702  Br    0.29452   0.48296   0.54607   0.00000  Uiso   1.00
C703   C     0.08677   0.50000   0.74991   0.00000  Uiso   1.00
C704   C     0.04251   0.50000   0.75001   0.00000  Uiso   1.00
C705   C     0.19291   0.35705   0.77830   0.00000  Uiso   1.00
C706   C     0.14051   0.64275   0.72155   0.00000  Uiso   1.00
C707   C     0.14042   0.35705   0.72170   0.00000  Uiso   1.00
C708   C     0.19282   0.64275   0.77845   0.00000  Uiso   1.00
C709   C     0.16652   0.50015   0.66372   0.00000  Uiso   1.00
C710   C     0.16681   0.50015   0.83628   0.00000  Uiso   1.00
C711   C     0.20424   0.50467   0.90796   0.00000  Uiso   1.00
C712   C     0.12910   0.50467   0.59204   0.00000  Uiso   1.00
C713   C     0.16637   0.50149   0.88410   0.00000  Uiso   1.00
C714   C     0.24656   0.50000   0.75009   0.00000  Uiso   1.00
C715   C     0.16696   0.50149   0.61590   0.00000  Uiso   1.00
C716   C     0.12830   0.50617   0.90476   0.00000  Uiso   1.00
C717   C     0.20503   0.50618   0.59524   0.00000  Uiso   1.00
C718   C     0.12777   0.50695   0.95184   0.00000  Uiso   1.00
C719   C     0.20556   0.50696   0.54816   0.00000  Uiso   1.00
C720   C     0.16630   0.50930   0.97644   0.00000  Uiso   1.00
C721   C     0.16703   0.50930   0.52356   0.00000  Uiso   1.00
C722   C     0.20419   0.51165   0.95418   0.00000  Uiso   1.00
C723   C     0.12915   0.51165   0.54582   0.00000  Uiso   1.00
C724   C     0.09059   0.50828   0.97548   0.00000  Uiso   1.00
C725   C     0.09220   0.51860   0.52078   0.00000  Uiso   1.00
C726   C     0.24274   0.50829   0.52452   0.00000  Uiso   1.00
C727   C     0.24113   0.51860   0.97922   0.00000  Uiso   1.00
C728   C     0.02126   0.45944   0.75013   0.00000  Uiso   1.00
C729   C     0.31208   0.54058   0.74992   0.00000  Uiso   1.00
C730   C     0.31208   0.45944   0.74987   0.00000  Uiso   1.00
C731   C     0.02126   0.54058   0.75008   0.00000  Uiso   1.00
C732   C     0.29082   0.50000   0.74999   0.00000  Uiso   1.00
H733   H     0.03727   0.42774   0.75045   0.00000  Uiso   1.00
H734   H     0.29606   0.57227   0.74965   0.00000  Uiso   1.00
H735   H     0.29606   0.42774   0.74955   0.00000  Uiso   1.00
H736   H     0.03728   0.57227   0.75035   0.00000  Uiso   1.00
I737   I     0.04770   0.56618   0.54178   0.00000  Uiso   1.00
I738   I     0.28563   0.56618   0.95822   0.00000  Uiso   1.00
I739   I     0.23492   0.39053   0.82303   0.00000  Uiso   1.00
I740   I     0.09920   0.60848   0.67598   0.00000  Uiso   1.00
I741   I     0.09841   0.39053   0.67697   0.00000  Uiso   1.00
I742   I     0.23414   0.60848   0.82402   0.00000  Uiso   1.00
N743   N     0.16667   0.61907   0.75000   0.00000  Uiso   1.00
N744   N     0.16667   0.38093   0.75000   0.00000  Uiso   1.00
O745   O     0.10559   0.53821   0.74999   0.00000  Uiso   1.00
O746   O     0.22774   0.46179   0.75000   0.00000  Uiso   1.00
O747   O     0.22774   0.53821   0.75000   0.00000  Uiso   1.00
O748   O     0.10559   0.46179   0.74999   0.00000  Uiso   1.00
O749   O     0.16666   0.53823   0.68392   0.00000  Uiso   1.00
O750   O     0.16667   0.46177   0.81607   0.00000  Uiso   1.00
O751   O     0.16667   0.53823   0.81607   0.00000  Uiso   1.00
O752   O     0.16666   0.46177   0.68392   0.00000  Uiso   1.00
Zn753  Zn    0.16667   0.55104   0.75000   0.00000  Uiso   1.00
Zn754  Zn    0.16667   0.44896   0.75000   0.00000  Uiso   1.00
Br755  Br    0.58855   0.49417   0.87707   0.00000  Uiso   1.00
Br756  Br    0.41145   0.49417   0.62293   0.00000  Uiso   1.00
Br757  Br    0.41337   0.52030   0.86675   0.00000  Uiso   1.00
Br758  Br    0.58662   0.52031   0.63325   0.00000  Uiso   1.00
Br759  Br    0.37214   0.48296   0.95393   0.00000  Uiso   1.00
Br760  Br    0.62786   0.48296   0.54607   0.00000  Uiso   1.00
C761   C     0.42010   0.50000   0.74991   0.00000  Uiso   1.00
C762   C     0.37585   0.50000   0.75001   0.00000  Uiso   1.00
C763   C     0.52625   0.35705   0.77830   0.00000  Uiso   1.00
C764   C     0.47384   0.64275   0.72155   0.00000  Uiso   1.00
C765   C     0.47375   0.35705   0.72170   0.00000  Uiso   1.00
C766   C     0.52616   0.64275   0.77845   0.00000  Uiso   1.00
C767   C     0.49986   0.50015   0.66372   0.00000  Uiso   1.00
C768   C     0.50014   0.50015   0.83628   0.00000  Uiso   1.00
C769   C     0.53757   0.50467   0.90796   0.00000  Uiso   1.00
C770   C     0.46243   0.50467   0.59204   0.00000  Uiso   1.00
C771   C     0.49970   0.50149   0.88410   0.00000  Uiso   1.00
C772   C     0.57990   0.50000   0.75009   0.00000  Uiso   1.00
C773   C     0.50030   0.50149   0.61590   0.00000  Uiso   1.00
C774   C     0.46164   0.50617   0.90476   0.00000  Uiso   1.00
C775   C     0.53836   0.50618   0.59524   0.00000  Uiso   1.00
C776   C     0.46111   0.50695   0.95184   0.00000  Uiso   1.00
C777   C     0.53889   0.50696   0.54816   0.00000  Uiso   1.00
C778   C     0.49964   0.50930   0.97644   0.00000  Uiso   1.00
C779   C     0.50036   0.50930   0.52356   0.00000  Uiso   1.00
C780   C     0.53752   0.51165   0.95418   0.00000  Uiso   1.00
C781   C     0.46248   0.51165   0.54582   0.00000  Uiso   1.00
C782   C     0.42392   0.50828   0.97548   0.00000  Uiso   1.00
C783   C     0.42553   0.51860   0.52078   0.00000  Uiso   1.00
C784   C     0.57608   0.50829   0.52452   0.00000  Uiso   1.00
C785   C     0.57447   0.51860   0.97922   0.00000  Uiso   1.00
C786   C     0.35459   0.45944   0.75013   0.00000  Uiso   1.00
C787   C     0.64541   0.54058   0.74992   0.00000  Uiso   1.00
C788   C     0.64541   0.45944   0.74987   0.00000  Uiso   1.00
C789   C     0.35459   0.54058   0.75008   0.00000  Uiso   1.00
C790   C     0.62415   0.50000   0.74999   0.00000  Uiso   1.00
H791   H     0.37060   0.42774   0.75045   0.00000  Uiso   1.00
H792   H     0.62939   0.57227   0.74965   0.00000  Uiso   1.00
H793   H     0.62940   0.42774   0.74955   0.00000  Uiso   1.00
H794   H     0.37061   0.57227   0.75035   0.00000  Uiso   1.00
I795   I     0.38104   0.56618   0.54178   0.00000  Uiso   1.00
I796   I     0.61896   0.56618   0.95822   0.00000  Uiso   1.00
I797   I     0.56825   0.39053   0.82303   0.00000  Uiso   1.00
I798   I     0.43253   0.60848   0.67598   0.00000  Uiso   1.00
I799   I     0.43175   0.39053   0.67697   0.00000  Uiso   1.00
I800   I     0.56747   0.60848   0.82402   0.00000  Uiso   1.00
N801   N     0.50000   0.61907   0.75000   0.00000  Uiso   1.00
N802   N     0.50000   0.38093   0.75000   0.00000  Uiso   1.00
O803   O     0.43892   0.53821   0.74999   0.00000  Uiso   1.00
O804   O     0.56108   0.46179   0.75000   0.00000  Uiso   1.00
O805   O     0.56108   0.53821   0.75000   0.00000  Uiso   1.00
O806   O     0.43892   0.46179   0.74999   0.00000  Uiso   1.00
O807   O     0.49999   0.53823   0.68392   0.00000  Uiso   1.00
O808   O     0.50001   0.46177   0.81607   0.00000  Uiso   1.00
O809   O     0.50001   0.53823   0.81607   0.00000  Uiso   1.00
O810   O     0.49999   0.46177   0.68392   0.00000  Uiso   1.00
Zn811  Zn    0.50000   0.55104   0.75000   0.00000  Uiso   1.00
Zn812  Zn    0.50000   0.44896   0.75000   0.00000  Uiso   1.00
Br813  Br    0.92188   0.49417   0.87707   0.00000  Uiso   1.00
Br814  Br    0.74478   0.49417   0.62293   0.00000  Uiso   1.00
Br815  Br    0.74671   0.52030   0.86675   0.00000  Uiso   1.00
Br816  Br    0.91996   0.52031   0.63325   0.00000  Uiso   1.00
Br817  Br    0.70548   0.48296   0.95393   0.00000  Uiso   1.00
Br818  Br    0.96119   0.48296   0.54607   0.00000  Uiso   1.00
C819   C     0.75344   0.50000   0.74991   0.00000  Uiso   1.00
C820   C     0.70918   0.50000   0.75001   0.00000  Uiso   1.00
C821   C     0.85958   0.35705   0.77830   0.00000  Uiso   1.00
C822   C     0.80718   0.64275   0.72155   0.00000  Uiso   1.00
C823   C     0.80708   0.35705   0.72170   0.00000  Uiso   1.00
C824   C     0.85949   0.64275   0.77845   0.00000  Uiso   1.00
C825   C     0.83319   0.50015   0.66372   0.00000  Uiso   1.00
C826   C     0.83348   0.50015   0.83628   0.00000  Uiso   1.00
C827   C     0.87090   0.50467   0.90796   0.00000  Uiso   1.00
C828   C     0.79576   0.50467   0.59204   0.00000  Uiso   1.00
C829   C     0.83304   0.50149   0.88410   0.00000  Uiso   1.00
C830   C     0.91323   0.50000   0.75009   0.00000  Uiso   1.00
C831   C     0.83363   0.50149   0.61590   0.00000  Uiso   1.00
C832   C     0.79497   0.50617   0.90476   0.00000  Uiso   1.00
C833   C     0.87170   0.50618   0.59524   0.00000  Uiso   1.00
C834   C     0.79444   0.50695   0.95184   0.00000  Uiso   1.00
C835   C     0.87222   0.50696   0.54816   0.00000  Uiso   1.00
C836   C     0.83297   0.50930   0.97644   0.00000  Uiso   1.00
C837   C     0.83370   0.50930   0.52356   0.00000  Uiso   1.00
C838   C     0.87085   0.51165   0.95418   0.00000  Uiso   1.00
C839   C     0.79581   0.51165   0.54582   0.00000  Uiso   1.00
C840   C     0.75725   0.50828   0.97548   0.00000  Uiso   1.00
C841   C     0.75886   0.51860   0.52078   0.00000  Uiso   1.00
C842   C     0.90941   0.50829   0.52452   0.00000  Uiso   1.00
C843   C     0.90780   0.51860   0.97922   0.00000  Uiso   1.00
C844   C     0.68792   0.45944   0.75013   0.00000  Uiso   1.00
C845   C     0.97874   0.54058   0.74992   0.00000  Uiso   1.00
C846   C     0.97874   0.45944   0.74987   0.00000  Uiso   1.00
C847   C     0.68792   0.54058   0.75008   0.00000  Uiso   1.00
C848   C     0.95748   0.50000   0.74999   0.00000  Uiso   1.00
H849   H     0.70393   0.42774   0.75045   0.00000  Uiso   1.00
H850   H     0.96272   0.57227   0.74965   0.00000  Uiso   1.00
H851   H     0.96273   0.42774   0.74955   0.00000  Uiso   1.00
H852   H     0.70394   0.57227   0.75035   0.00000  Uiso   1.00
I853   I     0.71437   0.56618   0.54178   0.00000  Uiso   1.00
I854   I     0.95230   0.56618   0.95822   0.00000  Uiso   1.00
I855   I     0.90158   0.39053   0.82303   0.00000  Uiso   1.00
I856   I     0.76586   0.60848   0.67598   0.00000  Uiso   1.00
I857   I     0.76508   0.39053   0.67697   0.00000  Uiso   1.00
I858   I     0.90080   0.60848   0.82402   0.00000  Uiso   1.00
N859   N     0.83333   0.61907   0.75000   0.00000  Uiso   1.00
N860   N     0.83333   0.38093   0.75000   0.00000  Uiso   1.00
O861   O     0.77226   0.53821   0.74999   0.00000  Uiso   1.00
O862   O     0.89441   0.46179   0.75000   0.00000  Uiso   1.00
O863   O     0.89441   0.53821   0.75000   0.00000  Uiso   1.00
O864   O     0.77226   0.46179   0.74999   0.00000  Uiso   1.00
O865   O     0.83333   0.53823   0.68392   0.00000  Uiso   1.00
O866   O     0.83334   0.46177   0.81607   0.00000  Uiso   1.00
O867   O     0.83334   0.53823   0.81607   0.00000  Uiso   1.00
O868   O     0.83333   0.46177   0.68392   0.00000  Uiso   1.00
Zn869  Zn    0.83333   0.55104   0.75000   0.00000  Uiso   1.00
Zn870  Zn    0.83333   0.44896   0.75000   0.00000  Uiso   1.00
Br871  Br    0.25522   0.82750   0.87707   0.00000  Uiso   1.00
Br872  Br    0.07812   0.82750   0.62293   0.00000  Uiso   1.00
Br873  Br    0.08004   0.85364   0.86675   0.00000  Uiso   1.00
Br874  Br    0.25329   0.85364   0.63325   0.00000  Uiso   1.00
Br875  Br    0.03881   0.81629   0.95393   0.00000  Uiso   1.00
Br876  Br    0.29452   0.81630   0.54607   0.00000  Uiso   1.00
C877   C     0.08677   0.83333   0.74991   0.00000  Uiso   1.00
C878   C     0.04251   0.83334   0.75001   0.00000  Uiso   1.00
C879   C     0.19291   0.69038   0.77830   0.00000  Uiso   1.00
C880   C     0.14051   0.97609   0.72155   0.00000  Uiso   1.00
C881   C     0.14042   0.69038   0.72170   0.00000  Uiso   1.00
C882   C     0.19282   0.97609   0.77845   0.00000  Uiso   1.00
C883   C     0.16652   0.83349   0.66372   0.00000  Uiso   1.00
C884   C     0.16681   0.83348   0.83628   0.00000  Uiso   1.00
C885   C     0.20424   0.83800   0.90796   0.00000  Uiso   1.00
C886   C     0.12910   0.83800   0.59204   0.00000  Uiso   1.00
C887   C     0.16637   0.83482   0.88410   0.00000  Uiso   1.00
C888   C     0.24656   0.83333   0.75009   0.00000  Uiso   1.00
C889   C     0.16696   0.83482   0.61590   0.00000  Uiso   1.00
C890   C     0.12830   0.83951   0.90476   0.00000  Uiso   1.00
C891   C     0.20503   0.83951   0.59524   0.00000  Uiso   1.00
C892   C     0.12777   0.84029   0.95184   0.00000  Uiso   1.00
C893   C     0.20556   0.84029   0.54816   0.00000  Uiso   1.00
C894   C     0.16630   0.84264   0.97644   0.00000  Uiso   1.00
C895   C     0.16703   0.84264   0.52356   0.00000  Uiso   1.00
C896   C     0.20419   0.84498   0.95418   0.00000  Uiso   1.00
C897   C     0.12915   0.84498   0.54582   0.00000  Uiso   1.00
C898   C     0.09059   0.84162   0.97548   0.00000  Uiso   1.00
C899   C     0.09220   0.85193   0.52078   0.00000  Uiso   1.00
C900   C     0.24274   0.84162   0.52452   0.00000  Uiso   1.00
C901   C     0.24113   0.85193   0.97922   0.00000  Uiso   1.00
C902   C     0.02126   0.79277   0.75013   0.00000  Uiso   1.00
C903   C     0.31208   0.87391   0.74992   0.00000  Uiso   1.00
C904   C     0.31208   0.79277   0.74987   0.00000  Uiso   1.00
C905   C     0.02126   0.87391   0.75008   0.00000  Uiso   1.00
C906   C     0.29082   0.83334   0.74999   0.00000  Uiso   1.00
H907   H     0.03727   0.76108   0.75045   0.00000  Uiso   1.00
H908   H     0.29606   0.90561   0.74965   0.00000  Uiso   1.00
H909   H     0.29606   0.76108   0.74955   0.00000  Uiso   1.00
H910   H     0.03728   0.90561   0.75035   0.00000  Uiso   1.00
I911   I     0.04770   0.89951   0.54178   0.00000  Uiso   1.00
I912   I     0.28563   0.89951   0.95822   0.00000  Uiso   1.00
I913   I     0.23492   0.72387   0.82303   0.00000  Uiso   1.00
I914   I     0.09920   0.94181   0.67598   0.00000  Uiso   1.00
I915   I     0.09841   0.72387   0.67697   0.00000  Uiso   1.00
I916   I     0.23414   0.94181   0.82402   0.00000  Uiso   1.00
N917   N     0.16667   0.95240   0.75000   0.00000  Uiso   1.00
N918   N     0.16667   0.71427   0.75000   0.00000  Uiso   1.00
O919   O     0.10559   0.87154   0.74999   0.00000  Uiso   1.00
O920   O     0.22774   0.79513   0.75000   0.00000  Uiso   1.00
O921   O     0.22774   0.87154   0.75000   0.00000  Uiso   1.00
O922   O     0.10559   0.79513   0.74999   0.00000  Uiso   1.00
O923   O     0.16666   0.87156   0.68392   0.00000  Uiso   1.00
O924   O     0.16667   0.79511   0.81607   0.00000  Uiso   1.00
O925   O     0.16667   0.87156   0.81607   0.00000  Uiso   1.00
O926   O     0.16666   0.79511   0.68392   0.00000  Uiso   1.00
Zn927  Zn    0.16667   0.88437   0.75000   0.00000  Uiso   1.00
Zn928  Zn    0.16667   0.78229   0.75000   0.00000  Uiso   1.00
Br929  Br    0.58855   0.82750   0.87707   0.00000  Uiso   1.00
Br930  Br    0.41145   0.82750   0.62293   0.00000  Uiso   1.00
Br931  Br    0.41337   0.85364   0.86675   0.00000  Uiso   1.00
Br932  Br    0.58662   0.85364   0.63325   0.00000  Uiso   1.00
Br933  Br    0.37214   0.81629   0.95393   0.00000  Uiso   1.00
Br934  Br    0.62786   0.81630   0.54607   0.00000  Uiso   1.00
C935   C     0.42010   0.83333   0.74991   0.00000  Uiso   1.00
C936   C     0.37585   0.83334   0.75001   0.00000  Uiso   1.00
C937   C     0.52625   0.69038   0.77830   0.00000  Uiso   1.00
C938   C     0.47384   0.97609   0.72155   0.00000  Uiso   1.00
C939   C     0.47375   0.69038   0.72170   0.00000  Uiso   1.00
C940   C     0.52616   0.97609   0.77845   0.00000  Uiso   1.00
C941   C     0.49986   0.83349   0.66372   0.00000  Uiso   1.00
C942   C     0.50014   0.83348   0.83628   0.00000  Uiso   1.00
C943   C     0.53757   0.83800   0.90796   0.00000  Uiso   1.00
C944   C     0.46243   0.83800   0.59204   0.00000  Uiso   1.00
C945   C     0.49970   0.83482   0.88410   0.00000  Uiso   1.00
C946   C     0.57990   0.83333   0.75009   0.00000  Uiso   1.00
C947   C     0.50030   0.83482   0.61590   0.00000  Uiso   1.00
C948   C     0.46164   0.83951   0.90476   0.00000  Uiso   1.00
C949   C     0.53836   0.83951   0.59524   0.00000  Uiso   1.00
C950   C     0.46111   0.84029   0.95184   0.00000  Uiso   1.00
C951   C     0.53889   0.84029   0.54816   0.00000  Uiso   1.00
C952   C     0.49964   0.84264   0.97644   0.00000  Uiso   1.00
C953   C     0.50036   0.84264   0.52356   0.00000  Uiso   1.00
C954   C     0.53752   0.84498   0.95418   0.00000  Uiso   1.00
C955   C     0.46248   0.84498   0.54582   0.00000  Uiso   1.00
C956   C     0.42392   0.84162   0.97548   0.00000  Uiso   1.00
C957   C     0.42553   0.85193   0.52078   0.00000  Uiso   1.00
C958   C     0.57608   0.84162   0.52452   0.00000  Uiso   1.00
C959   C     0.57447   0.85193   0.97922   0.00000  Uiso   1.00
C960   C     0.35459   0.79277   0.75013   0.00000  Uiso   1.00
C961   C     0.64541   0.87391   0.74992   0.00000  Uiso   1.00
C962   C     0.64541   0.79277   0.74987   0.00000  Uiso   1.00
C963   C     0.35459   0.87391   0.75008   0.00000  Uiso   1.00
C964   C     0.62415   0.83334   0.74999   0.00000  Uiso   1.00
H965   H     0.37060   0.76108   0.75045   0.00000  Uiso   1.00
H966   H     0.62939   0.90561   0.74965   0.00000  Uiso   1.00
H967   H     0.62940   0.76108   0.74955   0.00000  Uiso   1.00
H968   H     0.37061   0.90561   0.75035   0.00000  Uiso   1.00
I969   I     0.38104   0.89951   0.54178   0.00000  Uiso   1.00
I970   I     0.61896   0.89951   0.95822   0.00000  Uiso   1.00
I971   I     0.56825   0.72387   0.82303   0.00000  Uiso   1.00
I972   I     0.43253   0.94181   0.67598   0.00000  Uiso   1.00
I973   I     0.43175   0.72387   0.67697   0.00000  Uiso   1.00
I974   I     0.56747   0.94181   0.82402   0.00000  Uiso   1.00
N975   N     0.50000   0.95240   0.75000   0.00000  Uiso   1.00
N976   N     0.50000   0.71427   0.75000   0.00000  Uiso   1.00
O977   O     0.43892   0.87154   0.74999   0.00000  Uiso   1.00
O978   O     0.56108   0.79513   0.75000   0.00000  Uiso   1.00
O979   O     0.56108   0.87154   0.75000   0.00000  Uiso   1.00
O980   O     0.43892   0.79513   0.74999   0.00000  Uiso   1.00
O981   O     0.49999   0.87156   0.68392   0.00000  Uiso   1.00
O982   O     0.50001   0.79511   0.81607   0.00000  Uiso   1.00
O983   O     0.50001   0.87156   0.81607   0.00000  Uiso   1.00
O984   O     0.49999   0.79511   0.68392   0.00000  Uiso   1.00
Zn985  Zn    0.50000   0.88437   0.75000   0.00000  Uiso   1.00
Zn986  Zn    0.50000   0.78229   0.75000   0.00000  Uiso   1.00
Br987  Br    0.92188   0.82750   0.87707   0.00000  Uiso   1.00
Br988  Br    0.74478   0.82750   0.62293   0.00000  Uiso   1.00
Br989  Br    0.74671   0.85364   0.86675   0.00000  Uiso   1.00
Br990  Br    0.91996   0.85364   0.63325   0.00000  Uiso   1.00
Br991  Br    0.70548   0.81629   0.95393   0.00000  Uiso   1.00
Br992  Br    0.96119   0.81630   0.54607   0.00000  Uiso   1.00
C993   C     0.75344   0.83333   0.74991   0.00000  Uiso   1.00
C994   C     0.70918   0.83334   0.75001   0.00000  Uiso   1.00
C995   C     0.85958   0.69038   0.77830   0.00000  Uiso   1.00
C996   C     0.80718   0.97609   0.72155   0.00000  Uiso   1.00
C997   C     0.80708   0.69038   0.72170   0.00000  Uiso   1.00
C998   C     0.85949   0.97609   0.77845   0.00000  Uiso   1.00
C999   C     0.83319   0.83349   0.66372   0.00000  Uiso   1.00
C1000  C     0.83348   0.83348   0.83628   0.00000  Uiso   1.00
C1001  C     0.87090   0.83800   0.90796   0.00000  Uiso   1.00
C1002  C     0.79576   0.83800   0.59204   0.00000  Uiso   1.00
C1003  C     0.83304   0.83482   0.88410   0.00000  Uiso   1.00
C1004  C     0.91323   0.83333   0.75009   0.00000  Uiso   1.00
C1005  C     0.83363   0.83482   0.61590   0.00000  Uiso   1.00
C1006  C     0.79497   0.83951   0.90476   0.00000  Uiso   1.00
C1007  C     0.87170   0.83951   0.59524   0.00000  Uiso   1.00
C1008  C     0.79444   0.84029   0.95184   0.00000  Uiso   1.00
C1009  C     0.87222   0.84029   0.54816   0.00000  Uiso   1.00
C1010  C     0.83297   0.84264   0.97644   0.00000  Uiso   1.00
C1011  C     0.83370   0.84264   0.52356   0.00000  Uiso   1.00
C1012  C     0.87085   0.84498   0.95418   0.00000  Uiso   1.00
C1013  C     0.79581   0.84498   0.54582   0.00000  Uiso   1.00
C1014  C     0.75725   0.84162   0.97548   0.00000  Uiso   1.00
C1015  C     0.75886   0.85193   0.52078   0.00000  Uiso   1.00
C1016  C     0.90941   0.84162   0.52452   0.00000  Uiso   1.00
C1017  C     0.90780   0.85193   0.97922   0.00000  Uiso   1.00
C1018  C     0.68792   0.79277   0.75013   0.00000  Uiso   1.00
C1019  C     0.97874   0.87391   0.74992   0.00000  Uiso   1.00
C1020  C     0.97874   0.79277   0.74987   0.00000  Uiso   1.00
C1021  C     0.68792   0.87391   0.75008   0.00000  Uiso   1.00
C1022  C     0.95748   0.83334   0.74999   0.00000  Uiso   1.00
H1023  H     0.70393   0.76108   0.75045   0.00000  Uiso   1.00
H1024  H     0.96272   0.90561   0.74965   0.00000  Uiso   1.00
H1025  H     0.96273   0.76108   0.74955   0.00000  Uiso   1.00
H1026  H     0.70394   0.90561   0.75035   0.00000  Uiso   1.00
I1027  I     0.71437   0.89951   0.54178   0.00000  Uiso   1.00
I1028  I     0.95230   0.89951   0.95822   0.00000  Uiso   1.00
I1029  I     0.90158   0.72387   0.82303   0.00000  Uiso   1.00
I1030  I     0.76586   0.94181   0.67598   0.00000  Uiso   1.00
I1031  I     0.76508   0.72387   0.67697   0.00000  Uiso   1.00
I1032  I     0.90080   0.94181   0.82402   0.00000  Uiso   1.00
N1033  N     0.83333   0.95240   0.75000   0.00000  Uiso   1.00
N1034  N     0.83333   0.71427   0.75000   0.00000  Uiso   1.00
O1035  O     0.77226   0.87154   0.74999   0.00000  Uiso   1.00
O1036  O     0.89441   0.79513   0.75000   0.00000  Uiso   1.00
O1037  O     0.89441   0.87154   0.75000   0.00000  Uiso   1.00
O1038  O     0.77226   0.79513   0.74999   0.00000  Uiso   1.00
O1039  O     0.83333   0.87156   0.68392   0.00000  Uiso   1.00
O1040  O     0.83334   0.79511   0.81607   0.00000  Uiso   1.00
O1041  O     0.83334   0.87156   0.81607   0.00000  Uiso   1.00
O1042  O     0.83333   0.79511   0.68392   0.00000  Uiso   1.00
Zn1043 Zn    0.83333   0.88437   0.75000   0.00000  Uiso   1.00
Zn1044 Zn    0.83333   0.78229   0.75000   0.00000  Uiso   1.00
loop_
_geom_bond_atom_site_label_1
_geom_bond_atom_site_label_2
_geom_bond_distance
_geom_bond_site_symmetry_2
_ccdc_geom_bond_type
Br1    C15     1.939   .     S
Br2    C16     1.939   .     S
Br3    C20     1.942   .     S
Br4    C21     1.942   .     S
Br5    C28     1.926   .     S
Br6    C30     1.926   .     S
C7     C8      1.428   .     S
C7     O49     1.298   .     A
C7     O52     1.298   .     A
C8     C32     1.398   .     A
C8     C35     1.398   .     A
C9     I43     2.123   .     S
C9     N48     1.377   .     A
C9     C360    1.430   1_545 S
C10    I44     2.136   .     S
C10    N47     1.375   .     A
C10    C185    1.430   .     S
C11    N48     1.377   .     A
C11    I45     2.123   .     S
C11    C358    1.430   1_545 S
C12    N47     1.375   .     A
C12    I46     2.136   .     S
C12    C183    1.430   .     S
C13    O56     1.301   .     A
C13    O53     1.292   .     A
C13    C19     1.429   .     S
C14    O55     1.292   .     A
C14    C17     1.429   .     S
C14    O54     1.300   .     A
C15    C17     1.396   .     A
C15    C26     1.396   .     A
C16    C27     1.396   .     A
C16    C19     1.396   .     A
C17    C20     1.400   .     A
C18    O51     1.298   .     A
C18    O50     1.298   .     A
C18    C36     1.428   .     S
C19    C21     1.400   .     A
C20    C22     1.407   .     A
C21    C23     1.407   .     A
C22    C28     1.413   .     A
C22    C24     1.424   .     A
C23    C25     1.424   .     A
C23    C30     1.413   .     A
C24    C26     1.413   .     A
C24    C547    1.406   .     S
C25    C27     1.413   .     A
C25    C546    1.406   1_554 S
C26    C31     1.401   .     A
C27    C29     1.401   .     A
C28    C551    1.387   .     S
C29    I41     2.135   .     S
C29    C550    1.387   1_554 S
C30    C553    1.387   1_554 S
C31    I42     2.135   .     S
C31    C552    1.387   .     S
C32    H37     1.083   .     S
C32    C150    1.371   1_455 S
C33    H38     1.083   .     S
C33    C36     1.398   .     A
C33    C93     1.371   .     S
C34    C36     1.398   .     A
C34    H39     1.083   .     S
C34    C90     1.371   .     S
C35    H40     1.083   .     S
C35    C149    1.371   1_455 S
N47    Zn57    2.042   .     S
N48    Zn58    2.042   .     S
O49    Zn57    2.008   .     S
O50    Zn58    2.008   .     S
O51    Zn57    2.008   .     S
O52    Zn58    2.008   .     S
O53    Zn57    2.010   .     S
O54    Zn58    2.010   .     S
O55    Zn57    2.010   .     S
O56    Zn58    2.010   .     S
Br59   C73     1.939   .     S
Br60   C74     1.939   .     S
Br61   C78     1.942   .     S
Br62   C79     1.942   .     S
Br63   C86     1.926   .     S
Br64   C88     1.926   .     S
C65    C66     1.428   .     S
C65    O107    1.298   .     A
C65    O110    1.298   .     A
C66    C90     1.398   .     A
C66    C93     1.398   .     A
C67    I101    2.123   .     S
C67    N106    1.377   .     A
C67    C418    1.430   1_545 S
C68    I102    2.136   .     S
C68    N105    1.375   .     A
C68    C243    1.430   .     S
C69    N106    1.377   .     A
C69    I103    2.123   .     S
C69    C416    1.430   1_545 S
C70    N105    1.375   .     A
C70    I104    2.136   .     S
C70    C241    1.430   .     S
C71    O114    1.301   .     A
C71    O111    1.292   .     A
C71    C77     1.429   .     S
C72    O113    1.292   .     A
C72    C75     1.429   .     S
C72    O112    1.300   .     A
C73    C75     1.396   .     A
C73    C84     1.396   .     A
C74    C85     1.396   .     A
C74    C77     1.396   .     A
C75    C78     1.400   .     A
C76    O109    1.298   .     A
C76    O108    1.298   .     A
C76    C94     1.428   .     S
C77    C79     1.400   .     A
C78    C80     1.407   .     A
C79    C81     1.407   .     A
C80    C86     1.413   .     A
C80    C82     1.424   .     A
C81    C83     1.424   .     A
C81    C88     1.413   .     A
C82    C84     1.413   .     A
C82    C605    1.406   .     S
C83    C85     1.413   .     A
C83    C604    1.406   1_554 S
C84    C89     1.401   .     A
C85    C87     1.401   .     A
C86    C609    1.387   .     S
C87    I99     2.135   .     S
C87    C608    1.387   1_554 S
C88    C611    1.387   1_554 S
C89    I100    2.135   .     S
C89    C610    1.387   .     S
C90    H95     1.083   .     S
C91    H96     1.083   .     S
C91    C94     1.398   .     A
C91    C151    1.371   .     S
C92    C94     1.398   .     A
C92    H97     1.083   .     S
C92    C148    1.371   .     S
C93    H98     1.083   .     S
N105   Zn115   2.042   .     S
N106   Zn116   2.042   .     S
O107   Zn115   2.008   .     S
O108   Zn116   2.008   .     S
O109   Zn115   2.008   .     S
O110   Zn116   2.008   .     S
O111   Zn115   2.010   .     S
O112   Zn116   2.010   .     S
O113   Zn115   2.010   .     S
O114   Zn116   2.010   .     S
Br117  C131    1.939   .     S
Br118  C132    1.939   .     S
Br119  C136    1.942   .     S
Br120  C137    1.942   .     S
Br121  C144    1.926   .     S
Br122  C146    1.926   .     S
C123   C124    1.428   .     S
C123   O165    1.298   .     A
C123   O168    1.298   .     A
C124   C148    1.398   .     A
C124   C151    1.398   .     A
C125   I159    2.123   .     S
C125   N164    1.377   .     A
C125   C476    1.430   1_545 S
C126   I160    2.136   .     S
C126   N163    1.375   .     A
C126   C301    1.430   .     S
C127   N164    1.377   .     A
C127   I161    2.123   .     S
C127   C474    1.430   1_545 S
C128   N163    1.375   .     A
C128   I162    2.136   .     S
C128   C299    1.430   .     S
C129   O172    1.301   .     A
C129   O169    1.292   .     A
C129   C135    1.429   .     S
C130   O171    1.292   .     A
C130   C133    1.429   .     S
C130   O170    1.300   .     A
C131   C133    1.396   .     A
C131   C142    1.396   .     A
C132   C143    1.396   .     A
C132   C135    1.396   .     A
C133   C136    1.400   .     A
C134   O167    1.298   .     A
C134   O166    1.298   .     A
C134   C152    1.428   .     S
C135   C137    1.400   .     A
C136   C138    1.407   .     A
C137   C139    1.407   .     A
C138   C144    1.413   .     A
C138   C140    1.424   .     A
C139   C141    1.424   .     A
C139   C146    1.413   .     A
C140   C142    1.413   .     A
C140   C663    1.406   .     S
C141   C143    1.413   .     A
C141   C662    1.406   1_554 S
C142   C147    1.401   .     A
C143   C145    1.401   .     A
C144   C667    1.387   .     S
C145   I157    2.135   .     S
C145   C666    1.387   1_554 S
C146   C669    1.387   1_554 S
C147   I158    2.135   .     S
C147   C668    1.387   .     S
C148   H153    1.083   .     S
C149   H154    1.083   .     S
C149   C152    1.398   .     A
C149   C35     1.371   1_655 S
C150   C152    1.398   .     A
C150   H155    1.083   .     S
C150   C32     1.371   1_655 S
C151   H156    1.083   .     S
N163   Zn173   2.042   .     S
N164   Zn174   2.042   .     S
O165   Zn173   2.008   .     S
O166   Zn174   2.008   .     S
O167   Zn173   2.008   .     S
O168   Zn174   2.008   .     S
O169   Zn173   2.010   .     S
O170   Zn174   2.010   .     S
O171   Zn173   2.010   .     S
O172   Zn174   2.010   .     S
Br175  C189    1.939   .     S
Br176  C190    1.939   .     S
Br177  C194    1.942   .     S
Br178  C195    1.942   .     S
Br179  C202    1.926   .     S
Br180  C204    1.926   .     S
C181   C182    1.428   .     S
C181   O223    1.298   .     A
C181   O226    1.298   .     A
C182   C206    1.398   .     A
C182   C209    1.398   .     A
C183   I217    2.123   .     S
C183   N222    1.377   .     A
C184   I218    2.136   .     S
C184   N221    1.375   .     A
C184   C359    1.430   .     S
C185   N222    1.377   .     A
C185   I219    2.123   .     S
C186   N221    1.375   .     A
C186   I220    2.136   .     S
C186   C357    1.430   .     S
C187   O230    1.301   .     A
C187   O227    1.292   .     A
C187   C193    1.429   .     S
C188   O229    1.292   .     A
C188   C191    1.429   .     S
C188   O228    1.300   .     A
C189   C191    1.396   .     A
C189   C200    1.396   .     A
C190   C201    1.396   .     A
C190   C193    1.396   .     A
C191   C194    1.400   .     A
C192   O225    1.298   .     A
C192   O224    1.298   .     A
C192   C210    1.428   .     S
C193   C195    1.400   .     A
C194   C196    1.407   .     A
C195   C197    1.407   .     A
C196   C202    1.413   .     A
C196   C198    1.424   .     A
C197   C199    1.424   .     A
C197   C204    1.413   .     A
C198   C200    1.413   .     A
C198   C721    1.406   .     S
C199   C201    1.413   .     A
C199   C720    1.406   1_554 S
C200   C205    1.401   .     A
C201   C203    1.401   .     A
C202   C725    1.387   .     S
C203   I215    2.135   .     S
C203   C724    1.387   1_554 S
C204   C727    1.387   1_554 S
C205   I216    2.135   .     S
C205   C726    1.387   .     S
C206   H211    1.083   .     S
C206   C324    1.371   1_455 S
C207   H212    1.083   .     S
C207   C210    1.398   .     A
C207   C267    1.371   .     S
C208   C210    1.398   .     A
C208   H213    1.083   .     S
C208   C264    1.371   .     S
C209   H214    1.083   .     S
C209   C323    1.371   1_455 S
N221   Zn231   2.042   .     S
N222   Zn232   2.042   .     S
O223   Zn231   2.008   .     S
O224   Zn232   2.008   .     S
O225   Zn231   2.008   .     S
O226   Zn232   2.008   .     S
O227   Zn231   2.010   .     S
O228   Zn232   2.010   .     S
O229   Zn231   2.010   .     S
O230   Zn232   2.010   .     S
Br233  C247    1.939   .     S
Br234  C248    1.939   .     S
Br235  C252    1.942   .     S
Br236  C253    1.942   .     S
Br237  C260    1.926   .     S
Br238  C262    1.926   .     S
C239   C240    1.428   .     S
C239   O281    1.298   .     A
C239   O284    1.298   .     A
C240   C264    1.398   .     A
C240   C267    1.398   .     A
C241   I275    2.123   .     S
C241   N280    1.377   .     A
C242   I276    2.136   .     S
C242   N279    1.375   .     A
C242   C417    1.430   .     S
C243   N280    1.377   .     A
C243   I277    2.123   .     S
C244   N279    1.375   .     A
C244   I278    2.136   .     S
C244   C415    1.430   .     S
C245   O288    1.301   .     A
C245   O285    1.292   .     A
C245   C251    1.429   .     S
C246   O287    1.292   .     A
C246   C249    1.429   .     S
C246   O286    1.300   .     A
C247   C249    1.396   .     A
C247   C258    1.396   .     A
C248   C259    1.396   .     A
C248   C251    1.396   .     A
C249   C252    1.400   .     A
C250   O283    1.298   .     A
C250   O282    1.298   .     A
C250   C268    1.428   .     S
C251   C253    1.400   .     A
C252   C254    1.407   .     A
C253   C255    1.407   .     A
C254   C260    1.413   .     A
C254   C256    1.424   .     A
C255   C257    1.424   .     A
C255   C262    1.413   .     A
C256   C258    1.413   .     A
C256   C779    1.406   .     S
C257   C259    1.413   .     A
C257   C778    1.406   1_554 S
C258   C263    1.401   .     A
C259   C261    1.401   .     A
C260   C783    1.387   .     S
C261   I273    2.135   .     S
C261   C782    1.387   1_554 S
C262   C785    1.387   1_554 S
C263   I274    2.135   .     S
C263   C784    1.387   .     S
C264   H269    1.083   .     S
C265   H270    1.083   .     S
C265   C268    1.398   .     A
C265   C325    1.371   .     S
C266   C268    1.398   .     A
C266   H271    1.083   .     S
C266   C322    1.371   .     S
C267   H272    1.083   .     S
N279   Zn289   2.042   .     S
N280   Zn290   2.042   .     S
O281   Zn289   2.008   .     S
O282   Zn290   2.008   .     S
O283   Zn289   2.008   .     S
O284   Zn290   2.008   .     S
O285   Zn289   2.010   .     S
O286   Zn290   2.010   .     S
O287   Zn289   2.010   .     S
O288   Zn290   2.010   .     S
Br291  C305    1.939   .     S
Br292  C306    1.939   .     S
Br293  C310    1.942   .     S
Br294  C311    1.942   .     S
Br295  C318    1.926   .     S
Br296  C320    1.926   .     S
C297   C298    1.428   .     S
C297   O339    1.298   .     A
C297   O342    1.298   .     A
C298   C322    1.398   .     A
C298   C325    1.398   .     A
C299   I333    2.123   .     S
C299   N338    1.377   .     A
C300   I334    2.136   .     S
C300   N337    1.375   .     A
C300   C475    1.430   .     S
C301   N338    1.377   .     A
C301   I335    2.123   .     S
C302   N337    1.375   .     A
C302   I336    2.136   .     S
C302   C473    1.430   .     S
C303   O346    1.301   .     A
C303   O343    1.292   .     A
C303   C309    1.429   .     S
C304   O345    1.292   .     A
C304   C307    1.429   .     S
C304   O344    1.300   .     A
C305   C307    1.396   .     A
C305   C316    1.396   .     A
C306   C317    1.396   .     A
C306   C309    1.396   .     A
C307   C310    1.400   .     A
C308   O341    1.298   .     A
C308   O340    1.298   .     A
C308   C326    1.428   .     S
C309   C311    1.400   .     A
C310   C312    1.407   .     A
C311   C313    1.407   .     A
C312   C318    1.413   .     A
C312   C314    1.424   .     A
C313   C315    1.424   .     A
C313   C320    1.413   .     A
C314   C316    1.413   .     A
C314   C837    1.406   .     S
C315   C317    1.413   .     A
C315   C836    1.406   1_554 S
C316   C321    1.401   .     A
C317   C319    1.401   .     A
C318   C841    1.387   .     S
C319   I331    2.135   .     S
C319   C840    1.387   1_554 S
C320   C843    1.387   1_554 S
C321   I332    2.135   .     S
C321   C842    1.387   .     S
C322   H327    1.083   .     S
C323   H328    1.083   .     S
C323   C326    1.398   .     A
C323   C209    1.371   1_655 S
C324   C326    1.398   .     A
C324   H329    1.083   .     S
C324   C206    1.371   1_655 S
C325   H330    1.083   .     S
N337   Zn347   2.042   .     S
N338   Zn348   2.042   .     S
O339   Zn347   2.008   .     S
O340   Zn348   2.008   .     S
O341   Zn347   2.008   .     S
O342   Zn348   2.008   .     S
O343   Zn347   2.010   .     S
O344   Zn348   2.010   .     S
O345   Zn347   2.010   .     S
O346   Zn348   2.010   .     S
Br349  C363    1.939   .     S
Br350  C364    1.939   .     S
Br351  C368    1.942   .     S
Br352  C369    1.942   .     S
Br353  C376    1.926   .     S
Br354  C378    1.926   .     S
C355   C356    1.428   .     S
C355   O397    1.298   .     A
C355   O400    1.298   .     A
C356   C380    1.398   .     A
C356   C383    1.398   .     A
C357   I391    2.123   .     S
C357   N396    1.377   .     A
C358   I392    2.136   .     S
C358   N395    1.375   .     A
C358   C11     1.430   1_565 S
C359   N396    1.377   .     A
C359   I393    2.123   .     S
C360   N395    1.375   .     A
C360   I394    2.136   .     S
C360   C9      1.430   1_565 S
C361   O404    1.301   .     A
C361   O401    1.292   .     A
C361   C367    1.429   .     S
C362   O403    1.292   .     A
C362   C365    1.429   .     S
C362   O402    1.300   .     A
C363   C365    1.396   .     A
C363   C374    1.396   .     A
C364   C375    1.396   .     A
C364   C367    1.396   .     A
C365   C368    1.400   .     A
C366   O399    1.298   .     A
C366   O398    1.298   .     A
C366   C384    1.428   .     S
C367   C369    1.400   .     A
C368   C370    1.407   .     A
C369   C371    1.407   .     A
C370   C376    1.413   .     A
C370   C372    1.424   .     A
C371   C373    1.424   .     A
C371   C378    1.413   .     A
C372   C374    1.413   .     A
C372   C895    1.406   .     S
C373   C375    1.413   .     A
C373   C894    1.406   1_554 S
C374   C379    1.401   .     A
C375   C377    1.401   .     A
C376   C899    1.387   .     S
C377   I389    2.135   .     S
C377   C898    1.387   1_554 S
C378   C901    1.387   1_554 S
C379   I390    2.135   .     S
C379   C900    1.387   .     S
C380   H385    1.083   .     S
C380   C498    1.371   1_455 S
C381   H386    1.083   .     S
C381   C384    1.398   .     A
C381   C441    1.371   .     S
C382   C384    1.398   .     A
C382   H387    1.083   .     S
C382   C438    1.371   .     S
C383   H388    1.083   .     S
C383   C497    1.371   1_455 S
N395   Zn405   2.042   .     S
N396   Zn406   2.042   .     S
O397   Zn405   2.008   .     S
O398   Zn406   2.008   .     S
O399   Zn405   2.008   .     S
O400   Zn406   2.008   .     S
O401   Zn405   2.010   .     S
O402   Zn406   2.010   .     S
O403   Zn405   2.010   .     S
O404   Zn406   2.010   .     S
Br407  C421    1.939   .     S
Br408  C422    1.939   .     S
Br409  C426    1.942   .     S
Br410  C427    1.942   .     S
Br411  C434    1.926   .     S
Br412  C436    1.926   .     S
C413   C414    1.428   .     S
C413   O455    1.298   .     A
C413   O458    1.298   .     A
C414   C438    1.398   .     A
C414   C441    1.398   .     A
C415   I449    2.123   .     S
C415   N454    1.377   .     A
C416   I450    2.136   .     S
C416   N453    1.375   .     A
C416   C69     1.430   1_565 S
C417   N454    1.377   .     A
C417   I451    2.123   .     S
C418   N453    1.375   .     A
C418   I452    2.136   .     S
C418   C67     1.430   1_565 S
C419   O462    1.301   .     A
C419   O459    1.292   .     A
C419   C425    1.429   .     S
C420   O461    1.292   .     A
C420   C423    1.429   .     S
C420   O460    1.300   .     A
C421   C423    1.396   .     A
C421   C432    1.396   .     A
C422   C433    1.396   .     A
C422   C425    1.396   .     A
C423   C426    1.400   .     A
C424   O457    1.298   .     A
C424   O456    1.298   .     A
C424   C442    1.428   .     S
C425   C427    1.400   .     A
C426   C428    1.407   .     A
C427   C429    1.407   .     A
C428   C434    1.413   .     A
C428   C430    1.424   .     A
C429   C431    1.424   .     A
C429   C436    1.413   .     A
C430   C432    1.413   .     A
C430   C953    1.406   .     S
C431   C433    1.413   .     A
C431   C952    1.406   1_554 S
C432   C437    1.401   .     A
C433   C435    1.401   .     A
C434   C957    1.387   .     S
C435   I447    2.135   .     S
C435   C956    1.387   1_554 S
C436   C959    1.387   1_554 S
C437   I448    2.135   .     S
C437   C958    1.387   .     S
C438   H443    1.083   .     S
C439   H444    1.083   .     S
C439   C442    1.398   .     A
C439   C499    1.371   .     S
C440   C442    1.398   .     A
C440   H445    1.083   .     S
C440   C496    1.371   .     S
C441   H446    1.083   .     S
N453   Zn463   2.042   .     S
N454   Zn464   2.042   .     S
O455   Zn463   2.008   .     S
O456   Zn464   2.008   .     S
O457   Zn463   2.008   .     S
O458   Zn464   2.008   .     S
O459   Zn463   2.010   .     S
O460   Zn464   2.010   .     S
O461   Zn463   2.010   .     S
O462   Zn464   2.010   .     S
Br465  C479    1.939   .     S
Br466  C480    1.939   .     S
Br467  C484    1.942   .     S
Br468  C485    1.942   .     S
Br469  C492    1.926   .     S
Br470  C494    1.926   .     S
C471   C472    1.428   .     S
C471   O513    1.298   .     A
C471   O516    1.298   .     A
C472   C496    1.398   .     A
C472   C499    1.398   .     A
C473   I507    2.123   .     S
C473   N512    1.377   .     A
C474   I508    2.136   .     S
C474   N511    1.375   .     A
C474   C127    1.430   1_565 S
C475   N512    1.377   .     A
C475   I509    2.123   .     S
C476   N511    1.375   .     A
C476   I510    2.136   .     S
C476   C125    1.430   1_565 S
C477   O520    1.301   .     A
C477   O517    1.292   .     A
C477   C483    1.429   .     S
C478   O519    1.292   .     A
C478   C481    1.429   .     S
C478   O518    1.300   .     A
C479   C481    1.396   .     A
C479   C490    1.396   .     A
C480   C491    1.396   .     A
C480   C483    1.396   .     A
C481   C484    1.400   .     A
C482   O515    1.298   .     A
C482   O514    1.298   .     A
C482   C500    1.428   .     S
C483   C485    1.400   .     A
C484   C486    1.407   .     A
C485   C487    1.407   .     A
C486   C492    1.413   .     A
C486   C488    1.424   .     A
C487   C489    1.424   .     A
C487   C494    1.413   .     A
C488   C490    1.413   .     A
C488   C1011   1.406   .     S
C489   C491    1.413   .     A
C489   C1010   1.406   1_554 S
C490   C495    1.401   .     A
C491   C493    1.401   .     A
C492   C1015   1.387   .     S
C493   I505    2.135   .     S
C493   C1014   1.387   1_554 S
C494   C1017   1.387   1_554 S
C495   I506    2.135   .     S
C495   C1016   1.387   .     S
C496   H501    1.083   .     S
C497   H502    1.083   .     S
C497   C500    1.398   .     A
C497   C383    1.371   1_655 S
C498   C500    1.398   .     A
C498   H503    1.083   .     S
C498   C380    1.371   1_655 S
C499   H504    1.083   .     S
N511   Zn521   2.042   .     S
N512   Zn522   2.042   .     S
O513   Zn521   2.008   .     S
O514   Zn522   2.008   .     S
O515   Zn521   2.008   .     S
O516   Zn522   2.008   .     S
O517   Zn521   2.010   .     S
O518   Zn522   2.010   .     S
O519   Zn521   2.010   .     S
O520   Zn522   2.010   .     S
Br523  C537    1.939   .     S
Br524  C538    1.939   .     S
Br525  C542    1.942   .     S
Br526  C543    1.942   .     S
Br527  C550    1.926   .     S
Br528  C552    1.926   .     S
C529   C530    1.428   .     S
C529   O571    1.298   .     A
C529   O574    1.298   .     A
C530   C554    1.398   .     A
C530   C557    1.398   .     A
C531   I565    2.123   .     S
C531   N570    1.377   .     A
C531   C882    1.430   1_545 S
C532   I566    2.136   .     S
C532   N569    1.375   .     A
C532   C707    1.430   .     S
C533   N570    1.377   .     A
C533   I567    2.123   .     S
C533   C880    1.430   1_545 S
C534   N569    1.375   .     A
C534   I568    2.136   .     S
C534   C705    1.430   .     S
C535   O578    1.301   .     A
C535   O575    1.292   .     A
C535   C541    1.429   .     S
C536   O577    1.292   .     A
C536   C539    1.429   .     S
C536   O576    1.300   .     A
C537   C539    1.396   .     A
C537   C548    1.396   .     A
C538   C549    1.396   .     A
C538   C541    1.396   .     A
C539   C542    1.400   .     A
C540   O573    1.298   .     A
C540   O572    1.298   .     A
C540   C558    1.428   .     S
C541   C543    1.400   .     A
C542   C544    1.407   .     A
C543   C545    1.407   .     A
C544   C550    1.413   .     A
C544   C546    1.424   .     A
C545   C547    1.424   .     A
C545   C552    1.413   .     A
C546   C548    1.413   .     A
C546   C25     1.406   1_556 S
C547   C549    1.413   .     A
C548   C553    1.401   .     A
C549   C551    1.401   .     A
C550   C29     1.387   1_556 S
C551   I563    2.135   .     S
C553   I564    2.135   .     S
C553   C30     1.387   1_556 S
C554   H559    1.083   .     S
C554   C672    1.371   1_455 S
C555   H560    1.083   .     S
C555   C558    1.398   .     A
C555   C615    1.371   .     S
C556   C558    1.398   .     A
C556   H561    1.083   .     S
C556   C612    1.371   .     S
C557   H562    1.083   .     S
C557   C671    1.371   1_455 S
N569   Zn579   2.042   .     S
N570   Zn580   2.042   .     S
O571   Zn579   2.008   .     S
O572   Zn580   2.008   .     S
O573   Zn579   2.008   .     S
O574   Zn580   2.008   .     S
O575   Zn579   2.010   .     S
O576   Zn580   2.010   .     S
O577   Zn579   2.010   .     S
O578   Zn580   2.010   .     S
Br581  C595    1.939   .     S
Br582  C596    1.939   .     S
Br583  C600    1.942   .     S
Br584  C601    1.942   .     S
Br585  C608    1.926   .     S
Br586  C610    1.926   .     S
C587   C588    1.428   .     S
C587   O629    1.298   .     A
C587   O632    1.298   .     A
C588   C612    1.398   .     A
C588   C615    1.398   .     A
C589   I623    2.123   .     S
C589   N628    1.377   .     A
C589   C940    1.430   1_545 S
C590   I624    2.136   .     S
C590   N627    1.375   .     A
C590   C765    1.430   .     S
C591   N628    1.377   .     A
C591   I625    2.123   .     S
C591   C938    1.430   1_545 S
C592   N627    1.375   .     A
C592   I626    2.136   .     S
C592   C763    1.430   .     S
C593   O636    1.301   .     A
C593   O633    1.292   .     A
C593   C599    1.429   .     S
C594   O635    1.292   .     A
C594   C597    1.429   .     S
C594   O634    1.300   .     A
C595   C597    1.396   .     A
C595   C606    1.396   .     A
C596   C607    1.396   .     A
C596   C599    1.396   .     A
C597   C600    1.400   .     A
C598   O631    1.298   .     A
C598   O630    1.298   .     A
C598   C616    1.428   .     S
C599   C601    1.400   .     A
C600   C602    1.407   .     A
C601   C603    1.407   .     A
C602   C608    1.413   .     A
C602   C604    1.424   .     A
C603   C605    1.424   .     A
C603   C610    1.413   .     A
C604   C606    1.413   .     A
C604   C83     1.406   1_556 S
C605   C607    1.413   .     A
C606   C611    1.401   .     A
C607   C609    1.401   .     A
C608   C87     1.387   1_556 S
C609   I621    2.135   .     S
C611   I622    2.135   .     S
C611   C88     1.387   1_556 S
C612   H617    1.083   .     S
C613   H618    1.083   .     S
C613   C616    1.398   .     A
C613   C673    1.371   .     S
C614   C616    1.398   .     A
C614   H619    1.083   .     S
C614   C670    1.371   .     S
C615   H620    1.083   .     S
N627   Zn637   2.042   .     S
N628   Zn638   2.042   .     S
O629   Zn637   2.008   .     S
O630   Zn638   2.008   .     S
O631   Zn637   2.008   .     S
O632   Zn638   2.008   .     S
O633   Zn637   2.010   .     S
O634   Zn638   2.010   .     S
O635   Zn637   2.010   .     S
O636   Zn638   2.010   .     S
Br639  C653    1.939   .     S
Br640  C654    1.939   .     S
Br641  C658    1.942   .     S
Br642  C659    1.942   .     S
Br643  C666    1.926   .     S
Br644  C668    1.926   .     S
C645   C646    1.428   .     S
C645   O687    1.298   .     A
C645   O690    1.298   .     A
C646   C670    1.398   .     A
C646   C673    1.398   .     A
C647   I681    2.123   .     S
C647   N686    1.377   .     A
C647   C998    1.430   1_545 S
C648   I682    2.136   .     S
C648   N685    1.375   .     A
C648   C823    1.430   .     S
C649   N686    1.377   .     A
C649   I683    2.123   .     S
C649   C996    1.430   1_545 S
C650   N685    1.375   .     A
C650   I684    2.136   .     S
C650   C821    1.430   .     S
C651   O694    1.301   .     A
C651   O691    1.292   .     A
C651   C657    1.429   .     S
C652   O693    1.292   .     A
C652   C655    1.429   .     S
C652   O692    1.300   .     A
C653   C655    1.396   .     A
C653   C664    1.396   .     A
C654   C665    1.396   .     A
C654   C657    1.396   .     A
C655   C658    1.400   .     A
C656   O689    1.298   .     A
C656   O688    1.298   .     A
C656   C674    1.428   .     S
C657   C659    1.400   .     A
C658   C660    1.407   .     A
C659   C661    1.407   .     A
C660   C666    1.413   .     A
C660   C662    1.424   .     A
C661   C663    1.424   .     A
C661   C668    1.413   .     A
C662   C664    1.413   .     A
C662   C141    1.406   1_556 S
C663   C665    1.413   .     A
C664   C669    1.401   .     A
C665   C667    1.401   .     A
C666   C145    1.387   1_556 S
C667   I679    2.135   .     S
C669   I680    2.135   .     S
C669   C146    1.387   1_556 S
C670   H675    1.083   .     S
C671   H676    1.083   .     S
C671   C674    1.398   .     A
C671   C557    1.371   1_655 S
C672   C674    1.398   .     A
C672   H677    1.083   .     S
C672   C554    1.371   1_655 S
C673   H678    1.083   .     S
N685   Zn695   2.042   .     S
N686   Zn696   2.042   .     S
O687   Zn695   2.008   .     S
O688   Zn696   2.008   .     S
O689   Zn695   2.008   .     S
O690   Zn696   2.008   .     S
O691   Zn695   2.010   .     S
O692   Zn696   2.010   .     S
O693   Zn695   2.010   .     S
O694   Zn696   2.010   .     S
Br697  C711    1.939   .     S
Br698  C712    1.939   .     S
Br699  C716    1.942   .     S
Br700  C717    1.942   .     S
Br701  C724    1.926   .     S
Br702  C726    1.926   .     S
C703   C704    1.428   .     S
C703   O745    1.298   .     A
C703   O748    1.298   .     A
C704   C728    1.398   .     A
C704   C731    1.398   .     A
C705   I739    2.123   .     S
C705   N744    1.377   .     A
C706   I740    2.136   .     S
C706   N743    1.375   .     A
C706   C881    1.430   .     S
C707   N744    1.377   .     A
C707   I741    2.123   .     S
C708   N743    1.375   .     A
C708   I742    2.136   .     S
C708   C879    1.430   .     S
C709   O752    1.301   .     A
C709   O749    1.292   .     A
C709   C715    1.429   .     S
C710   O751    1.292   .     A
C710   C713    1.429   .     S
C710   O750    1.300   .     A
C711   C713    1.396   .     A
C711   C722    1.396   .     A
C712   C723    1.396   .     A
C712   C715    1.396   .     A
C713   C716    1.400   .     A
C714   O747    1.298   .     A
C714   O746    1.298   .     A
C714   C732    1.428   .     S
C715   C717    1.400   .     A
C716   C718    1.407   .     A
C717   C719    1.407   .     A
C718   C724    1.413   .     A
C718   C720    1.424   .     A
C719   C721    1.424   .     A
C719   C726    1.413   .     A
C720   C722    1.413   .     A
C720   C199    1.406   1_556 S
C721   C723    1.413   .     A
C722   C727    1.401   .     A
C723   C725    1.401   .     A
C724   C203    1.387   1_556 S
C725   I737    2.135   .     S
C727   I738    2.135   .     S
C727   C204    1.387   1_556 S
C728   H733    1.083   .     S
C728   C846    1.371   1_455 S
C729   H734    1.083   .     S
C729   C732    1.398   .     A
C729   C789    1.371   .     S
C730   C732    1.398   .     A
C730   H735    1.083   .     S
C730   C786    1.371   .     S
C731   H736    1.083   .     S
C731   C845    1.371   1_455 S
N743   Zn753   2.042   .     S
N744   Zn754   2.042   .     S
O745   Zn753   2.008   .     S
O746   Zn754   2.008   .     S
O747   Zn753   2.008   .     S
O748   Zn754   2.008   .     S
O749   Zn753   2.010   .     S
O750   Zn754   2.010   .     S
O751   Zn753   2.010   .     S
O752   Zn754   2.010   .     S
Br755  C769    1.939   .     S
Br756  C770    1.939   .     S
Br757  C774    1.942   .     S
Br758  C775    1.942   .     S
Br759  C782    1.926   .     S
Br760  C784    1.926   .     S
C761   C762    1.428   .     S
C761   O803    1.298   .     A
C761   O806    1.298   .     A
C762   C786    1.398   .     A
C762   C789    1.398   .     A
C763   I797    2.123   .     S
C763   N802    1.377   .     A
C764   I798    2.136   .     S
C764   N801    1.375   .     A
C764   C939    1.430   .     S
C765   N802    1.377   .     A
C765   I799    2.123   .     S
C766   N801    1.375   .     A
C766   I800    2.136   .     S
C766   C937    1.430   .     S
C767   O810    1.301   .     A
C767   O807    1.292   .     A
C767   C773    1.429   .     S
C768   O809    1.292   .     A
C768   C771    1.429   .     S
C768   O808    1.300   .     A
C769   C771    1.396   .     A
C769   C780    1.396   .     A
C770   C781    1.396   .     A
C770   C773    1.396   .     A
C771   C774    1.400   .     A
C772   O805    1.298   .     A
C772   O804    1.298   .     A
C772   C790    1.428   .     S
C773   C775    1.400   .     A
C774   C776    1.407   .     A
C775   C777    1.407   .     A
C776   C782    1.413   .     A
C776   C778    1.424   .     A
C777   C779    1.424   .     A
C777   C784    1.413   .     A
C778   C780    1.413   .     A
C778   C257    1.406   1_556 S
C779   C781    1.413   .     A
C780   C785    1.401   .     A
C781   C783    1.401   .     A
C782   C261    1.387   1_556 S
C783   I795    2.135   .     S
C785   I796    2.135   .     S
C785   C262    1.387   1_556 S
C786   H791    1.083   .     S
C787   H792    1.083   .     S
C787   C790    1.398   .     A
C787   C847    1.371   .     S
C788   C790    1.398   .     A
C788   H793    1.083   .     S
C788   C844    1.371   .     S
C789   H794    1.083   .     S
N801   Zn811   2.042   .     S
N802   Zn812   2.042   .     S
O803   Zn811   2.008   .     S
O804   Zn812   2.008   .     S
O805   Zn811   2.008   .     S
O806   Zn812   2.008   .     S
O807   Zn811   2.010   .     S
O808   Zn812   2.010   .     S
O809   Zn811   2.010   .     S
O810   Zn812   2.010   .     S
Br813  C827    1.939   .     S
Br814  C828    1.939   .     S
Br815  C832    1.942   .     S
Br816  C833    1.942   .     S
Br817  C840    1.926   .     S
Br818  C842    1.926   .     S
C819   C820    1.428   .     S
C819   O861    1.298   .     A
C819   O864    1.298   .     A
C820   C844    1.398   .     A
C820   C847    1.398   .     A
C821   I855    2.123   .     S
C821   N860    1.377   .     A
C822   I856    2.136   .     S
C822   N859    1.375   .     A
C822   C997    1.430   .     S
C823   N860    1.377   .     A
C823   I857    2.123   .     S
C824   N859    1.375   .     A
C824   I858    2.136   .     S
C824   C995    1.430   .     S
C825   O868    1.301   .     A
C825   O865    1.292   .     A
C825   C831    1.429   .     S
C826   O867    1.292   .     A
C826   C829    1.429   .     S
C826   O866    1.300   .     A
C827   C829    1.396   .     A
C827   C838    1.396   .     A
C828   C839    1.396   .     A
C828   C831    1.396   .     A
C829   C832    1.400   .     A
C830   O863    1.298   .     A
C830   O862    1.298   .     A
C830   C848    1.428   .     S
C831   C833    1.400   .     A
C832   C834    1.407   .     A
C833   C835    1.407   .     A
C834   C840    1.413   .     A
C834   C836    1.424   .     A
C835   C837    1.424   .     A
C835   C842    1.413   .     A
C836   C838    1.413   .     A
C836   C315    1.406   1_556 S
C837   C839    1.413   .     A
C838   C843    1.401   .     A
C839   C841    1.401   .     A
C840   C319    1.387   1_556 S
C841   I853    2.135   .     S
C843   I854    2.135   .     S
C843   C320    1.387   1_556 S
C844   H849    1.083   .     S
C845   H850    1.083   .     S
C845   C848    1.398   .     A
C845   C731    1.371   1_655 S
C846   C848    1.398   .     A
C846   H851    1.083   .     S
C846   C728    1.371   1_655 S
C847   H852    1.083   .     S
N859   Zn869   2.042   .     S
N860   Zn870   2.042   .     S
O861   Zn869   2.008   .     S
O862   Zn870   2.008   .     S
O863   Zn869   2.008   .     S
O864   Zn870   2.008   .     S
O865   Zn869   2.010   .     S
O866   Zn870   2.010   .     S
O867   Zn869   2.010   .     S
O868   Zn870   2.010   .     S
Br871  C885    1.939   .     S
Br872  C886    1.939   .     S
Br873  C890    1.942   .     S
Br874  C891    1.942   .     S
Br875  C898    1.926   .     S
Br876  C900    1.926   .     S
C877   C878    1.428   .     S
C877   O919    1.298   .     A
C877   O922    1.298   .     A
C878   C902    1.398   .     A
C878   C905    1.398   .     A
C879   I913    2.123   .     S
C879   N918    1.377   .     A
C880   I914    2.136   .     S
C880   N917    1.375   .     A
C880   C533    1.430   1_565 S
C881   N918    1.377   .     A
C881   I915    2.123   .     S
C882   N917    1.375   .     A
C882   I916    2.136   .     S
C882   C531    1.430   1_565 S
C883   O926    1.301   .     A
C883   O923    1.292   .     A
C883   C889    1.429   .     S
C884   O925    1.292   .     A
C884   C887    1.429   .     S
C884   O924    1.300   .     A
C885   C887    1.396   .     A
C885   C896    1.396   .     A
C886   C897    1.396   .     A
C886   C889    1.396   .     A
C887   C890    1.400   .     A
C888   O921    1.298   .     A
C888   O920    1.298   .     A
C888   C906    1.428   .     S
C889   C891    1.400   .     A
C890   C892    1.407   .     A
C891   C893    1.407   .     A
C892   C898    1.413   .     A
C892   C894    1.424   .     A
C893   C895    1.424   .     A
C893   C900    1.413   .     A
C894   C896    1.413   .     A
C894   C373    1.406   1_556 S
C895   C897    1.413   .     A
C896   C901    1.401   .     A
C897   C899    1.401   .     A
C898   C377    1.387   1_556 S
C899   I911    2.135   .     S
C901   I912    2.135   .     S
C901   C378    1.387   1_556 S
C902   H907    1.083   .     S
C902   C1020   1.371   1_455 S
C903   H908    1.083   .     S
C903   C906    1.398   .     A
C903   C963    1.371   .     S
C904   C906    1.398   .     A
C904   H909    1.083   .     S
C904   C960    1.371   .     S
C905   H910    1.083   .     S
C905   C1019   1.371   1_455 S
N917   Zn927   2.042   .     S
N918   Zn928   2.042   .     S
O919   Zn927   2.008   .     S
O920   Zn928   2.008   .     S
O921   Zn927   2.008   .     S
O922   Zn928   2.008   .     S
O923   Zn927   2.010   .     S
O924   Zn928   2.010   .     S
O925   Zn927   2.010   .     S
O926   Zn928   2.010   .     S
Br929  C943    1.939   .     S
Br930  C944    1.939   .     S
Br931  C948    1.942   .     S
Br932  C949    1.942   .     S
Br933  C956    1.926   .     S
Br934  C958    1.926   .     S
C935   C936    1.428   .     S
C935   O977    1.298   .     A
C935   O980    1.298   .     A
C936   C960    1.398   .     A
C936   C963    1.398   .     A
C937   I971    2.123   .     S
C937   N976    1.377   .     A
C938   I972    2.136   .     S
C938   N975    1.375   .     A
C938   C591    1.430   1_565 S
C939   N976    1.377   .     A
C939   I973    2.123   .     S
C940   N975    1.375   .     A
C940   I974    2.136   .     S
C940   C589    1.430   1_565 S
C941   O984    1.301   .     A
C941   O981    1.292   .     A
C941   C947    1.429   .     S
C942   O983    1.292   .     A
C942   C945    1.429   .     S
C942   O982    1.300   .     A
C943   C945    1.396   .     A
C943   C954    1.396   .     A
C944   C955    1.396   .     A
C944   C947    1.396   .     A
C945   C948    1.400   .     A
C946   O979    1.298   .     A
C946   O978    1.298   .     A
C946   C964    1.428   .     S
C947   C949    1.400   .     A
C948   C950    1.407   .     A
C949   C951    1.407   .     A
C950   C956    1.413   .     A
C950   C952    1.424   .     A
C951   C953    1.424   .     A
C951   C958    1.413   .     A
C952   C954    1.413   .     A
C952   C431    1.406   1_556 S
C953   C955    1.413   .     A
C954   C959    1.401   .     A
C955   C957    1.401   .     A
C956   C435    1.387   1_556 S
C957   I969    2.135   .     S
C959   I970    2.135   .     S
C959   C436    1.387   1_556 S
C960   H965    1.083   .     S
C961   H966    1.083   .     S
C961   C964    1.398   .     A
C961   C1021   1.371   .     S
C962   C964    1.398   .     A
C962   H967    1.083   .     S
C962   C1018   1.371   .     S
C963   H968    1.083   .     S
N975   Zn985   2.042   .     S
N976   Zn986   2.042   .     S
O977   Zn985   2.008   .     S
O978   Zn986   2.008   .     S
O979   Zn985   2.008   .     S
O980   Zn986   2.008   .     S
O981   Zn985   2.010   .     S
O982   Zn986   2.010   .     S
O983   Zn985   2.010   .     S
O984   Zn986   2.010   .     S
Br987  C1001   1.939   .     S
Br988  C1002   1.939   .     S
Br989  C1006   1.942   .     S
Br990  C1007   1.942   .     S
Br991  C1014   1.926   .     S
Br992  C1016   1.926   .     S
C993   C994    1.428   .     S
C993   O1035   1.298   .     A
C993   O1038   1.298   .     A
C994   C1018   1.398   .     A
C994   C1021   1.398   .     A
C995   I1029   2.123   .     S
C995   N1034   1.377   .     A
C996   I1030   2.136   .     S
C996   N1033   1.375   .     A
C996   C649    1.430   1_565 S
C997   N1034   1.377   .     A
C997   I1031   2.123   .     S
C998   N1033   1.375   .     A
C998   I1032   2.136   .     S
C998   C647    1.430   1_565 S
C999   O1042   1.301   .     A
C999   O1039   1.292   .     A
C999   C1005   1.429   .     S
C1000  O1041   1.292   .     A
C1000  C1003   1.429   .     S
C1000  O1040   1.300   .     A
C1001  C1003   1.396   .     A
C1001  C1012   1.396   .     A
C1002  C1013   1.396   .     A
C1002  C1005   1.396   .     A
C1003  C1006   1.400   .     A
C1004  O1037   1.298   .     A
C1004  O1036   1.298   .     A
C1004  C1022   1.428   .     S
C1005  C1007   1.400   .     A
C1006  C1008   1.407   .     A
C1007  C1009   1.407   .     A
C1008  C1014   1.413   .     A
C1008  C1010   1.424   .     A
C1009  C1011   1.424   .     A
C1009  C1016   1.413   .     A
C1010  C1012   1.413   .     A
C1010  C489    1.406   1_556 S
C1011  C1013   1.413   .     A
C1012  C1017   1.401   .     A
C1013  C1015   1.401   .     A
C1014  C493    1.387   1_556 S
C1015  I1027   2.135   .     S
C1017  I1028   2.135   .     S
C1017  C494    1.387   1_556 S
C1018  H1023   1.083   .     S
C1019  H1024   1.083   .     S
C1019  C1022   1.398   .     A
C1019  C905    1.371   1_655 S
C1020  C1022   1.398   .     A
C1020  H1025   1.083   .     S
C1020  C902    1.371   1_655 S
C1021  H1026   1.083   .     S
N1033  Zn1043  2.042   .     S
N1034  Zn1044  2.042   .     S
O1035  Zn1043  2.008   .     S
O1036  Zn1044  2.008   .     S
O1037  Zn1043  2.008   .     S
O1038  Zn1044  2.008   .     S
O1039  Zn1043  2.010   .     S
O1040  Zn1044  2.010   .     S
O1041  Zn1043  2.010   .     S
O1042  Zn1044  2.010   .     S
