data_str_m3_o1_o1_pcu_sym.63
_audit_creation_date              2020-01-03
_audit_creation_method            'Materials Studio'
_symmetry_space_group_name_H-M    'P1'
_symmetry_Int_Tables_number       1
_symmetry_cell_setting            triclinic
loop_
_symmetry_equiv_pos_as_xyz
  x,y,z
_cell_length_a                    31.0689
_cell_length_b                    29.6737
_cell_length_c                    29.8601
_cell_angle_alpha                 90.0166
_cell_angle_beta                  89.7189
_cell_angle_gamma                 89.9992
loop_
_atom_site_label
_atom_site_type_symbol
_atom_site_fract_x
_atom_site_fract_y
_atom_site_fract_z
_atom_site_U_iso_or_equiv
_atom_site_adp_type
_atom_site_occupancy
O1     O     0.04580   0.20419   0.20487   0.00000  Uiso   1.00
O2     O     0.45419   0.29581   0.12846   0.00000  Uiso   1.00
O3     O     0.45419   0.29581   0.20487   0.00000  Uiso   1.00
O4     O     0.04580   0.20419   0.12846   0.00000  Uiso   1.00
O5     O     0.45419   0.20419   0.12846   0.00000  Uiso   1.00
O6     O     0.04580   0.29581   0.20487   0.00000  Uiso   1.00
O7     O     0.04580   0.29581   0.12846   0.00000  Uiso   1.00
O8     O     0.45419   0.20419   0.20487   0.00000  Uiso   1.00
O9     O     0.29580   0.45419   0.20487   0.00000  Uiso   1.00
O10    O     0.20419   0.04581   0.12846   0.00000  Uiso   1.00
O11    O     0.20419   0.04581   0.20487   0.00000  Uiso   1.00
O12    O     0.29580   0.45419   0.12846   0.00000  Uiso   1.00
O13    O     0.20419   0.45419   0.12846   0.00000  Uiso   1.00
O14    O     0.29580   0.04581   0.20487   0.00000  Uiso   1.00
O15    O     0.29580   0.04581   0.12846   0.00000  Uiso   1.00
O16    O     0.20419   0.45419   0.20487   0.00000  Uiso   1.00
C17    C     0.06043   0.19057   0.16660   0.00000  Uiso   1.00
C18    C     0.43958   0.30944   0.16674   0.00000  Uiso   1.00
C19    C     0.43957   0.19057   0.16673   0.00000  Uiso   1.00
C20    C     0.06042   0.30944   0.16660   0.00000  Uiso   1.00
C21    C     0.31044   0.44058   0.16659   0.00000  Uiso   1.00
C22    C     0.18957   0.05943   0.16674   0.00000  Uiso   1.00
C23    C     0.18956   0.44058   0.16673   0.00000  Uiso   1.00
C24    C     0.31043   0.05943   0.16660   0.00000  Uiso   1.00
N25    N     0.00000   0.25000   0.28573   0.00000  Uiso   1.00
N26    N     0.00000   0.25000   0.04760   0.00000  Uiso   1.00
N27    N     0.25000  -0.00000   0.28573   0.00000  Uiso   1.00
N28    N     0.25000  -0.00000   0.04760   0.00000  Uiso   1.00
Zn29   Zn   -0.00000   0.25000   0.21771   0.00000  Uiso   1.00
Zn30   Zn   -0.00000   0.25000   0.11563   0.00000  Uiso   1.00
Zn31   Zn    0.25000  -0.00000   0.21771   0.00000  Uiso   1.00
Zn32   Zn    0.25000  -0.00000   0.11563   0.00000  Uiso   1.00
C33    C     0.00013   0.28959   0.02389   0.00000  Uiso   1.00
C34    C     0.49988   0.21040   0.30944   0.00000  Uiso   1.00
C35    C     0.00019   0.21040   0.02386   0.00000  Uiso   1.00
C36    C     0.49980   0.28960   0.30948   0.00000  Uiso   1.00
C37    C     0.25012   0.03959   0.02389   0.00000  Uiso   1.00
C38    C     0.24992   0.46040   0.30944   0.00000  Uiso   1.00
C39    C     0.25018   0.46040   0.02386   0.00000  Uiso   1.00
C40    C     0.24977   0.03960   0.30948   0.00000  Uiso   1.00
C41    C     0.38632   0.14615   0.12653   0.00000  Uiso   1.00
C42    C     0.11368   0.35386   0.20681   0.00000  Uiso   1.00
C43    C     0.10597   0.36268   0.12631   0.00000  Uiso   1.00
C44    C     0.39394   0.13742   0.20705   0.00000  Uiso   1.00
C45    C     0.11377   0.14628   0.20678   0.00000  Uiso   1.00
C46    C     0.38623   0.35372   0.12656   0.00000  Uiso   1.00
C47    C     0.39415   0.36284   0.20700   0.00000  Uiso   1.00
C48    C     0.10595   0.13727   0.12631   0.00000  Uiso   1.00
C49    C     0.13626   0.39621   0.12654   0.00000  Uiso   1.00
C50    C     0.36365   0.10389   0.20681   0.00000  Uiso   1.00
C51    C     0.35603   0.11262   0.12629   0.00000  Uiso   1.00
C52    C     0.14397   0.38739   0.20704   0.00000  Uiso   1.00
C53    C     0.36385   0.39636   0.20676   0.00000  Uiso   1.00
C54    C     0.13624   0.10374   0.12655   0.00000  Uiso   1.00
C55    C     0.14407   0.11275   0.20702   0.00000  Uiso   1.00
C56    C     0.35593   0.38725   0.12631   0.00000  Uiso   1.00
H57    H     0.39413   0.16275   0.09529   0.00000  Uiso   1.00
H58    H     0.10589   0.33723   0.23804   0.00000  Uiso   1.00
H59    H     0.09201   0.35308   0.09480   0.00000  Uiso   1.00
H60    H     0.40786   0.14707   0.23857   0.00000  Uiso   1.00
H61    H     0.10603   0.16298   0.23799   0.00000  Uiso   1.00
H62    H     0.39394   0.33699   0.09535   0.00000  Uiso   1.00
H63    H     0.40821   0.35335   0.23849   0.00000  Uiso   1.00
H64    H     0.09194   0.14681   0.09481   0.00000  Uiso   1.00
H65    H     0.14404   0.41285   0.09532   0.00000  Uiso   1.00
H66    H     0.35583   0.08730   0.23806   0.00000  Uiso   1.00
H67    H     0.34211   0.10297   0.09477   0.00000  Uiso   1.00
H68    H     0.15792   0.39700   0.23856   0.00000  Uiso   1.00
H69    H     0.35616   0.41312   0.23795   0.00000  Uiso   1.00
H70    H     0.14399   0.08704   0.09534   0.00000  Uiso   1.00
H71    H     0.15808   0.10321   0.23852   0.00000  Uiso   1.00
H72    H     0.34189   0.39675   0.09482   0.00000  Uiso   1.00
C73    C     0.09406   0.34210   0.16651   0.00000  Uiso   1.00
C74    C     0.40590   0.15793   0.16683   0.00000  Uiso   1.00
C75    C     0.40595   0.34211   0.16683   0.00000  Uiso   1.00
C76    C     0.09409   0.15793   0.16650   0.00000  Uiso   1.00
C77    C     0.34407   0.09209   0.16651   0.00000  Uiso   1.00
C78    C     0.15589   0.40795   0.16683   0.00000  Uiso   1.00
C79    C     0.15592   0.09209   0.16683   0.00000  Uiso   1.00
C80    C     0.34411   0.40795   0.16649   0.00000  Uiso   1.00
N81    N     0.00182   0.33179   0.04688   0.00000  Uiso   1.00
O82    O     0.46595   0.35065   0.05917   0.00000  Uiso   1.00
O83    O     0.03515   0.35750   0.04054   0.00000  Uiso   1.00
N84    N     0.49824   0.16822   0.28645   0.00000  Uiso   1.00
O85    O     0.03414   0.14934   0.27429   0.00000  Uiso   1.00
O86    O     0.46488   0.14252   0.29265   0.00000  Uiso   1.00
N87    N     0.00190   0.16821   0.04682   0.00000  Uiso   1.00
O88    O     0.46604   0.14933   0.05908   0.00000  Uiso   1.00
O89    O     0.03523   0.14250   0.04045   0.00000  Uiso   1.00
N90    N     0.49804   0.33179   0.28652   0.00000  Uiso   1.00
O91    O     0.03387   0.35065   0.27414   0.00000  Uiso   1.00
O92    O     0.46474   0.35752   0.29301   0.00000  Uiso   1.00
N93    N     0.25181   0.08178   0.04688   0.00000  Uiso   1.00
O94    O     0.21594   0.10067   0.05912   0.00000  Uiso   1.00
O95    O     0.28516   0.10748   0.04060   0.00000  Uiso   1.00
N96    N     0.24843   0.41822   0.28644   0.00000  Uiso   1.00
O97    O     0.28440   0.39938   0.27447   0.00000  Uiso   1.00
O98    O     0.21507   0.39248   0.29248   0.00000  Uiso   1.00
N99    N     0.25177   0.41821   0.04682   0.00000  Uiso   1.00
O100   O     0.21585   0.39937   0.05893   0.00000  Uiso   1.00
O101   O     0.28510   0.39246   0.04059   0.00000  Uiso   1.00
N102   N     0.24799   0.08179   0.28652   0.00000  Uiso   1.00
O103   O     0.28382   0.10068   0.27415   0.00000  Uiso   1.00
O104   O     0.21468   0.10749   0.29299   0.00000  Uiso   1.00
O105   O     0.54580   0.20419   0.20487   0.00000  Uiso   1.00
O106   O     0.95419   0.29581   0.12846   0.00000  Uiso   1.00
O107   O     0.95419   0.29581   0.20487   0.00000  Uiso   1.00
O108   O     0.54580   0.20419   0.12846   0.00000  Uiso   1.00
O109   O     0.95419   0.20419   0.12846   0.00000  Uiso   1.00
O110   O     0.54580   0.29581   0.20487   0.00000  Uiso   1.00
O111   O     0.54580   0.29581   0.12846   0.00000  Uiso   1.00
O112   O     0.95419   0.20419   0.20487   0.00000  Uiso   1.00
O113   O     0.79580   0.45419   0.20487   0.00000  Uiso   1.00
O114   O     0.70419   0.04581   0.12846   0.00000  Uiso   1.00
O115   O     0.70419   0.04581   0.20487   0.00000  Uiso   1.00
O116   O     0.79580   0.45419   0.12846   0.00000  Uiso   1.00
O117   O     0.70419   0.45419   0.12846   0.00000  Uiso   1.00
O118   O     0.79580   0.04581   0.20487   0.00000  Uiso   1.00
O119   O     0.79580   0.04581   0.12846   0.00000  Uiso   1.00
O120   O     0.70419   0.45419   0.20487   0.00000  Uiso   1.00
C121   C     0.56043   0.19057   0.16660   0.00000  Uiso   1.00
C122   C     0.93958   0.30944   0.16674   0.00000  Uiso   1.00
C123   C     0.93957   0.19057   0.16673   0.00000  Uiso   1.00
C124   C     0.56042   0.30944   0.16660   0.00000  Uiso   1.00
C125   C     0.81044   0.44058   0.16659   0.00000  Uiso   1.00
C126   C     0.68957   0.05943   0.16674   0.00000  Uiso   1.00
C127   C     0.68956   0.44058   0.16673   0.00000  Uiso   1.00
C128   C     0.81043   0.05943   0.16660   0.00000  Uiso   1.00
N129   N     0.50000   0.25000   0.28573   0.00000  Uiso   1.00
N130   N     0.50000   0.25000   0.04760   0.00000  Uiso   1.00
N131   N     0.75000  -0.00000   0.28573   0.00000  Uiso   1.00
N132   N     0.75000  -0.00000   0.04760   0.00000  Uiso   1.00
Zn133  Zn    0.50000   0.25000   0.21771   0.00000  Uiso   1.00
Zn134  Zn    0.50000   0.25000   0.11563   0.00000  Uiso   1.00
Zn135  Zn    0.75000  -0.00000   0.21771   0.00000  Uiso   1.00
Zn136  Zn    0.75000  -0.00000   0.11563   0.00000  Uiso   1.00
C137   C     0.50013   0.28959   0.02389   0.00000  Uiso   1.00
C138   C     0.99988   0.21040   0.30944   0.00000  Uiso   1.00
C139   C     0.50019   0.21040   0.02386   0.00000  Uiso   1.00
C140   C     0.99980   0.28960   0.30948   0.00000  Uiso   1.00
C141   C     0.75012   0.03959   0.02389   0.00000  Uiso   1.00
C142   C     0.74992   0.46040   0.30944   0.00000  Uiso   1.00
C143   C     0.75018   0.46040   0.02386   0.00000  Uiso   1.00
C144   C     0.74977   0.03960   0.30948   0.00000  Uiso   1.00
C145   C     0.88632   0.14615   0.12653   0.00000  Uiso   1.00
C146   C     0.61368   0.35386   0.20681   0.00000  Uiso   1.00
C147   C     0.60597   0.36268   0.12631   0.00000  Uiso   1.00
C148   C     0.89394   0.13742   0.20705   0.00000  Uiso   1.00
C149   C     0.61377   0.14628   0.20678   0.00000  Uiso   1.00
C150   C     0.88623   0.35372   0.12656   0.00000  Uiso   1.00
C151   C     0.89415   0.36284   0.20700   0.00000  Uiso   1.00
C152   C     0.60595   0.13727   0.12631   0.00000  Uiso   1.00
C153   C     0.63626   0.39621   0.12654   0.00000  Uiso   1.00
C154   C     0.86365   0.10389   0.20681   0.00000  Uiso   1.00
C155   C     0.85603   0.11262   0.12629   0.00000  Uiso   1.00
C156   C     0.64397   0.38739   0.20704   0.00000  Uiso   1.00
C157   C     0.86385   0.39636   0.20676   0.00000  Uiso   1.00
C158   C     0.63624   0.10374   0.12655   0.00000  Uiso   1.00
C159   C     0.64407   0.11275   0.20702   0.00000  Uiso   1.00
C160   C     0.85593   0.38725   0.12631   0.00000  Uiso   1.00
H161   H     0.89413   0.16275   0.09529   0.00000  Uiso   1.00
H162   H     0.60589   0.33723   0.23804   0.00000  Uiso   1.00
H163   H     0.59201   0.35308   0.09480   0.00000  Uiso   1.00
H164   H     0.90786   0.14707   0.23857   0.00000  Uiso   1.00
H165   H     0.60603   0.16298   0.23799   0.00000  Uiso   1.00
H166   H     0.89394   0.33699   0.09535   0.00000  Uiso   1.00
H167   H     0.90821   0.35335   0.23849   0.00000  Uiso   1.00
H168   H     0.59194   0.14681   0.09481   0.00000  Uiso   1.00
H169   H     0.64404   0.41285   0.09532   0.00000  Uiso   1.00
H170   H     0.85583   0.08730   0.23806   0.00000  Uiso   1.00
H171   H     0.84211   0.10297   0.09477   0.00000  Uiso   1.00
H172   H     0.65792   0.39700   0.23856   0.00000  Uiso   1.00
H173   H     0.85616   0.41312   0.23795   0.00000  Uiso   1.00
H174   H     0.64399   0.08704   0.09534   0.00000  Uiso   1.00
H175   H     0.65808   0.10321   0.23852   0.00000  Uiso   1.00
H176   H     0.84189   0.39675   0.09482   0.00000  Uiso   1.00
C177   C     0.59406   0.34210   0.16651   0.00000  Uiso   1.00
C178   C     0.90590   0.15793   0.16683   0.00000  Uiso   1.00
C179   C     0.90595   0.34211   0.16683   0.00000  Uiso   1.00
C180   C     0.59409   0.15793   0.16650   0.00000  Uiso   1.00
C181   C     0.84407   0.09209   0.16651   0.00000  Uiso   1.00
C182   C     0.65589   0.40795   0.16683   0.00000  Uiso   1.00
C183   C     0.65592   0.09209   0.16683   0.00000  Uiso   1.00
C184   C     0.84411   0.40795   0.16649   0.00000  Uiso   1.00
N185   N     0.50182   0.33179   0.04688   0.00000  Uiso   1.00
O186   O     0.96595   0.35065   0.05917   0.00000  Uiso   1.00
O187   O     0.53515   0.35750   0.04054   0.00000  Uiso   1.00
N188   N     0.99824   0.16822   0.28645   0.00000  Uiso   1.00
O189   O     0.53414   0.14934   0.27429   0.00000  Uiso   1.00
O190   O     0.96488   0.14252   0.29265   0.00000  Uiso   1.00
N191   N     0.50190   0.16821   0.04682   0.00000  Uiso   1.00
O192   O     0.96604   0.14933   0.05908   0.00000  Uiso   1.00
O193   O     0.53523   0.14250   0.04045   0.00000  Uiso   1.00
N194   N     0.99804   0.33179   0.28652   0.00000  Uiso   1.00
O195   O     0.53387   0.35065   0.27414   0.00000  Uiso   1.00
O196   O     0.96474   0.35752   0.29301   0.00000  Uiso   1.00
N197   N     0.75181   0.08178   0.04688   0.00000  Uiso   1.00
O198   O     0.71594   0.10067   0.05912   0.00000  Uiso   1.00
O199   O     0.78516   0.10748   0.04060   0.00000  Uiso   1.00
N200   N     0.74843   0.41822   0.28644   0.00000  Uiso   1.00
O201   O     0.78440   0.39938   0.27447   0.00000  Uiso   1.00
O202   O     0.71507   0.39248   0.29248   0.00000  Uiso   1.00
N203   N     0.75177   0.41821   0.04682   0.00000  Uiso   1.00
O204   O     0.71585   0.39937   0.05893   0.00000  Uiso   1.00
O205   O     0.78510   0.39246   0.04059   0.00000  Uiso   1.00
N206   N     0.74799   0.08179   0.28652   0.00000  Uiso   1.00
O207   O     0.78382   0.10068   0.27415   0.00000  Uiso   1.00
O208   O     0.71468   0.10749   0.29299   0.00000  Uiso   1.00
O209   O     0.04580   0.70419   0.20487   0.00000  Uiso   1.00
O210   O     0.45419   0.79581   0.12846   0.00000  Uiso   1.00
O211   O     0.45419   0.79581   0.20487   0.00000  Uiso   1.00
O212   O     0.04580   0.70419   0.12846   0.00000  Uiso   1.00
O213   O     0.45419   0.70419   0.12846   0.00000  Uiso   1.00
O214   O     0.04580   0.79581   0.20487   0.00000  Uiso   1.00
O215   O     0.04580   0.79581   0.12846   0.00000  Uiso   1.00
O216   O     0.45419   0.70419   0.20487   0.00000  Uiso   1.00
O217   O     0.29580   0.95419   0.20487   0.00000  Uiso   1.00
O218   O     0.20419   0.54581   0.12846   0.00000  Uiso   1.00
O219   O     0.20419   0.54581   0.20487   0.00000  Uiso   1.00
O220   O     0.29580   0.95419   0.12846   0.00000  Uiso   1.00
O221   O     0.20419   0.95419   0.12846   0.00000  Uiso   1.00
O222   O     0.29580   0.54581   0.20487   0.00000  Uiso   1.00
O223   O     0.29580   0.54581   0.12846   0.00000  Uiso   1.00
O224   O     0.20419   0.95419   0.20487   0.00000  Uiso   1.00
C225   C     0.06043   0.69057   0.16660   0.00000  Uiso   1.00
C226   C     0.43958   0.80944   0.16674   0.00000  Uiso   1.00
C227   C     0.43957   0.69057   0.16673   0.00000  Uiso   1.00
C228   C     0.06042   0.80944   0.16660   0.00000  Uiso   1.00
C229   C     0.31044   0.94058   0.16659   0.00000  Uiso   1.00
C230   C     0.18957   0.55943   0.16674   0.00000  Uiso   1.00
C231   C     0.18956   0.94058   0.16673   0.00000  Uiso   1.00
C232   C     0.31043   0.55943   0.16660   0.00000  Uiso   1.00
N233   N     0.00000   0.75000   0.28573   0.00000  Uiso   1.00
N234   N     0.00000   0.75000   0.04760   0.00000  Uiso   1.00
N235   N     0.25000   0.50000   0.28573   0.00000  Uiso   1.00
N236   N     0.25000   0.50000   0.04760   0.00000  Uiso   1.00
Zn237  Zn   -0.00000   0.75000   0.21771   0.00000  Uiso   1.00
Zn238  Zn   -0.00000   0.75000   0.11563   0.00000  Uiso   1.00
Zn239  Zn    0.25000   0.50000   0.21771   0.00000  Uiso   1.00
Zn240  Zn    0.25000   0.50000   0.11563   0.00000  Uiso   1.00
C241   C     0.00013   0.78959   0.02389   0.00000  Uiso   1.00
C242   C     0.49988   0.71040   0.30944   0.00000  Uiso   1.00
C243   C     0.00019   0.71040   0.02386   0.00000  Uiso   1.00
C244   C     0.49980   0.78960   0.30948   0.00000  Uiso   1.00
C245   C     0.25012   0.53959   0.02389   0.00000  Uiso   1.00
C246   C     0.24992   0.96040   0.30944   0.00000  Uiso   1.00
C247   C     0.25018   0.96040   0.02386   0.00000  Uiso   1.00
C248   C     0.24977   0.53960   0.30948   0.00000  Uiso   1.00
C249   C     0.38632   0.64615   0.12653   0.00000  Uiso   1.00
C250   C     0.11368   0.85386   0.20681   0.00000  Uiso   1.00
C251   C     0.10597   0.86268   0.12631   0.00000  Uiso   1.00
C252   C     0.39394   0.63742   0.20705   0.00000  Uiso   1.00
C253   C     0.11377   0.64628   0.20678   0.00000  Uiso   1.00
C254   C     0.38623   0.85372   0.12656   0.00000  Uiso   1.00
C255   C     0.39415   0.86284   0.20700   0.00000  Uiso   1.00
C256   C     0.10595   0.63727   0.12631   0.00000  Uiso   1.00
C257   C     0.13626   0.89621   0.12654   0.00000  Uiso   1.00
C258   C     0.36365   0.60389   0.20681   0.00000  Uiso   1.00
C259   C     0.35603   0.61262   0.12629   0.00000  Uiso   1.00
C260   C     0.14397   0.88739   0.20704   0.00000  Uiso   1.00
C261   C     0.36385   0.89636   0.20676   0.00000  Uiso   1.00
C262   C     0.13624   0.60374   0.12655   0.00000  Uiso   1.00
C263   C     0.14407   0.61275   0.20702   0.00000  Uiso   1.00
C264   C     0.35593   0.88725   0.12631   0.00000  Uiso   1.00
H265   H     0.39413   0.66275   0.09529   0.00000  Uiso   1.00
H266   H     0.10589   0.83723   0.23804   0.00000  Uiso   1.00
H267   H     0.09201   0.85308   0.09480   0.00000  Uiso   1.00
H268   H     0.40786   0.64707   0.23857   0.00000  Uiso   1.00
H269   H     0.10603   0.66298   0.23799   0.00000  Uiso   1.00
H270   H     0.39394   0.83699   0.09535   0.00000  Uiso   1.00
H271   H     0.40821   0.85335   0.23849   0.00000  Uiso   1.00
H272   H     0.09194   0.64681   0.09481   0.00000  Uiso   1.00
H273   H     0.14404   0.91285   0.09532   0.00000  Uiso   1.00
H274   H     0.35583   0.58730   0.23806   0.00000  Uiso   1.00
H275   H     0.34211   0.60297   0.09477   0.00000  Uiso   1.00
H276   H     0.15792   0.89700   0.23856   0.00000  Uiso   1.00
H277   H     0.35616   0.91312   0.23795   0.00000  Uiso   1.00
H278   H     0.14399   0.58704   0.09534   0.00000  Uiso   1.00
H279   H     0.15808   0.60321   0.23852   0.00000  Uiso   1.00
H280   H     0.34189   0.89675   0.09482   0.00000  Uiso   1.00
C281   C     0.09406   0.84210   0.16651   0.00000  Uiso   1.00
C282   C     0.40590   0.65793   0.16683   0.00000  Uiso   1.00
C283   C     0.40595   0.84211   0.16683   0.00000  Uiso   1.00
C284   C     0.09409   0.65793   0.16650   0.00000  Uiso   1.00
C285   C     0.34407   0.59209   0.16651   0.00000  Uiso   1.00
C286   C     0.15589   0.90795   0.16683   0.00000  Uiso   1.00
C287   C     0.15592   0.59209   0.16683   0.00000  Uiso   1.00
C288   C     0.34411   0.90795   0.16649   0.00000  Uiso   1.00
N289   N     0.00182   0.83179   0.04688   0.00000  Uiso   1.00
O290   O     0.46595   0.85065   0.05917   0.00000  Uiso   1.00
O291   O     0.03515   0.85750   0.04054   0.00000  Uiso   1.00
N292   N     0.49824   0.66822   0.28645   0.00000  Uiso   1.00
O293   O     0.03414   0.64934   0.27429   0.00000  Uiso   1.00
O294   O     0.46488   0.64252   0.29265   0.00000  Uiso   1.00
N295   N     0.00190   0.66821   0.04682   0.00000  Uiso   1.00
O296   O     0.46604   0.64933   0.05908   0.00000  Uiso   1.00
O297   O     0.03523   0.64250   0.04045   0.00000  Uiso   1.00
N298   N     0.49804   0.83179   0.28652   0.00000  Uiso   1.00
O299   O     0.03387   0.85065   0.27414   0.00000  Uiso   1.00
O300   O     0.46474   0.85752   0.29301   0.00000  Uiso   1.00
N301   N     0.25181   0.58178   0.04688   0.00000  Uiso   1.00
O302   O     0.21594   0.60067   0.05912   0.00000  Uiso   1.00
O303   O     0.28516   0.60748   0.04060   0.00000  Uiso   1.00
N304   N     0.24843   0.91822   0.28644   0.00000  Uiso   1.00
O305   O     0.28440   0.89938   0.27447   0.00000  Uiso   1.00
O306   O     0.21507   0.89248   0.29248   0.00000  Uiso   1.00
N307   N     0.25177   0.91821   0.04682   0.00000  Uiso   1.00
O308   O     0.21585   0.89937   0.05893   0.00000  Uiso   1.00
O309   O     0.28510   0.89246   0.04059   0.00000  Uiso   1.00
N310   N     0.24799   0.58179   0.28652   0.00000  Uiso   1.00
O311   O     0.28382   0.60068   0.27415   0.00000  Uiso   1.00
O312   O     0.21468   0.60749   0.29299   0.00000  Uiso   1.00
O313   O     0.54580   0.70419   0.20487   0.00000  Uiso   1.00
O314   O     0.95419   0.79581   0.12846   0.00000  Uiso   1.00
O315   O     0.95419   0.79581   0.20487   0.00000  Uiso   1.00
O316   O     0.54580   0.70419   0.12846   0.00000  Uiso   1.00
O317   O     0.95419   0.70419   0.12846   0.00000  Uiso   1.00
O318   O     0.54580   0.79581   0.20487   0.00000  Uiso   1.00
O319   O     0.54580   0.79581   0.12846   0.00000  Uiso   1.00
O320   O     0.95419   0.70419   0.20487   0.00000  Uiso   1.00
O321   O     0.79580   0.95419   0.20487   0.00000  Uiso   1.00
O322   O     0.70419   0.54581   0.12846   0.00000  Uiso   1.00
O323   O     0.70419   0.54581   0.20487   0.00000  Uiso   1.00
O324   O     0.79580   0.95419   0.12846   0.00000  Uiso   1.00
O325   O     0.70419   0.95419   0.12846   0.00000  Uiso   1.00
O326   O     0.79580   0.54581   0.20487   0.00000  Uiso   1.00
O327   O     0.79580   0.54581   0.12846   0.00000  Uiso   1.00
O328   O     0.70419   0.95419   0.20487   0.00000  Uiso   1.00
C329   C     0.56043   0.69057   0.16660   0.00000  Uiso   1.00
C330   C     0.93958   0.80944   0.16674   0.00000  Uiso   1.00
C331   C     0.93957   0.69057   0.16673   0.00000  Uiso   1.00
C332   C     0.56042   0.80944   0.16660   0.00000  Uiso   1.00
C333   C     0.81044   0.94058   0.16659   0.00000  Uiso   1.00
C334   C     0.68957   0.55943   0.16674   0.00000  Uiso   1.00
C335   C     0.68956   0.94058   0.16673   0.00000  Uiso   1.00
C336   C     0.81043   0.55943   0.16660   0.00000  Uiso   1.00
N337   N     0.50000   0.75000   0.28573   0.00000  Uiso   1.00
N338   N     0.50000   0.75000   0.04760   0.00000  Uiso   1.00
N339   N     0.75000   0.50000   0.28573   0.00000  Uiso   1.00
N340   N     0.75000   0.50000   0.04760   0.00000  Uiso   1.00
Zn341  Zn    0.50000   0.75000   0.21771   0.00000  Uiso   1.00
Zn342  Zn    0.50000   0.75000   0.11563   0.00000  Uiso   1.00
Zn343  Zn    0.75000   0.50000   0.21771   0.00000  Uiso   1.00
Zn344  Zn    0.75000   0.50000   0.11563   0.00000  Uiso   1.00
C345   C     0.50013   0.78959   0.02389   0.00000  Uiso   1.00
C346   C     0.99988   0.71040   0.30944   0.00000  Uiso   1.00
C347   C     0.50019   0.71040   0.02386   0.00000  Uiso   1.00
C348   C     0.99980   0.78960   0.30948   0.00000  Uiso   1.00
C349   C     0.75012   0.53959   0.02389   0.00000  Uiso   1.00
C350   C     0.74992   0.96040   0.30944   0.00000  Uiso   1.00
C351   C     0.75018   0.96040   0.02386   0.00000  Uiso   1.00
C352   C     0.74977   0.53960   0.30948   0.00000  Uiso   1.00
C353   C     0.88632   0.64615   0.12653   0.00000  Uiso   1.00
C354   C     0.61368   0.85386   0.20681   0.00000  Uiso   1.00
C355   C     0.60597   0.86268   0.12631   0.00000  Uiso   1.00
C356   C     0.89394   0.63742   0.20705   0.00000  Uiso   1.00
C357   C     0.61377   0.64628   0.20678   0.00000  Uiso   1.00
C358   C     0.88623   0.85372   0.12656   0.00000  Uiso   1.00
C359   C     0.89415   0.86284   0.20700   0.00000  Uiso   1.00
C360   C     0.60595   0.63727   0.12631   0.00000  Uiso   1.00
C361   C     0.63626   0.89621   0.12654   0.00000  Uiso   1.00
C362   C     0.86365   0.60389   0.20681   0.00000  Uiso   1.00
C363   C     0.85603   0.61262   0.12629   0.00000  Uiso   1.00
C364   C     0.64397   0.88739   0.20704   0.00000  Uiso   1.00
C365   C     0.86385   0.89636   0.20676   0.00000  Uiso   1.00
C366   C     0.63624   0.60374   0.12655   0.00000  Uiso   1.00
C367   C     0.64407   0.61275   0.20702   0.00000  Uiso   1.00
C368   C     0.85593   0.88725   0.12631   0.00000  Uiso   1.00
H369   H     0.89413   0.66275   0.09529   0.00000  Uiso   1.00
H370   H     0.60589   0.83723   0.23804   0.00000  Uiso   1.00
H371   H     0.59201   0.85308   0.09480   0.00000  Uiso   1.00
H372   H     0.90786   0.64707   0.23857   0.00000  Uiso   1.00
H373   H     0.60603   0.66298   0.23799   0.00000  Uiso   1.00
H374   H     0.89394   0.83699   0.09535   0.00000  Uiso   1.00
H375   H     0.90821   0.85335   0.23849   0.00000  Uiso   1.00
H376   H     0.59194   0.64681   0.09481   0.00000  Uiso   1.00
H377   H     0.64404   0.91285   0.09532   0.00000  Uiso   1.00
H378   H     0.85583   0.58730   0.23806   0.00000  Uiso   1.00
H379   H     0.84211   0.60297   0.09477   0.00000  Uiso   1.00
H380   H     0.65792   0.89700   0.23856   0.00000  Uiso   1.00
H381   H     0.85616   0.91312   0.23795   0.00000  Uiso   1.00
H382   H     0.64399   0.58704   0.09534   0.00000  Uiso   1.00
H383   H     0.65808   0.60321   0.23852   0.00000  Uiso   1.00
H384   H     0.84189   0.89675   0.09482   0.00000  Uiso   1.00
C385   C     0.59406   0.84210   0.16651   0.00000  Uiso   1.00
C386   C     0.90590   0.65793   0.16683   0.00000  Uiso   1.00
C387   C     0.90595   0.84211   0.16683   0.00000  Uiso   1.00
C388   C     0.59409   0.65793   0.16650   0.00000  Uiso   1.00
C389   C     0.84407   0.59209   0.16651   0.00000  Uiso   1.00
C390   C     0.65589   0.90795   0.16683   0.00000  Uiso   1.00
C391   C     0.65592   0.59209   0.16683   0.00000  Uiso   1.00
C392   C     0.84411   0.90795   0.16649   0.00000  Uiso   1.00
N393   N     0.50182   0.83179   0.04688   0.00000  Uiso   1.00
O394   O     0.96595   0.85065   0.05917   0.00000  Uiso   1.00
O395   O     0.53515   0.85750   0.04054   0.00000  Uiso   1.00
N396   N     0.99824   0.66822   0.28645   0.00000  Uiso   1.00
O397   O     0.53414   0.64934   0.27429   0.00000  Uiso   1.00
O398   O     0.96488   0.64252   0.29265   0.00000  Uiso   1.00
N399   N     0.50190   0.66821   0.04682   0.00000  Uiso   1.00
O400   O     0.96604   0.64933   0.05908   0.00000  Uiso   1.00
O401   O     0.53523   0.64250   0.04045   0.00000  Uiso   1.00
N402   N     0.99804   0.83179   0.28652   0.00000  Uiso   1.00
O403   O     0.53387   0.85065   0.27414   0.00000  Uiso   1.00
O404   O     0.96474   0.85752   0.29301   0.00000  Uiso   1.00
N405   N     0.75181   0.58178   0.04688   0.00000  Uiso   1.00
O406   O     0.71594   0.60067   0.05912   0.00000  Uiso   1.00
O407   O     0.78516   0.60748   0.04060   0.00000  Uiso   1.00
N408   N     0.74843   0.91822   0.28644   0.00000  Uiso   1.00
O409   O     0.78440   0.89938   0.27447   0.00000  Uiso   1.00
O410   O     0.71507   0.89248   0.29248   0.00000  Uiso   1.00
N411   N     0.75177   0.91821   0.04682   0.00000  Uiso   1.00
O412   O     0.71585   0.89937   0.05893   0.00000  Uiso   1.00
O413   O     0.78510   0.89246   0.04059   0.00000  Uiso   1.00
N414   N     0.74799   0.58179   0.28652   0.00000  Uiso   1.00
O415   O     0.78382   0.60068   0.27415   0.00000  Uiso   1.00
O416   O     0.71468   0.60749   0.29299   0.00000  Uiso   1.00
O417   O     0.04580   0.20419   0.53821   0.00000  Uiso   1.00
O418   O     0.45419   0.29581   0.46179   0.00000  Uiso   1.00
O419   O     0.45419   0.29581   0.53821   0.00000  Uiso   1.00
O420   O     0.04580   0.20419   0.46179   0.00000  Uiso   1.00
O421   O     0.45419   0.20419   0.46179   0.00000  Uiso   1.00
O422   O     0.04580   0.29581   0.53821   0.00000  Uiso   1.00
O423   O     0.04580   0.29581   0.46179   0.00000  Uiso   1.00
O424   O     0.45419   0.20419   0.53821   0.00000  Uiso   1.00
O425   O     0.29580   0.45419   0.53821   0.00000  Uiso   1.00
O426   O     0.20419   0.04581   0.46179   0.00000  Uiso   1.00
O427   O     0.20419   0.04581   0.53821   0.00000  Uiso   1.00
O428   O     0.29580   0.45419   0.46179   0.00000  Uiso   1.00
O429   O     0.20419   0.45419   0.46179   0.00000  Uiso   1.00
O430   O     0.29580   0.04581   0.53821   0.00000  Uiso   1.00
O431   O     0.29580   0.04581   0.46179   0.00000  Uiso   1.00
O432   O     0.20419   0.45419   0.53821   0.00000  Uiso   1.00
C433   C     0.06043   0.19057   0.49993   0.00000  Uiso   1.00
C434   C     0.43958   0.30944   0.50007   0.00000  Uiso   1.00
C435   C     0.43957   0.19057   0.50007   0.00000  Uiso   1.00
C436   C     0.06042   0.30944   0.49994   0.00000  Uiso   1.00
C437   C     0.31044   0.44058   0.49993   0.00000  Uiso   1.00
C438   C     0.18957   0.05943   0.50007   0.00000  Uiso   1.00
C439   C     0.18956   0.44058   0.50007   0.00000  Uiso   1.00
C440   C     0.31043   0.05943   0.49994   0.00000  Uiso   1.00
N441   N     0.00000   0.25000   0.61907   0.00000  Uiso   1.00
N442   N     0.00000   0.25000   0.38093   0.00000  Uiso   1.00
N443   N     0.25000  -0.00000   0.61907   0.00000  Uiso   1.00
N444   N     0.25000  -0.00000   0.38093   0.00000  Uiso   1.00
Zn445  Zn   -0.00000   0.25000   0.55104   0.00000  Uiso   1.00
Zn446  Zn   -0.00000   0.25000   0.44896   0.00000  Uiso   1.00
Zn447  Zn    0.25000  -0.00000   0.55104   0.00000  Uiso   1.00
Zn448  Zn    0.25000  -0.00000   0.44896   0.00000  Uiso   1.00
C449   C     0.00013   0.28959   0.35722   0.00000  Uiso   1.00
C450   C     0.49988   0.21040   0.64278   0.00000  Uiso   1.00
C451   C     0.00019   0.21040   0.35719   0.00000  Uiso   1.00
C452   C     0.49980   0.28960   0.64281   0.00000  Uiso   1.00
C453   C     0.25012   0.03959   0.35722   0.00000  Uiso   1.00
C454   C     0.24992   0.46040   0.64278   0.00000  Uiso   1.00
C455   C     0.25018   0.46040   0.35719   0.00000  Uiso   1.00
C456   C     0.24977   0.03960   0.64281   0.00000  Uiso   1.00
C457   C     0.38632   0.14615   0.45986   0.00000  Uiso   1.00
C458   C     0.11368   0.35386   0.54014   0.00000  Uiso   1.00
C459   C     0.10597   0.36268   0.45964   0.00000  Uiso   1.00
C460   C     0.39394   0.13742   0.54038   0.00000  Uiso   1.00
C461   C     0.11377   0.14628   0.54011   0.00000  Uiso   1.00
C462   C     0.38623   0.35372   0.45989   0.00000  Uiso   1.00
C463   C     0.39415   0.36284   0.54034   0.00000  Uiso   1.00
C464   C     0.10595   0.13727   0.45964   0.00000  Uiso   1.00
C465   C     0.13626   0.39621   0.45988   0.00000  Uiso   1.00
C466   C     0.36365   0.10389   0.54015   0.00000  Uiso   1.00
C467   C     0.35603   0.11262   0.45963   0.00000  Uiso   1.00
C468   C     0.14397   0.38739   0.54038   0.00000  Uiso   1.00
C469   C     0.36385   0.39636   0.54009   0.00000  Uiso   1.00
C470   C     0.13624   0.10374   0.45988   0.00000  Uiso   1.00
C471   C     0.14407   0.11275   0.54035   0.00000  Uiso   1.00
C472   C     0.35593   0.38725   0.45964   0.00000  Uiso   1.00
H473   H     0.39413   0.16275   0.42862   0.00000  Uiso   1.00
H474   H     0.10589   0.33723   0.57137   0.00000  Uiso   1.00
H475   H     0.09201   0.35308   0.42813   0.00000  Uiso   1.00
H476   H     0.40786   0.14707   0.57190   0.00000  Uiso   1.00
H477   H     0.10603   0.16298   0.57132   0.00000  Uiso   1.00
H478   H     0.39394   0.33699   0.42869   0.00000  Uiso   1.00
H479   H     0.40821   0.35335   0.57183   0.00000  Uiso   1.00
H480   H     0.09194   0.14681   0.42814   0.00000  Uiso   1.00
H481   H     0.14404   0.41285   0.42865   0.00000  Uiso   1.00
H482   H     0.35583   0.08730   0.57139   0.00000  Uiso   1.00
H483   H     0.34211   0.10297   0.42811   0.00000  Uiso   1.00
H484   H     0.15792   0.39700   0.57189   0.00000  Uiso   1.00
H485   H     0.35616   0.41312   0.57129   0.00000  Uiso   1.00
H486   H     0.14399   0.08704   0.42867   0.00000  Uiso   1.00
H487   H     0.15808   0.10321   0.57185   0.00000  Uiso   1.00
H488   H     0.34189   0.39675   0.42815   0.00000  Uiso   1.00
C489   C     0.09406   0.34210   0.49984   0.00000  Uiso   1.00
C490   C     0.40590   0.15793   0.50016   0.00000  Uiso   1.00
C491   C     0.40595   0.34211   0.50016   0.00000  Uiso   1.00
C492   C     0.09409   0.15793   0.49983   0.00000  Uiso   1.00
C493   C     0.34407   0.09209   0.49984   0.00000  Uiso   1.00
C494   C     0.15589   0.40795   0.50017   0.00000  Uiso   1.00
C495   C     0.15592   0.09209   0.50017   0.00000  Uiso   1.00
C496   C     0.34411   0.40795   0.49982   0.00000  Uiso   1.00
N497   N     0.00182   0.33179   0.38021   0.00000  Uiso   1.00
O498   O     0.46595   0.35065   0.39250   0.00000  Uiso   1.00
O499   O     0.03515   0.35750   0.37388   0.00000  Uiso   1.00
N500   N     0.49824   0.16822   0.61978   0.00000  Uiso   1.00
O501   O     0.03414   0.14934   0.60762   0.00000  Uiso   1.00
O502   O     0.46488   0.14252   0.62599   0.00000  Uiso   1.00
N503   N     0.00190   0.16821   0.38015   0.00000  Uiso   1.00
O504   O     0.46604   0.14933   0.39241   0.00000  Uiso   1.00
O505   O     0.03523   0.14250   0.37379   0.00000  Uiso   1.00
N506   N     0.49804   0.33179   0.61986   0.00000  Uiso   1.00
O507   O     0.03387   0.35065   0.60747   0.00000  Uiso   1.00
O508   O     0.46474   0.35752   0.62634   0.00000  Uiso   1.00
N509   N     0.25181   0.08178   0.38022   0.00000  Uiso   1.00
O510   O     0.21594   0.10067   0.39245   0.00000  Uiso   1.00
O511   O     0.28516   0.10748   0.37393   0.00000  Uiso   1.00
N512   N     0.24843   0.41822   0.61977   0.00000  Uiso   1.00
O513   O     0.28440   0.39938   0.60781   0.00000  Uiso   1.00
O514   O     0.21507   0.39248   0.62581   0.00000  Uiso   1.00
N515   N     0.25177   0.41821   0.38016   0.00000  Uiso   1.00
O516   O     0.21585   0.39937   0.39227   0.00000  Uiso   1.00
O517   O     0.28510   0.39246   0.37392   0.00000  Uiso   1.00
N518   N     0.24799   0.08179   0.61986   0.00000  Uiso   1.00
O519   O     0.28382   0.10068   0.60748   0.00000  Uiso   1.00
O520   O     0.21468   0.10749   0.62632   0.00000  Uiso   1.00
O521   O     0.54580   0.20419   0.53821   0.00000  Uiso   1.00
O522   O     0.95419   0.29581   0.46179   0.00000  Uiso   1.00
O523   O     0.95419   0.29581   0.53821   0.00000  Uiso   1.00
O524   O     0.54580   0.20419   0.46179   0.00000  Uiso   1.00
O525   O     0.95419   0.20419   0.46179   0.00000  Uiso   1.00
O526   O     0.54580   0.29581   0.53821   0.00000  Uiso   1.00
O527   O     0.54580   0.29581   0.46179   0.00000  Uiso   1.00
O528   O     0.95419   0.20419   0.53821   0.00000  Uiso   1.00
O529   O     0.79580   0.45419   0.53821   0.00000  Uiso   1.00
O530   O     0.70419   0.04581   0.46179   0.00000  Uiso   1.00
O531   O     0.70419   0.04581   0.53821   0.00000  Uiso   1.00
O532   O     0.79580   0.45419   0.46179   0.00000  Uiso   1.00
O533   O     0.70419   0.45419   0.46179   0.00000  Uiso   1.00
O534   O     0.79580   0.04581   0.53821   0.00000  Uiso   1.00
O535   O     0.79580   0.04581   0.46179   0.00000  Uiso   1.00
O536   O     0.70419   0.45419   0.53821   0.00000  Uiso   1.00
C537   C     0.56043   0.19057   0.49993   0.00000  Uiso   1.00
C538   C     0.93958   0.30944   0.50007   0.00000  Uiso   1.00
C539   C     0.93957   0.19057   0.50007   0.00000  Uiso   1.00
C540   C     0.56042   0.30944   0.49994   0.00000  Uiso   1.00
C541   C     0.81044   0.44058   0.49993   0.00000  Uiso   1.00
C542   C     0.68957   0.05943   0.50007   0.00000  Uiso   1.00
C543   C     0.68956   0.44058   0.50007   0.00000  Uiso   1.00
C544   C     0.81043   0.05943   0.49994   0.00000  Uiso   1.00
N545   N     0.50000   0.25000   0.61907   0.00000  Uiso   1.00
N546   N     0.50000   0.25000   0.38093   0.00000  Uiso   1.00
N547   N     0.75000  -0.00000   0.61907   0.00000  Uiso   1.00
N548   N     0.75000  -0.00000   0.38093   0.00000  Uiso   1.00
Zn549  Zn    0.50000   0.25000   0.55104   0.00000  Uiso   1.00
Zn550  Zn    0.50000   0.25000   0.44896   0.00000  Uiso   1.00
Zn551  Zn    0.75000  -0.00000   0.55104   0.00000  Uiso   1.00
Zn552  Zn    0.75000  -0.00000   0.44896   0.00000  Uiso   1.00
C553   C     0.50013   0.28959   0.35722   0.00000  Uiso   1.00
C554   C     0.99988   0.21040   0.64278   0.00000  Uiso   1.00
C555   C     0.50019   0.21040   0.35719   0.00000  Uiso   1.00
C556   C     0.99980   0.28960   0.64281   0.00000  Uiso   1.00
C557   C     0.75012   0.03959   0.35722   0.00000  Uiso   1.00
C558   C     0.74992   0.46040   0.64278   0.00000  Uiso   1.00
C559   C     0.75018   0.46040   0.35719   0.00000  Uiso   1.00
C560   C     0.74977   0.03960   0.64281   0.00000  Uiso   1.00
C561   C     0.88632   0.14615   0.45986   0.00000  Uiso   1.00
C562   C     0.61368   0.35386   0.54014   0.00000  Uiso   1.00
C563   C     0.60597   0.36268   0.45964   0.00000  Uiso   1.00
C564   C     0.89394   0.13742   0.54038   0.00000  Uiso   1.00
C565   C     0.61377   0.14628   0.54011   0.00000  Uiso   1.00
C566   C     0.88623   0.35372   0.45989   0.00000  Uiso   1.00
C567   C     0.89415   0.36284   0.54034   0.00000  Uiso   1.00
C568   C     0.60595   0.13727   0.45964   0.00000  Uiso   1.00
C569   C     0.63626   0.39621   0.45988   0.00000  Uiso   1.00
C570   C     0.86365   0.10389   0.54015   0.00000  Uiso   1.00
C571   C     0.85603   0.11262   0.45963   0.00000  Uiso   1.00
C572   C     0.64397   0.38739   0.54038   0.00000  Uiso   1.00
C573   C     0.86385   0.39636   0.54009   0.00000  Uiso   1.00
C574   C     0.63624   0.10374   0.45988   0.00000  Uiso   1.00
C575   C     0.64407   0.11275   0.54035   0.00000  Uiso   1.00
C576   C     0.85593   0.38725   0.45964   0.00000  Uiso   1.00
H577   H     0.89413   0.16275   0.42862   0.00000  Uiso   1.00
H578   H     0.60589   0.33723   0.57137   0.00000  Uiso   1.00
H579   H     0.59201   0.35308   0.42813   0.00000  Uiso   1.00
H580   H     0.90786   0.14707   0.57190   0.00000  Uiso   1.00
H581   H     0.60603   0.16298   0.57132   0.00000  Uiso   1.00
H582   H     0.89394   0.33699   0.42869   0.00000  Uiso   1.00
H583   H     0.90821   0.35335   0.57183   0.00000  Uiso   1.00
H584   H     0.59194   0.14681   0.42814   0.00000  Uiso   1.00
H585   H     0.64404   0.41285   0.42865   0.00000  Uiso   1.00
H586   H     0.85583   0.08730   0.57139   0.00000  Uiso   1.00
H587   H     0.84211   0.10297   0.42811   0.00000  Uiso   1.00
H588   H     0.65792   0.39700   0.57189   0.00000  Uiso   1.00
H589   H     0.85616   0.41312   0.57129   0.00000  Uiso   1.00
H590   H     0.64399   0.08704   0.42867   0.00000  Uiso   1.00
H591   H     0.65808   0.10321   0.57185   0.00000  Uiso   1.00
H592   H     0.84189   0.39675   0.42815   0.00000  Uiso   1.00
C593   C     0.59406   0.34210   0.49984   0.00000  Uiso   1.00
C594   C     0.90590   0.15793   0.50016   0.00000  Uiso   1.00
C595   C     0.90595   0.34211   0.50016   0.00000  Uiso   1.00
C596   C     0.59409   0.15793   0.49983   0.00000  Uiso   1.00
C597   C     0.84407   0.09209   0.49984   0.00000  Uiso   1.00
C598   C     0.65589   0.40795   0.50017   0.00000  Uiso   1.00
C599   C     0.65592   0.09209   0.50017   0.00000  Uiso   1.00
C600   C     0.84411   0.40795   0.49982   0.00000  Uiso   1.00
N601   N     0.50182   0.33179   0.38021   0.00000  Uiso   1.00
O602   O     0.96595   0.35065   0.39250   0.00000  Uiso   1.00
O603   O     0.53515   0.35750   0.37388   0.00000  Uiso   1.00
N604   N     0.99824   0.16822   0.61978   0.00000  Uiso   1.00
O605   O     0.53414   0.14934   0.60762   0.00000  Uiso   1.00
O606   O     0.96488   0.14252   0.62599   0.00000  Uiso   1.00
N607   N     0.50190   0.16821   0.38015   0.00000  Uiso   1.00
O608   O     0.96604   0.14933   0.39241   0.00000  Uiso   1.00
O609   O     0.53523   0.14250   0.37379   0.00000  Uiso   1.00
N610   N     0.99804   0.33179   0.61986   0.00000  Uiso   1.00
O611   O     0.53387   0.35065   0.60747   0.00000  Uiso   1.00
O612   O     0.96474   0.35752   0.62634   0.00000  Uiso   1.00
N613   N     0.75181   0.08178   0.38022   0.00000  Uiso   1.00
O614   O     0.71594   0.10067   0.39245   0.00000  Uiso   1.00
O615   O     0.78516   0.10748   0.37393   0.00000  Uiso   1.00
N616   N     0.74843   0.41822   0.61977   0.00000  Uiso   1.00
O617   O     0.78440   0.39938   0.60781   0.00000  Uiso   1.00
O618   O     0.71507   0.39248   0.62581   0.00000  Uiso   1.00
N619   N     0.75177   0.41821   0.38016   0.00000  Uiso   1.00
O620   O     0.71585   0.39937   0.39227   0.00000  Uiso   1.00
O621   O     0.78510   0.39246   0.37392   0.00000  Uiso   1.00
N622   N     0.74799   0.08179   0.61986   0.00000  Uiso   1.00
O623   O     0.78382   0.10068   0.60748   0.00000  Uiso   1.00
O624   O     0.71468   0.10749   0.62632   0.00000  Uiso   1.00
O625   O     0.04580   0.70419   0.53821   0.00000  Uiso   1.00
O626   O     0.45419   0.79581   0.46179   0.00000  Uiso   1.00
O627   O     0.45419   0.79581   0.53821   0.00000  Uiso   1.00
O628   O     0.04580   0.70419   0.46179   0.00000  Uiso   1.00
O629   O     0.45419   0.70419   0.46179   0.00000  Uiso   1.00
O630   O     0.04580   0.79581   0.53821   0.00000  Uiso   1.00
O631   O     0.04580   0.79581   0.46179   0.00000  Uiso   1.00
O632   O     0.45419   0.70419   0.53821   0.00000  Uiso   1.00
O633   O     0.29580   0.95419   0.53821   0.00000  Uiso   1.00
O634   O     0.20419   0.54581   0.46179   0.00000  Uiso   1.00
O635   O     0.20419   0.54581   0.53821   0.00000  Uiso   1.00
O636   O     0.29580   0.95419   0.46179   0.00000  Uiso   1.00
O637   O     0.20419   0.95419   0.46179   0.00000  Uiso   1.00
O638   O     0.29580   0.54581   0.53821   0.00000  Uiso   1.00
O639   O     0.29580   0.54581   0.46179   0.00000  Uiso   1.00
O640   O     0.20419   0.95419   0.53821   0.00000  Uiso   1.00
C641   C     0.06043   0.69057   0.49993   0.00000  Uiso   1.00
C642   C     0.43958   0.80944   0.50007   0.00000  Uiso   1.00
C643   C     0.43957   0.69057   0.50007   0.00000  Uiso   1.00
C644   C     0.06042   0.80944   0.49994   0.00000  Uiso   1.00
C645   C     0.31044   0.94058   0.49993   0.00000  Uiso   1.00
C646   C     0.18957   0.55943   0.50007   0.00000  Uiso   1.00
C647   C     0.18956   0.94058   0.50007   0.00000  Uiso   1.00
C648   C     0.31043   0.55943   0.49994   0.00000  Uiso   1.00
N649   N     0.00000   0.75000   0.61907   0.00000  Uiso   1.00
N650   N     0.00000   0.75000   0.38093   0.00000  Uiso   1.00
N651   N     0.25000   0.50000   0.61907   0.00000  Uiso   1.00
N652   N     0.25000   0.50000   0.38093   0.00000  Uiso   1.00
Zn653  Zn   -0.00000   0.75000   0.55104   0.00000  Uiso   1.00
Zn654  Zn   -0.00000   0.75000   0.44896   0.00000  Uiso   1.00
Zn655  Zn    0.25000   0.50000   0.55104   0.00000  Uiso   1.00
Zn656  Zn    0.25000   0.50000   0.44896   0.00000  Uiso   1.00
C657   C     0.00013   0.78959   0.35722   0.00000  Uiso   1.00
C658   C     0.49988   0.71040   0.64278   0.00000  Uiso   1.00
C659   C     0.00019   0.71040   0.35719   0.00000  Uiso   1.00
C660   C     0.49980   0.78960   0.64281   0.00000  Uiso   1.00
C661   C     0.25012   0.53959   0.35722   0.00000  Uiso   1.00
C662   C     0.24992   0.96040   0.64278   0.00000  Uiso   1.00
C663   C     0.25018   0.96040   0.35719   0.00000  Uiso   1.00
C664   C     0.24977   0.53960   0.64281   0.00000  Uiso   1.00
C665   C     0.38632   0.64615   0.45986   0.00000  Uiso   1.00
C666   C     0.11368   0.85386   0.54014   0.00000  Uiso   1.00
C667   C     0.10597   0.86268   0.45964   0.00000  Uiso   1.00
C668   C     0.39394   0.63742   0.54038   0.00000  Uiso   1.00
C669   C     0.11377   0.64628   0.54011   0.00000  Uiso   1.00
C670   C     0.38623   0.85372   0.45989   0.00000  Uiso   1.00
C671   C     0.39415   0.86284   0.54034   0.00000  Uiso   1.00
C672   C     0.10595   0.63727   0.45964   0.00000  Uiso   1.00
C673   C     0.13626   0.89621   0.45988   0.00000  Uiso   1.00
C674   C     0.36365   0.60389   0.54015   0.00000  Uiso   1.00
C675   C     0.35603   0.61262   0.45963   0.00000  Uiso   1.00
C676   C     0.14397   0.88739   0.54038   0.00000  Uiso   1.00
C677   C     0.36385   0.89636   0.54009   0.00000  Uiso   1.00
C678   C     0.13624   0.60374   0.45988   0.00000  Uiso   1.00
C679   C     0.14407   0.61275   0.54035   0.00000  Uiso   1.00
C680   C     0.35593   0.88725   0.45964   0.00000  Uiso   1.00
H681   H     0.39413   0.66275   0.42862   0.00000  Uiso   1.00
H682   H     0.10589   0.83723   0.57137   0.00000  Uiso   1.00
H683   H     0.09201   0.85308   0.42813   0.00000  Uiso   1.00
H684   H     0.40786   0.64707   0.57190   0.00000  Uiso   1.00
H685   H     0.10603   0.66298   0.57132   0.00000  Uiso   1.00
H686   H     0.39394   0.83699   0.42869   0.00000  Uiso   1.00
H687   H     0.40821   0.85335   0.57183   0.00000  Uiso   1.00
H688   H     0.09194   0.64681   0.42814   0.00000  Uiso   1.00
H689   H     0.14404   0.91285   0.42865   0.00000  Uiso   1.00
H690   H     0.35583   0.58730   0.57139   0.00000  Uiso   1.00
H691   H     0.34211   0.60297   0.42811   0.00000  Uiso   1.00
H692   H     0.15792   0.89700   0.57189   0.00000  Uiso   1.00
H693   H     0.35616   0.91312   0.57129   0.00000  Uiso   1.00
H694   H     0.14399   0.58704   0.42867   0.00000  Uiso   1.00
H695   H     0.15808   0.60321   0.57185   0.00000  Uiso   1.00
H696   H     0.34189   0.89675   0.42815   0.00000  Uiso   1.00
C697   C     0.09406   0.84210   0.49984   0.00000  Uiso   1.00
C698   C     0.40590   0.65793   0.50016   0.00000  Uiso   1.00
C699   C     0.40595   0.84211   0.50016   0.00000  Uiso   1.00
C700   C     0.09409   0.65793   0.49983   0.00000  Uiso   1.00
C701   C     0.34407   0.59209   0.49984   0.00000  Uiso   1.00
C702   C     0.15589   0.90795   0.50017   0.00000  Uiso   1.00
C703   C     0.15592   0.59209   0.50017   0.00000  Uiso   1.00
C704   C     0.34411   0.90795   0.49982   0.00000  Uiso   1.00
N705   N     0.00182   0.83179   0.38021   0.00000  Uiso   1.00
O706   O     0.46595   0.85065   0.39250   0.00000  Uiso   1.00
O707   O     0.03515   0.85750   0.37388   0.00000  Uiso   1.00
N708   N     0.49824   0.66822   0.61978   0.00000  Uiso   1.00
O709   O     0.03414   0.64934   0.60762   0.00000  Uiso   1.00
O710   O     0.46488   0.64252   0.62599   0.00000  Uiso   1.00
N711   N     0.00190   0.66821   0.38015   0.00000  Uiso   1.00
O712   O     0.46604   0.64933   0.39241   0.00000  Uiso   1.00
O713   O     0.03523   0.64250   0.37379   0.00000  Uiso   1.00
N714   N     0.49804   0.83179   0.61986   0.00000  Uiso   1.00
O715   O     0.03387   0.85065   0.60747   0.00000  Uiso   1.00
O716   O     0.46474   0.85752   0.62634   0.00000  Uiso   1.00
N717   N     0.25181   0.58178   0.38022   0.00000  Uiso   1.00
O718   O     0.21594   0.60067   0.39245   0.00000  Uiso   1.00
O719   O     0.28516   0.60748   0.37393   0.00000  Uiso   1.00
N720   N     0.24843   0.91822   0.61977   0.00000  Uiso   1.00
O721   O     0.28440   0.89938   0.60781   0.00000  Uiso   1.00
O722   O     0.21507   0.89248   0.62581   0.00000  Uiso   1.00
N723   N     0.25177   0.91821   0.38016   0.00000  Uiso   1.00
O724   O     0.21585   0.89937   0.39227   0.00000  Uiso   1.00
O725   O     0.28510   0.89246   0.37392   0.00000  Uiso   1.00
N726   N     0.24799   0.58179   0.61986   0.00000  Uiso   1.00
O727   O     0.28382   0.60068   0.60748   0.00000  Uiso   1.00
O728   O     0.21468   0.60749   0.62632   0.00000  Uiso   1.00
O729   O     0.54580   0.70419   0.53821   0.00000  Uiso   1.00
O730   O     0.95419   0.79581   0.46179   0.00000  Uiso   1.00
O731   O     0.95419   0.79581   0.53821   0.00000  Uiso   1.00
O732   O     0.54580   0.70419   0.46179   0.00000  Uiso   1.00
O733   O     0.95419   0.70419   0.46179   0.00000  Uiso   1.00
O734   O     0.54580   0.79581   0.53821   0.00000  Uiso   1.00
O735   O     0.54580   0.79581   0.46179   0.00000  Uiso   1.00
O736   O     0.95419   0.70419   0.53821   0.00000  Uiso   1.00
O737   O     0.79580   0.95419   0.53821   0.00000  Uiso   1.00
O738   O     0.70419   0.54581   0.46179   0.00000  Uiso   1.00
O739   O     0.70419   0.54581   0.53821   0.00000  Uiso   1.00
O740   O     0.79580   0.95419   0.46179   0.00000  Uiso   1.00
O741   O     0.70419   0.95419   0.46179   0.00000  Uiso   1.00
O742   O     0.79580   0.54581   0.53821   0.00000  Uiso   1.00
O743   O     0.79580   0.54581   0.46179   0.00000  Uiso   1.00
O744   O     0.70419   0.95419   0.53821   0.00000  Uiso   1.00
C745   C     0.56043   0.69057   0.49993   0.00000  Uiso   1.00
C746   C     0.93958   0.80944   0.50007   0.00000  Uiso   1.00
C747   C     0.93957   0.69057   0.50007   0.00000  Uiso   1.00
C748   C     0.56042   0.80944   0.49994   0.00000  Uiso   1.00
C749   C     0.81044   0.94058   0.49993   0.00000  Uiso   1.00
C750   C     0.68957   0.55943   0.50007   0.00000  Uiso   1.00
C751   C     0.68956   0.94058   0.50007   0.00000  Uiso   1.00
C752   C     0.81043   0.55943   0.49994   0.00000  Uiso   1.00
N753   N     0.50000   0.75000   0.61907   0.00000  Uiso   1.00
N754   N     0.50000   0.75000   0.38093   0.00000  Uiso   1.00
N755   N     0.75000   0.50000   0.61907   0.00000  Uiso   1.00
N756   N     0.75000   0.50000   0.38093   0.00000  Uiso   1.00
Zn757  Zn    0.50000   0.75000   0.55104   0.00000  Uiso   1.00
Zn758  Zn    0.50000   0.75000   0.44896   0.00000  Uiso   1.00
Zn759  Zn    0.75000   0.50000   0.55104   0.00000  Uiso   1.00
Zn760  Zn    0.75000   0.50000   0.44896   0.00000  Uiso   1.00
C761   C     0.50013   0.78959   0.35722   0.00000  Uiso   1.00
C762   C     0.99988   0.71040   0.64278   0.00000  Uiso   1.00
C763   C     0.50019   0.71040   0.35719   0.00000  Uiso   1.00
C764   C     0.99980   0.78960   0.64281   0.00000  Uiso   1.00
C765   C     0.75012   0.53959   0.35722   0.00000  Uiso   1.00
C766   C     0.74992   0.96040   0.64278   0.00000  Uiso   1.00
C767   C     0.75018   0.96040   0.35719   0.00000  Uiso   1.00
C768   C     0.74977   0.53960   0.64281   0.00000  Uiso   1.00
C769   C     0.88632   0.64615   0.45986   0.00000  Uiso   1.00
C770   C     0.61368   0.85386   0.54014   0.00000  Uiso   1.00
C771   C     0.60597   0.86268   0.45964   0.00000  Uiso   1.00
C772   C     0.89394   0.63742   0.54038   0.00000  Uiso   1.00
C773   C     0.61377   0.64628   0.54011   0.00000  Uiso   1.00
C774   C     0.88623   0.85372   0.45989   0.00000  Uiso   1.00
C775   C     0.89415   0.86284   0.54034   0.00000  Uiso   1.00
C776   C     0.60595   0.63727   0.45964   0.00000  Uiso   1.00
C777   C     0.63626   0.89621   0.45988   0.00000  Uiso   1.00
C778   C     0.86365   0.60389   0.54015   0.00000  Uiso   1.00
C779   C     0.85603   0.61262   0.45963   0.00000  Uiso   1.00
C780   C     0.64397   0.88739   0.54038   0.00000  Uiso   1.00
C781   C     0.86385   0.89636   0.54009   0.00000  Uiso   1.00
C782   C     0.63624   0.60374   0.45988   0.00000  Uiso   1.00
C783   C     0.64407   0.61275   0.54035   0.00000  Uiso   1.00
C784   C     0.85593   0.88725   0.45964   0.00000  Uiso   1.00
H785   H     0.89413   0.66275   0.42862   0.00000  Uiso   1.00
H786   H     0.60589   0.83723   0.57137   0.00000  Uiso   1.00
H787   H     0.59201   0.85308   0.42813   0.00000  Uiso   1.00
H788   H     0.90786   0.64707   0.57190   0.00000  Uiso   1.00
H789   H     0.60603   0.66298   0.57132   0.00000  Uiso   1.00
H790   H     0.89394   0.83699   0.42869   0.00000  Uiso   1.00
H791   H     0.90821   0.85335   0.57183   0.00000  Uiso   1.00
H792   H     0.59194   0.64681   0.42814   0.00000  Uiso   1.00
H793   H     0.64404   0.91285   0.42865   0.00000  Uiso   1.00
H794   H     0.85583   0.58730   0.57139   0.00000  Uiso   1.00
H795   H     0.84211   0.60297   0.42811   0.00000  Uiso   1.00
H796   H     0.65792   0.89700   0.57189   0.00000  Uiso   1.00
H797   H     0.85616   0.91312   0.57129   0.00000  Uiso   1.00
H798   H     0.64399   0.58704   0.42867   0.00000  Uiso   1.00
H799   H     0.65808   0.60321   0.57185   0.00000  Uiso   1.00
H800   H     0.84189   0.89675   0.42815   0.00000  Uiso   1.00
C801   C     0.59406   0.84210   0.49984   0.00000  Uiso   1.00
C802   C     0.90590   0.65793   0.50016   0.00000  Uiso   1.00
C803   C     0.90595   0.84211   0.50016   0.00000  Uiso   1.00
C804   C     0.59409   0.65793   0.49983   0.00000  Uiso   1.00
C805   C     0.84407   0.59209   0.49984   0.00000  Uiso   1.00
C806   C     0.65589   0.90795   0.50017   0.00000  Uiso   1.00
C807   C     0.65592   0.59209   0.50017   0.00000  Uiso   1.00
C808   C     0.84411   0.90795   0.49982   0.00000  Uiso   1.00
N809   N     0.50182   0.83179   0.38021   0.00000  Uiso   1.00
O810   O     0.96595   0.85065   0.39250   0.00000  Uiso   1.00
O811   O     0.53515   0.85750   0.37388   0.00000  Uiso   1.00
N812   N     0.99824   0.66822   0.61978   0.00000  Uiso   1.00
O813   O     0.53414   0.64934   0.60762   0.00000  Uiso   1.00
O814   O     0.96488   0.64252   0.62599   0.00000  Uiso   1.00
N815   N     0.50190   0.66821   0.38015   0.00000  Uiso   1.00
O816   O     0.96604   0.64933   0.39241   0.00000  Uiso   1.00
O817   O     0.53523   0.64250   0.37379   0.00000  Uiso   1.00
N818   N     0.99804   0.83179   0.61986   0.00000  Uiso   1.00
O819   O     0.53387   0.85065   0.60747   0.00000  Uiso   1.00
O820   O     0.96474   0.85752   0.62634   0.00000  Uiso   1.00
N821   N     0.75181   0.58178   0.38022   0.00000  Uiso   1.00
O822   O     0.71594   0.60067   0.39245   0.00000  Uiso   1.00
O823   O     0.78516   0.60748   0.37393   0.00000  Uiso   1.00
N824   N     0.74843   0.91822   0.61977   0.00000  Uiso   1.00
O825   O     0.78440   0.89938   0.60781   0.00000  Uiso   1.00
O826   O     0.71507   0.89248   0.62581   0.00000  Uiso   1.00
N827   N     0.75177   0.91821   0.38016   0.00000  Uiso   1.00
O828   O     0.71585   0.89937   0.39227   0.00000  Uiso   1.00
O829   O     0.78510   0.89246   0.37392   0.00000  Uiso   1.00
N830   N     0.74799   0.58179   0.61986   0.00000  Uiso   1.00
O831   O     0.78382   0.60068   0.60748   0.00000  Uiso   1.00
O832   O     0.71468   0.60749   0.62632   0.00000  Uiso   1.00
O833   O     0.04580   0.20419   0.87154   0.00000  Uiso   1.00
O834   O     0.45419   0.29581   0.79513   0.00000  Uiso   1.00
O835   O     0.45419   0.29581   0.87154   0.00000  Uiso   1.00
O836   O     0.04580   0.20419   0.79513   0.00000  Uiso   1.00
O837   O     0.45419   0.20419   0.79513   0.00000  Uiso   1.00
O838   O     0.04580   0.29581   0.87154   0.00000  Uiso   1.00
O839   O     0.04580   0.29581   0.79513   0.00000  Uiso   1.00
O840   O     0.45419   0.20419   0.87154   0.00000  Uiso   1.00
O841   O     0.29580   0.45419   0.87154   0.00000  Uiso   1.00
O842   O     0.20419   0.04581   0.79513   0.00000  Uiso   1.00
O843   O     0.20419   0.04581   0.87154   0.00000  Uiso   1.00
O844   O     0.29580   0.45419   0.79513   0.00000  Uiso   1.00
O845   O     0.20419   0.45419   0.79513   0.00000  Uiso   1.00
O846   O     0.29580   0.04581   0.87154   0.00000  Uiso   1.00
O847   O     0.29580   0.04581   0.79513   0.00000  Uiso   1.00
O848   O     0.20419   0.45419   0.87154   0.00000  Uiso   1.00
C849   C     0.06043   0.19057   0.83326   0.00000  Uiso   1.00
C850   C     0.43958   0.30944   0.83340   0.00000  Uiso   1.00
C851   C     0.43957   0.19057   0.83340   0.00000  Uiso   1.00
C852   C     0.06042   0.30944   0.83327   0.00000  Uiso   1.00
C853   C     0.31044   0.44058   0.83326   0.00000  Uiso   1.00
C854   C     0.18957   0.05943   0.83340   0.00000  Uiso   1.00
C855   C     0.18956   0.44058   0.83340   0.00000  Uiso   1.00
C856   C     0.31043   0.05943   0.83327   0.00000  Uiso   1.00
N857   N     0.00000   0.25000   0.95240   0.00000  Uiso   1.00
N858   N     0.00000   0.25000   0.71427   0.00000  Uiso   1.00
N859   N     0.25000  -0.00000   0.95240   0.00000  Uiso   1.00
N860   N     0.25000  -0.00000   0.71427   0.00000  Uiso   1.00
Zn861  Zn   -0.00000   0.25000   0.88437   0.00000  Uiso   1.00
Zn862  Zn   -0.00000   0.25000   0.78229   0.00000  Uiso   1.00
Zn863  Zn    0.25000  -0.00000   0.88437   0.00000  Uiso   1.00
Zn864  Zn    0.25000  -0.00000   0.78229   0.00000  Uiso   1.00
C865   C     0.00013   0.28959   0.69055   0.00000  Uiso   1.00
C866   C     0.49988   0.21040   0.97611   0.00000  Uiso   1.00
C867   C     0.00019   0.21040   0.69052   0.00000  Uiso   1.00
C868   C     0.49980   0.28960   0.97614   0.00000  Uiso   1.00
C869   C     0.25012   0.03959   0.69056   0.00000  Uiso   1.00
C870   C     0.24992   0.46040   0.97611   0.00000  Uiso   1.00
C871   C     0.25018   0.46040   0.69052   0.00000  Uiso   1.00
C872   C     0.24977   0.03960   0.97614   0.00000  Uiso   1.00
C873   C     0.38632   0.14615   0.79319   0.00000  Uiso   1.00
C874   C     0.11368   0.35386   0.87347   0.00000  Uiso   1.00
C875   C     0.10597   0.36268   0.79297   0.00000  Uiso   1.00
C876   C     0.39394   0.13742   0.87371   0.00000  Uiso   1.00
C877   C     0.11377   0.14628   0.87344   0.00000  Uiso   1.00
C878   C     0.38623   0.35372   0.79322   0.00000  Uiso   1.00
C879   C     0.39415   0.36284   0.87367   0.00000  Uiso   1.00
C880   C     0.10595   0.13727   0.79298   0.00000  Uiso   1.00
C881   C     0.13626   0.39621   0.79321   0.00000  Uiso   1.00
C882   C     0.36365   0.10389   0.87348   0.00000  Uiso   1.00
C883   C     0.35603   0.11262   0.79296   0.00000  Uiso   1.00
C884   C     0.14397   0.38739   0.87371   0.00000  Uiso   1.00
C885   C     0.36385   0.39636   0.87342   0.00000  Uiso   1.00
C886   C     0.13624   0.10374   0.79322   0.00000  Uiso   1.00
C887   C     0.14407   0.11275   0.87369   0.00000  Uiso   1.00
C888   C     0.35593   0.38725   0.79298   0.00000  Uiso   1.00
H889   H     0.39413   0.16275   0.76196   0.00000  Uiso   1.00
H890   H     0.10589   0.33723   0.90470   0.00000  Uiso   1.00
H891   H     0.09201   0.35308   0.76146   0.00000  Uiso   1.00
H892   H     0.40786   0.14707   0.90523   0.00000  Uiso   1.00
H893   H     0.10603   0.16298   0.90466   0.00000  Uiso   1.00
H894   H     0.39394   0.33699   0.76202   0.00000  Uiso   1.00
H895   H     0.40821   0.35335   0.90516   0.00000  Uiso   1.00
H896   H     0.09194   0.14681   0.76147   0.00000  Uiso   1.00
H897   H     0.14404   0.41285   0.76198   0.00000  Uiso   1.00
H898   H     0.35583   0.08730   0.90472   0.00000  Uiso   1.00
H899   H     0.34211   0.10297   0.76144   0.00000  Uiso   1.00
H900   H     0.15792   0.39700   0.90522   0.00000  Uiso   1.00
H901   H     0.35616   0.41312   0.90462   0.00000  Uiso   1.00
H902   H     0.14399   0.08704   0.76200   0.00000  Uiso   1.00
H903   H     0.15808   0.10321   0.90519   0.00000  Uiso   1.00
H904   H     0.34189   0.39675   0.76148   0.00000  Uiso   1.00
C905   C     0.09406   0.34210   0.83318   0.00000  Uiso   1.00
C906   C     0.40590   0.15793   0.83350   0.00000  Uiso   1.00
C907   C     0.40595   0.34211   0.83350   0.00000  Uiso   1.00
C908   C     0.09409   0.15793   0.83316   0.00000  Uiso   1.00
C909   C     0.34407   0.09209   0.83318   0.00000  Uiso   1.00
C910   C     0.15589   0.40795   0.83350   0.00000  Uiso   1.00
C911   C     0.15592   0.09209   0.83350   0.00000  Uiso   1.00
C912   C     0.34411   0.40795   0.83316   0.00000  Uiso   1.00
N913   N     0.00182   0.33179   0.71355   0.00000  Uiso   1.00
O914   O     0.46595   0.35065   0.72583   0.00000  Uiso   1.00
O915   O     0.03515   0.35750   0.70721   0.00000  Uiso   1.00
N916   N     0.49824   0.16822   0.95311   0.00000  Uiso   1.00
O917   O     0.03414   0.14934   0.94096   0.00000  Uiso   1.00
O918   O     0.46488   0.14252   0.95932   0.00000  Uiso   1.00
N919   N     0.00190   0.16821   0.71348   0.00000  Uiso   1.00
O920   O     0.46604   0.14933   0.72575   0.00000  Uiso   1.00
O921   O     0.03523   0.14250   0.70712   0.00000  Uiso   1.00
N922   N     0.49804   0.33179   0.95319   0.00000  Uiso   1.00
O923   O     0.03387   0.35065   0.94080   0.00000  Uiso   1.00
O924   O     0.46474   0.35752   0.95968   0.00000  Uiso   1.00
N925   N     0.25181   0.08178   0.71355   0.00000  Uiso   1.00
O926   O     0.21594   0.10067   0.72578   0.00000  Uiso   1.00
O927   O     0.28516   0.10748   0.70727   0.00000  Uiso   1.00
N928   N     0.24843   0.41822   0.95310   0.00000  Uiso   1.00
O929   O     0.28440   0.39938   0.94114   0.00000  Uiso   1.00
O930   O     0.21507   0.39248   0.95914   0.00000  Uiso   1.00
N931   N     0.25177   0.41821   0.71349   0.00000  Uiso   1.00
O932   O     0.21585   0.39937   0.72560   0.00000  Uiso   1.00
O933   O     0.28510   0.39246   0.70726   0.00000  Uiso   1.00
N934   N     0.24799   0.08179   0.95319   0.00000  Uiso   1.00
O935   O     0.28382   0.10068   0.94081   0.00000  Uiso   1.00
O936   O     0.21468   0.10749   0.95966   0.00000  Uiso   1.00
O937   O     0.54580   0.20419   0.87154   0.00000  Uiso   1.00
O938   O     0.95419   0.29581   0.79513   0.00000  Uiso   1.00
O939   O     0.95419   0.29581   0.87154   0.00000  Uiso   1.00
O940   O     0.54580   0.20419   0.79513   0.00000  Uiso   1.00
O941   O     0.95419   0.20419   0.79513   0.00000  Uiso   1.00
O942   O     0.54580   0.29581   0.87154   0.00000  Uiso   1.00
O943   O     0.54580   0.29581   0.79513   0.00000  Uiso   1.00
O944   O     0.95419   0.20419   0.87154   0.00000  Uiso   1.00
O945   O     0.79580   0.45419   0.87154   0.00000  Uiso   1.00
O946   O     0.70419   0.04581   0.79513   0.00000  Uiso   1.00
O947   O     0.70419   0.04581   0.87154   0.00000  Uiso   1.00
O948   O     0.79580   0.45419   0.79513   0.00000  Uiso   1.00
O949   O     0.70419   0.45419   0.79513   0.00000  Uiso   1.00
O950   O     0.79580   0.04581   0.87154   0.00000  Uiso   1.00
O951   O     0.79580   0.04581   0.79513   0.00000  Uiso   1.00
O952   O     0.70419   0.45419   0.87154   0.00000  Uiso   1.00
C953   C     0.56043   0.19057   0.83326   0.00000  Uiso   1.00
C954   C     0.93958   0.30944   0.83340   0.00000  Uiso   1.00
C955   C     0.93957   0.19057   0.83340   0.00000  Uiso   1.00
C956   C     0.56042   0.30944   0.83327   0.00000  Uiso   1.00
C957   C     0.81044   0.44058   0.83326   0.00000  Uiso   1.00
C958   C     0.68957   0.05943   0.83340   0.00000  Uiso   1.00
C959   C     0.68956   0.44058   0.83340   0.00000  Uiso   1.00
C960   C     0.81043   0.05943   0.83327   0.00000  Uiso   1.00
N961   N     0.50000   0.25000   0.95240   0.00000  Uiso   1.00
N962   N     0.50000   0.25000   0.71427   0.00000  Uiso   1.00
N963   N     0.75000  -0.00000   0.95240   0.00000  Uiso   1.00
N964   N     0.75000  -0.00000   0.71427   0.00000  Uiso   1.00
Zn965  Zn    0.50000   0.25000   0.88437   0.00000  Uiso   1.00
Zn966  Zn    0.50000   0.25000   0.78229   0.00000  Uiso   1.00
Zn967  Zn    0.75000  -0.00000   0.88437   0.00000  Uiso   1.00
Zn968  Zn    0.75000  -0.00000   0.78229   0.00000  Uiso   1.00
C969   C     0.50013   0.28959   0.69055   0.00000  Uiso   1.00
C970   C     0.99988   0.21040   0.97611   0.00000  Uiso   1.00
C971   C     0.50019   0.21040   0.69052   0.00000  Uiso   1.00
C972   C     0.99980   0.28960   0.97614   0.00000  Uiso   1.00
C973   C     0.75012   0.03959   0.69056   0.00000  Uiso   1.00
C974   C     0.74992   0.46040   0.97611   0.00000  Uiso   1.00
C975   C     0.75018   0.46040   0.69052   0.00000  Uiso   1.00
C976   C     0.74977   0.03960   0.97614   0.00000  Uiso   1.00
C977   C     0.88632   0.14615   0.79319   0.00000  Uiso   1.00
C978   C     0.61368   0.35386   0.87347   0.00000  Uiso   1.00
C979   C     0.60597   0.36268   0.79297   0.00000  Uiso   1.00
C980   C     0.89394   0.13742   0.87371   0.00000  Uiso   1.00
C981   C     0.61377   0.14628   0.87344   0.00000  Uiso   1.00
C982   C     0.88623   0.35372   0.79322   0.00000  Uiso   1.00
C983   C     0.89415   0.36284   0.87367   0.00000  Uiso   1.00
C984   C     0.60595   0.13727   0.79298   0.00000  Uiso   1.00
C985   C     0.63626   0.39621   0.79321   0.00000  Uiso   1.00
C986   C     0.86365   0.10389   0.87348   0.00000  Uiso   1.00
C987   C     0.85603   0.11262   0.79296   0.00000  Uiso   1.00
C988   C     0.64397   0.38739   0.87371   0.00000  Uiso   1.00
C989   C     0.86385   0.39636   0.87342   0.00000  Uiso   1.00
C990   C     0.63624   0.10374   0.79322   0.00000  Uiso   1.00
C991   C     0.64407   0.11275   0.87369   0.00000  Uiso   1.00
C992   C     0.85593   0.38725   0.79298   0.00000  Uiso   1.00
H993   H     0.89413   0.16275   0.76196   0.00000  Uiso   1.00
H994   H     0.60589   0.33723   0.90470   0.00000  Uiso   1.00
H995   H     0.59201   0.35308   0.76146   0.00000  Uiso   1.00
H996   H     0.90786   0.14707   0.90523   0.00000  Uiso   1.00
H997   H     0.60603   0.16298   0.90466   0.00000  Uiso   1.00
H998   H     0.89394   0.33699   0.76202   0.00000  Uiso   1.00
H999   H     0.90821   0.35335   0.90516   0.00000  Uiso   1.00
H1000  H     0.59194   0.14681   0.76147   0.00000  Uiso   1.00
H1001  H     0.64404   0.41285   0.76198   0.00000  Uiso   1.00
H1002  H     0.85583   0.08730   0.90472   0.00000  Uiso   1.00
H1003  H     0.84211   0.10297   0.76144   0.00000  Uiso   1.00
H1004  H     0.65792   0.39700   0.90522   0.00000  Uiso   1.00
H1005  H     0.85616   0.41312   0.90462   0.00000  Uiso   1.00
H1006  H     0.64399   0.08704   0.76200   0.00000  Uiso   1.00
H1007  H     0.65808   0.10321   0.90519   0.00000  Uiso   1.00
H1008  H     0.84189   0.39675   0.76148   0.00000  Uiso   1.00
C1009  C     0.59406   0.34210   0.83318   0.00000  Uiso   1.00
C1010  C     0.90590   0.15793   0.83350   0.00000  Uiso   1.00
C1011  C     0.90595   0.34211   0.83350   0.00000  Uiso   1.00
C1012  C     0.59409   0.15793   0.83316   0.00000  Uiso   1.00
C1013  C     0.84407   0.09209   0.83318   0.00000  Uiso   1.00
C1014  C     0.65589   0.40795   0.83350   0.00000  Uiso   1.00
C1015  C     0.65592   0.09209   0.83350   0.00000  Uiso   1.00
C1016  C     0.84411   0.40795   0.83316   0.00000  Uiso   1.00
N1017  N     0.50182   0.33179   0.71355   0.00000  Uiso   1.00
O1018  O     0.96595   0.35065   0.72583   0.00000  Uiso   1.00
O1019  O     0.53515   0.35750   0.70721   0.00000  Uiso   1.00
N1020  N     0.99824   0.16822   0.95311   0.00000  Uiso   1.00
O1021  O     0.53414   0.14934   0.94096   0.00000  Uiso   1.00
O1022  O     0.96488   0.14252   0.95932   0.00000  Uiso   1.00
N1023  N     0.50190   0.16821   0.71348   0.00000  Uiso   1.00
O1024  O     0.96604   0.14933   0.72575   0.00000  Uiso   1.00
O1025  O     0.53523   0.14250   0.70712   0.00000  Uiso   1.00
N1026  N     0.99804   0.33179   0.95319   0.00000  Uiso   1.00
O1027  O     0.53387   0.35065   0.94080   0.00000  Uiso   1.00
O1028  O     0.96474   0.35752   0.95968   0.00000  Uiso   1.00
N1029  N     0.75181   0.08178   0.71355   0.00000  Uiso   1.00
O1030  O     0.71594   0.10067   0.72578   0.00000  Uiso   1.00
O1031  O     0.78516   0.10748   0.70727   0.00000  Uiso   1.00
N1032  N     0.74843   0.41822   0.95310   0.00000  Uiso   1.00
O1033  O     0.78440   0.39938   0.94114   0.00000  Uiso   1.00
O1034  O     0.71507   0.39248   0.95914   0.00000  Uiso   1.00
N1035  N     0.75177   0.41821   0.71349   0.00000  Uiso   1.00
O1036  O     0.71585   0.39937   0.72560   0.00000  Uiso   1.00
O1037  O     0.78510   0.39246   0.70726   0.00000  Uiso   1.00
N1038  N     0.74799   0.08179   0.95319   0.00000  Uiso   1.00
O1039  O     0.78382   0.10068   0.94081   0.00000  Uiso   1.00
O1040  O     0.71468   0.10749   0.95966   0.00000  Uiso   1.00
O1041  O     0.04580   0.70419   0.87154   0.00000  Uiso   1.00
O1042  O     0.45419   0.79581   0.79513   0.00000  Uiso   1.00
O1043  O     0.45419   0.79581   0.87154   0.00000  Uiso   1.00
O1044  O     0.04580   0.70419   0.79513   0.00000  Uiso   1.00
O1045  O     0.45419   0.70419   0.79513   0.00000  Uiso   1.00
O1046  O     0.04580   0.79581   0.87154   0.00000  Uiso   1.00
O1047  O     0.04580   0.79581   0.79513   0.00000  Uiso   1.00
O1048  O     0.45419   0.70419   0.87154   0.00000  Uiso   1.00
O1049  O     0.29580   0.95419   0.87154   0.00000  Uiso   1.00
O1050  O     0.20419   0.54581   0.79513   0.00000  Uiso   1.00
O1051  O     0.20419   0.54581   0.87154   0.00000  Uiso   1.00
O1052  O     0.29580   0.95419   0.79513   0.00000  Uiso   1.00
O1053  O     0.20419   0.95419   0.79513   0.00000  Uiso   1.00
O1054  O     0.29580   0.54581   0.87154   0.00000  Uiso   1.00
O1055  O     0.29580   0.54581   0.79513   0.00000  Uiso   1.00
O1056  O     0.20419   0.95419   0.87154   0.00000  Uiso   1.00
C1057  C     0.06043   0.69057   0.83326   0.00000  Uiso   1.00
C1058  C     0.43958   0.80944   0.83340   0.00000  Uiso   1.00
C1059  C     0.43957   0.69057   0.83340   0.00000  Uiso   1.00
C1060  C     0.06042   0.80944   0.83327   0.00000  Uiso   1.00
C1061  C     0.31044   0.94058   0.83326   0.00000  Uiso   1.00
C1062  C     0.18957   0.55943   0.83340   0.00000  Uiso   1.00
C1063  C     0.18956   0.94058   0.83340   0.00000  Uiso   1.00
C1064  C     0.31043   0.55943   0.83327   0.00000  Uiso   1.00
N1065  N     0.00000   0.75000   0.95240   0.00000  Uiso   1.00
N1066  N     0.00000   0.75000   0.71427   0.00000  Uiso   1.00
N1067  N     0.25000   0.50000   0.95240   0.00000  Uiso   1.00
N1068  N     0.25000   0.50000   0.71427   0.00000  Uiso   1.00
Zn1069 Zn   -0.00000   0.75000   0.88437   0.00000  Uiso   1.00
Zn1070 Zn   -0.00000   0.75000   0.78229   0.00000  Uiso   1.00
Zn1071 Zn    0.25000   0.50000   0.88437   0.00000  Uiso   1.00
Zn1072 Zn    0.25000   0.50000   0.78229   0.00000  Uiso   1.00
C1073  C     0.00013   0.78959   0.69055   0.00000  Uiso   1.00
C1074  C     0.49988   0.71040   0.97611   0.00000  Uiso   1.00
C1075  C     0.00019   0.71040   0.69052   0.00000  Uiso   1.00
C1076  C     0.49980   0.78960   0.97614   0.00000  Uiso   1.00
C1077  C     0.25012   0.53959   0.69056   0.00000  Uiso   1.00
C1078  C     0.24992   0.96040   0.97611   0.00000  Uiso   1.00
C1079  C     0.25018   0.96040   0.69052   0.00000  Uiso   1.00
C1080  C     0.24977   0.53960   0.97614   0.00000  Uiso   1.00
C1081  C     0.38632   0.64615   0.79319   0.00000  Uiso   1.00
C1082  C     0.11368   0.85386   0.87347   0.00000  Uiso   1.00
C1083  C     0.10597   0.86268   0.79297   0.00000  Uiso   1.00
C1084  C     0.39394   0.63742   0.87371   0.00000  Uiso   1.00
C1085  C     0.11377   0.64628   0.87344   0.00000  Uiso   1.00
C1086  C     0.38623   0.85372   0.79322   0.00000  Uiso   1.00
C1087  C     0.39415   0.86284   0.87367   0.00000  Uiso   1.00
C1088  C     0.10595   0.63727   0.79298   0.00000  Uiso   1.00
C1089  C     0.13626   0.89621   0.79321   0.00000  Uiso   1.00
C1090  C     0.36365   0.60389   0.87348   0.00000  Uiso   1.00
C1091  C     0.35603   0.61262   0.79296   0.00000  Uiso   1.00
C1092  C     0.14397   0.88739   0.87371   0.00000  Uiso   1.00
C1093  C     0.36385   0.89636   0.87342   0.00000  Uiso   1.00
C1094  C     0.13624   0.60374   0.79322   0.00000  Uiso   1.00
C1095  C     0.14407   0.61275   0.87369   0.00000  Uiso   1.00
C1096  C     0.35593   0.88725   0.79298   0.00000  Uiso   1.00
H1097  H     0.39413   0.66275   0.76196   0.00000  Uiso   1.00
H1098  H     0.10589   0.83723   0.90470   0.00000  Uiso   1.00
H1099  H     0.09201   0.85308   0.76146   0.00000  Uiso   1.00
H1100  H     0.40786   0.64707   0.90523   0.00000  Uiso   1.00
H1101  H     0.10603   0.66298   0.90466   0.00000  Uiso   1.00
H1102  H     0.39394   0.83699   0.76202   0.00000  Uiso   1.00
H1103  H     0.40821   0.85335   0.90516   0.00000  Uiso   1.00
H1104  H     0.09194   0.64681   0.76147   0.00000  Uiso   1.00
H1105  H     0.14404   0.91285   0.76198   0.00000  Uiso   1.00
H1106  H     0.35583   0.58730   0.90472   0.00000  Uiso   1.00
H1107  H     0.34211   0.60297   0.76144   0.00000  Uiso   1.00
H1108  H     0.15792   0.89700   0.90522   0.00000  Uiso   1.00
H1109  H     0.35616   0.91312   0.90462   0.00000  Uiso   1.00
H1110  H     0.14399   0.58704   0.76200   0.00000  Uiso   1.00
H1111  H     0.15808   0.60321   0.90519   0.00000  Uiso   1.00
H1112  H     0.34189   0.89675   0.76148   0.00000  Uiso   1.00
C1113  C     0.09406   0.84210   0.83318   0.00000  Uiso   1.00
C1114  C     0.40590   0.65793   0.83350   0.00000  Uiso   1.00
C1115  C     0.40595   0.84211   0.83350   0.00000  Uiso   1.00
C1116  C     0.09409   0.65793   0.83316   0.00000  Uiso   1.00
C1117  C     0.34407   0.59209   0.83318   0.00000  Uiso   1.00
C1118  C     0.15589   0.90795   0.83350   0.00000  Uiso   1.00
C1119  C     0.15592   0.59209   0.83350   0.00000  Uiso   1.00
C1120  C     0.34411   0.90795   0.83316   0.00000  Uiso   1.00
N1121  N     0.00182   0.83179   0.71355   0.00000  Uiso   1.00
O1122  O     0.46595   0.85065   0.72583   0.00000  Uiso   1.00
O1123  O     0.03515   0.85750   0.70721   0.00000  Uiso   1.00
N1124  N     0.49824   0.66822   0.95311   0.00000  Uiso   1.00
O1125  O     0.03414   0.64934   0.94096   0.00000  Uiso   1.00
O1126  O     0.46488   0.64252   0.95932   0.00000  Uiso   1.00
N1127  N     0.00190   0.66821   0.71348   0.00000  Uiso   1.00
O1128  O     0.46604   0.64933   0.72575   0.00000  Uiso   1.00
O1129  O     0.03523   0.64250   0.70712   0.00000  Uiso   1.00
N1130  N     0.49804   0.83179   0.95319   0.00000  Uiso   1.00
O1131  O     0.03387   0.85065   0.94080   0.00000  Uiso   1.00
O1132  O     0.46474   0.85752   0.95968   0.00000  Uiso   1.00
N1133  N     0.25181   0.58178   0.71355   0.00000  Uiso   1.00
O1134  O     0.21594   0.60067   0.72578   0.00000  Uiso   1.00
O1135  O     0.28516   0.60748   0.70727   0.00000  Uiso   1.00
N1136  N     0.24843   0.91822   0.95310   0.00000  Uiso   1.00
O1137  O     0.28440   0.89938   0.94114   0.00000  Uiso   1.00
O1138  O     0.21507   0.89248   0.95914   0.00000  Uiso   1.00
N1139  N     0.25177   0.91821   0.71349   0.00000  Uiso   1.00
O1140  O     0.21585   0.89937   0.72560   0.00000  Uiso   1.00
O1141  O     0.28510   0.89246   0.70726   0.00000  Uiso   1.00
N1142  N     0.24799   0.58179   0.95319   0.00000  Uiso   1.00
O1143  O     0.28382   0.60068   0.94081   0.00000  Uiso   1.00
O1144  O     0.21468   0.60749   0.95966   0.00000  Uiso   1.00
O1145  O     0.54580   0.70419   0.87154   0.00000  Uiso   1.00
O1146  O     0.95419   0.79581   0.79513   0.00000  Uiso   1.00
O1147  O     0.95419   0.79581   0.87154   0.00000  Uiso   1.00
O1148  O     0.54580   0.70419   0.79513   0.00000  Uiso   1.00
O1149  O     0.95419   0.70419   0.79513   0.00000  Uiso   1.00
O1150  O     0.54580   0.79581   0.87154   0.00000  Uiso   1.00
O1151  O     0.54580   0.79581   0.79513   0.00000  Uiso   1.00
O1152  O     0.95419   0.70419   0.87154   0.00000  Uiso   1.00
O1153  O     0.79580   0.95419   0.87154   0.00000  Uiso   1.00
O1154  O     0.70419   0.54581   0.79513   0.00000  Uiso   1.00
O1155  O     0.70419   0.54581   0.87154   0.00000  Uiso   1.00
O1156  O     0.79580   0.95419   0.79513   0.00000  Uiso   1.00
O1157  O     0.70419   0.95419   0.79513   0.00000  Uiso   1.00
O1158  O     0.79580   0.54581   0.87154   0.00000  Uiso   1.00
O1159  O     0.79580   0.54581   0.79513   0.00000  Uiso   1.00
O1160  O     0.70419   0.95419   0.87154   0.00000  Uiso   1.00
C1161  C     0.56043   0.69057   0.83326   0.00000  Uiso   1.00
C1162  C     0.93958   0.80944   0.83340   0.00000  Uiso   1.00
C1163  C     0.93957   0.69057   0.83340   0.00000  Uiso   1.00
C1164  C     0.56042   0.80944   0.83327   0.00000  Uiso   1.00
C1165  C     0.81044   0.94058   0.83326   0.00000  Uiso   1.00
C1166  C     0.68957   0.55943   0.83340   0.00000  Uiso   1.00
C1167  C     0.68956   0.94058   0.83340   0.00000  Uiso   1.00
C1168  C     0.81043   0.55943   0.83327   0.00000  Uiso   1.00
N1169  N     0.50000   0.75000   0.95240   0.00000  Uiso   1.00
N1170  N     0.50000   0.75000   0.71427   0.00000  Uiso   1.00
N1171  N     0.75000   0.50000   0.95240   0.00000  Uiso   1.00
N1172  N     0.75000   0.50000   0.71427   0.00000  Uiso   1.00
Zn1173 Zn    0.50000   0.75000   0.88437   0.00000  Uiso   1.00
Zn1174 Zn    0.50000   0.75000   0.78229   0.00000  Uiso   1.00
Zn1175 Zn    0.75000   0.50000   0.88437   0.00000  Uiso   1.00
Zn1176 Zn    0.75000   0.50000   0.78229   0.00000  Uiso   1.00
C1177  C     0.50013   0.78959   0.69055   0.00000  Uiso   1.00
C1178  C     0.99988   0.71040   0.97611   0.00000  Uiso   1.00
C1179  C     0.50019   0.71040   0.69052   0.00000  Uiso   1.00
C1180  C     0.99980   0.78960   0.97614   0.00000  Uiso   1.00
C1181  C     0.75012   0.53959   0.69056   0.00000  Uiso   1.00
C1182  C     0.74992   0.96040   0.97611   0.00000  Uiso   1.00
C1183  C     0.75018   0.96040   0.69052   0.00000  Uiso   1.00
C1184  C     0.74977   0.53960   0.97614   0.00000  Uiso   1.00
C1185  C     0.88632   0.64615   0.79319   0.00000  Uiso   1.00
C1186  C     0.61368   0.85386   0.87347   0.00000  Uiso   1.00
C1187  C     0.60597   0.86268   0.79297   0.00000  Uiso   1.00
C1188  C     0.89394   0.63742   0.87371   0.00000  Uiso   1.00
C1189  C     0.61377   0.64628   0.87344   0.00000  Uiso   1.00
C1190  C     0.88623   0.85372   0.79322   0.00000  Uiso   1.00
C1191  C     0.89415   0.86284   0.87367   0.00000  Uiso   1.00
C1192  C     0.60595   0.63727   0.79298   0.00000  Uiso   1.00
C1193  C     0.63626   0.89621   0.79321   0.00000  Uiso   1.00
C1194  C     0.86365   0.60389   0.87348   0.00000  Uiso   1.00
C1195  C     0.85603   0.61262   0.79296   0.00000  Uiso   1.00
C1196  C     0.64397   0.88739   0.87371   0.00000  Uiso   1.00
C1197  C     0.86385   0.89636   0.87342   0.00000  Uiso   1.00
C1198  C     0.63624   0.60374   0.79322   0.00000  Uiso   1.00
C1199  C     0.64407   0.61275   0.87369   0.00000  Uiso   1.00
C1200  C     0.85593   0.88725   0.79298   0.00000  Uiso   1.00
H1201  H     0.89413   0.66275   0.76196   0.00000  Uiso   1.00
H1202  H     0.60589   0.83723   0.90470   0.00000  Uiso   1.00
H1203  H     0.59201   0.85308   0.76146   0.00000  Uiso   1.00
H1204  H     0.90786   0.64707   0.90523   0.00000  Uiso   1.00
H1205  H     0.60603   0.66298   0.90466   0.00000  Uiso   1.00
H1206  H     0.89394   0.83699   0.76202   0.00000  Uiso   1.00
H1207  H     0.90821   0.85335   0.90516   0.00000  Uiso   1.00
H1208  H     0.59194   0.64681   0.76147   0.00000  Uiso   1.00
H1209  H     0.64404   0.91285   0.76198   0.00000  Uiso   1.00
H1210  H     0.85583   0.58730   0.90472   0.00000  Uiso   1.00
H1211  H     0.84211   0.60297   0.76144   0.00000  Uiso   1.00
H1212  H     0.65792   0.89700   0.90522   0.00000  Uiso   1.00
H1213  H     0.85616   0.91312   0.90462   0.00000  Uiso   1.00
H1214  H     0.64399   0.58704   0.76200   0.00000  Uiso   1.00
H1215  H     0.65808   0.60321   0.90519   0.00000  Uiso   1.00
H1216  H     0.84189   0.89675   0.76148   0.00000  Uiso   1.00
C1217  C     0.59406   0.84210   0.83318   0.00000  Uiso   1.00
C1218  C     0.90590   0.65793   0.83350   0.00000  Uiso   1.00
C1219  C     0.90595   0.84211   0.83350   0.00000  Uiso   1.00
C1220  C     0.59409   0.65793   0.83316   0.00000  Uiso   1.00
C1221  C     0.84407   0.59209   0.83318   0.00000  Uiso   1.00
C1222  C     0.65589   0.90795   0.83350   0.00000  Uiso   1.00
C1223  C     0.65592   0.59209   0.83350   0.00000  Uiso   1.00
C1224  C     0.84411   0.90795   0.83316   0.00000  Uiso   1.00
N1225  N     0.50182   0.83179   0.71355   0.00000  Uiso   1.00
O1226  O     0.96595   0.85065   0.72583   0.00000  Uiso   1.00
O1227  O     0.53515   0.85750   0.70721   0.00000  Uiso   1.00
N1228  N     0.99824   0.66822   0.95311   0.00000  Uiso   1.00
O1229  O     0.53414   0.64934   0.94096   0.00000  Uiso   1.00
O1230  O     0.96488   0.64252   0.95932   0.00000  Uiso   1.00
N1231  N     0.50190   0.66821   0.71348   0.00000  Uiso   1.00
O1232  O     0.96604   0.64933   0.72575   0.00000  Uiso   1.00
O1233  O     0.53523   0.64250   0.70712   0.00000  Uiso   1.00
N1234  N     0.99804   0.83179   0.95319   0.00000  Uiso   1.00
O1235  O     0.53387   0.85065   0.94080   0.00000  Uiso   1.00
O1236  O     0.96474   0.85752   0.95968   0.00000  Uiso   1.00
N1237  N     0.75181   0.58178   0.71355   0.00000  Uiso   1.00
O1238  O     0.71594   0.60067   0.72578   0.00000  Uiso   1.00
O1239  O     0.78516   0.60748   0.70727   0.00000  Uiso   1.00
N1240  N     0.74843   0.91822   0.95310   0.00000  Uiso   1.00
O1241  O     0.78440   0.89938   0.94114   0.00000  Uiso   1.00
O1242  O     0.71507   0.89248   0.95914   0.00000  Uiso   1.00
N1243  N     0.75177   0.91821   0.71349   0.00000  Uiso   1.00
O1244  O     0.71585   0.89937   0.72560   0.00000  Uiso   1.00
O1245  O     0.78510   0.89246   0.70726   0.00000  Uiso   1.00
N1246  N     0.74799   0.58179   0.95319   0.00000  Uiso   1.00
O1247  O     0.78382   0.60068   0.94081   0.00000  Uiso   1.00
O1248  O     0.71468   0.60749   0.95966   0.00000  Uiso   1.00
loop_
_geom_bond_atom_site_label_1
_geom_bond_atom_site_label_2
_geom_bond_distance
_geom_bond_site_symmetry_2
_ccdc_geom_bond_type
O1     C17     1.293   .     A
O1     Zn29    2.004   .     S
O2     C18     1.293   .     A
O2     Zn134   2.004   .     S
O3     C18     1.293   .     A
O3     Zn133   2.006   .     S
O4     C17     1.293   .     A
O4     Zn30    2.006   .     S
O5     Zn134   2.004   .     S
O5     C19     1.293   .     A
O6     C20     1.293   .     A
O6     Zn29    2.004   .     S
O7     C20     1.293   .     A
O7     Zn30    2.006   .     S
O8     Zn133   2.006   .     S
O8     C19     1.293   .     A
O9     C21     1.293   .     A
O9     Zn239   2.004   .     S
O10    C22     1.293   .     A
O10    Zn32    2.004   .     S
O11    Zn31    2.006   .     S
O11    C22     1.293   .     A
O12    C21     1.293   .     A
O12    Zn240   2.006   .     S
O13    C23     1.293   .     A
O13    Zn240   2.004   .     S
O14    Zn31    2.004   .     S
O14    C24     1.293   .     A
O15    Zn32    2.006   .     S
O15    C24     1.293   .     A
O16    C23     1.293   .     A
O16    Zn239   2.006   .     S
C17    C76     1.425   .     S
C18    C75     1.425   .     S
C19    C74     1.425   .     S
C20    C73     1.425   .     S
C21    C80     1.425   .     S
C22    C79     1.425   .     S
C23    C78     1.425   .     S
C24    C77     1.425   .     S
N25    Zn29    2.031   .     S
N25    C138    1.372   1_455 S
N25    C140    1.372   1_455 S
N26    C33     1.372   .     A
N26    C35     1.372   .     A
N26    Zn30    2.031   .     S
N27    Zn31    2.031   .     S
N27    C40     1.372   .     A
N27    C246    1.372   1_545 S
N28    Zn32    2.031   .     S
N28    C37     1.372   .     A
N28    C247    1.372   1_545 S
Zn29   O112    2.006   1_455 S
Zn29   O107    2.006   1_455 S
Zn30   O109    2.004   1_455 S
Zn30   O106    2.004   1_455 S
Zn31   O224    2.006   1_545 S
Zn31   O217    2.004   1_545 S
Zn32   O221    2.004   1_545 S
Zn32   O220    2.006   1_545 S
C33    N81     1.429   .     S
C33    C972    1.426   1_454 S
C34    N84     1.429   .     S
C34    N129    1.372   .     S
C34    C555    1.426   .     S
C35    N87     1.429   .     S
C35    C970    1.426   1_454 S
C36    N90     1.429   .     S
C36    C553    1.426   .     S
C36    N129    1.372   .     S
C37    N93     1.429   .     S
C37    C872    1.426   1_554 S
C38    N96     1.429   .     S
C38    N235    1.372   .     S
C38    C455    1.426   .     S
C39    N99     1.429   .     S
C39    N236    1.372   .     S
C39    C870    1.426   1_554 S
C40    N102    1.429   .     S
C40    C453    1.426   .     S
C41    C74     1.396   .     A
C41    H57     1.082   .     S
C41    C51     1.370   .     A
C42    H58     1.082   .     S
C42    C73     1.396   .     A
C42    C52     1.370   .     A
C43    C73     1.395   .     A
C43    H59     1.076   .     S
C43    C49     1.370   .     A
C44    C74     1.395   .     A
C44    C50     1.370   .     A
C44    H60     1.076   .     S
C45    C76     1.396   .     A
C45    H61     1.082   .     S
C45    C55     1.370   .     A
C46    H62     1.082   .     S
C46    C75     1.396   .     A
C46    C56     1.370   .     A
C47    H63     1.076   .     S
C47    C53     1.370   .     A
C47    C75     1.395   .     A
C48    C76     1.395   .     A
C48    C54     1.370   .     A
C48    H64     1.076   .     S
C49    H65     1.081   .     S
C49    C78     1.396   .     A
C50    H66     1.082   .     S
C50    C77     1.396   .     A
C51    C77     1.395   .     A
C51    H67     1.076   .     S
C52    H68     1.076   .     S
C52    C78     1.395   .     A
C53    H69     1.082   .     S
C53    C80     1.396   .     A
C54    C79     1.396   .     A
C54    H70     1.082   .     S
C55    C79     1.395   .     A
C55    H71     1.076   .     S
C56    H72     1.076   .     S
C56    C80     1.395   .     A
N81    O83     1.299   .     A
N81    O186    1.298   1_455 S
O82    N185    1.298   .     S
N84    O86     1.299   .     A
N84    O189    1.298   .     S
O85    N188    1.298   1_455 S
N87    O89     1.299   .     A
N87    O192    1.298   1_455 S
O88    N191    1.298   .     S
N90    O92     1.299   .     A
N90    O195    1.298   .     S
O91    N194    1.298   1_455 S
N93    O94     1.298   .     A
N93    O95     1.299   .     A
N96    O98     1.299   .     A
N96    O97     1.298   .     A
N99    O100    1.298   .     A
N99    O101    1.299   .     A
N102   O104    1.299   .     A
N102   O103    1.298   .     A
O105   C121    1.293   .     A
O105   Zn133   2.004   .     S
O106   C122    1.293   .     A
O106   Zn30    2.004   1_655 S
O107   C122    1.293   .     A
O107   Zn29    2.006   1_655 S
O108   C121    1.293   .     A
O108   Zn134   2.006   .     S
O109   Zn30    2.004   1_655 S
O109   C123    1.293   .     A
O110   C124    1.293   .     A
O110   Zn133   2.004   .     S
O111   C124    1.293   .     A
O111   Zn134   2.006   .     S
O112   Zn29    2.006   1_655 S
O112   C123    1.293   .     A
O113   C125    1.293   .     A
O113   Zn343   2.004   .     S
O114   C126    1.293   .     A
O114   Zn136   2.004   .     S
O115   Zn135   2.006   .     S
O115   C126    1.293   .     A
O116   C125    1.293   .     A
O116   Zn344   2.006   .     S
O117   C127    1.293   .     A
O117   Zn344   2.004   .     S
O118   Zn135   2.004   .     S
O118   C128    1.293   .     A
O119   Zn136   2.006   .     S
O119   C128    1.293   .     A
O120   C127    1.293   .     A
O120   Zn343   2.006   .     S
C121   C180    1.425   .     S
C122   C179    1.425   .     S
C123   C178    1.425   .     S
C124   C177    1.425   .     S
C125   C184    1.425   .     S
C126   C183    1.425   .     S
C127   C182    1.425   .     S
C128   C181    1.425   .     S
N129   Zn133   2.031   .     S
N130   C137    1.372   .     A
N130   C139    1.372   .     A
N130   Zn134   2.031   .     S
N131   Zn135   2.031   .     S
N131   C144    1.372   .     A
N131   C350    1.372   1_545 S
N132   Zn136   2.031   .     S
N132   C141    1.372   .     A
N132   C351    1.372   1_545 S
Zn135  O328    2.006   1_545 S
Zn135  O321    2.004   1_545 S
Zn136  O325    2.004   1_545 S
Zn136  O324    2.006   1_545 S
C137   N185    1.429   .     S
C137   C868    1.426   1_554 S
C138   N188    1.429   .     S
C138   N25     1.372   1_655 S
C138   C451    1.426   1_655 S
C139   N191    1.429   .     S
C139   C866    1.426   1_554 S
C140   N194    1.429   .     S
C140   C449    1.426   1_655 S
C140   N25     1.372   1_655 S
C141   N197    1.429   .     S
C141   C976    1.426   1_554 S
C142   N200    1.429   .     S
C142   N339    1.372   .     S
C142   C559    1.426   .     S
C143   N203    1.429   .     S
C143   N340    1.372   .     S
C143   C974    1.426   1_554 S
C144   N206    1.429   .     S
C144   C557    1.426   .     S
C145   C178    1.396   .     A
C145   H161    1.082   .     S
C145   C155    1.370   .     A
C146   H162    1.082   .     S
C146   C177    1.396   .     A
C146   C156    1.370   .     A
C147   C177    1.395   .     A
C147   H163    1.076   .     S
C147   C153    1.370   .     A
C148   C178    1.395   .     A
C148   C154    1.370   .     A
C148   H164    1.076   .     S
C149   C180    1.396   .     A
C149   H165    1.082   .     S
C149   C159    1.370   .     A
C150   H166    1.082   .     S
C150   C179    1.396   .     A
C150   C160    1.370   .     A
C151   H167    1.076   .     S
C151   C157    1.370   .     A
C151   C179    1.395   .     A
C152   C180    1.395   .     A
C152   C158    1.370   .     A
C152   H168    1.076   .     S
C153   H169    1.081   .     S
C153   C182    1.396   .     A
C154   H170    1.082   .     S
C154   C181    1.396   .     A
C155   C181    1.395   .     A
C155   H171    1.076   .     S
C156   H172    1.076   .     S
C156   C182    1.395   .     A
C157   H173    1.082   .     S
C157   C184    1.396   .     A
C158   C183    1.396   .     A
C158   H174    1.082   .     S
C159   C183    1.395   .     A
C159   H175    1.076   .     S
C160   H176    1.076   .     S
C160   C184    1.395   .     A
N185   O187    1.299   .     A
O186   N81     1.298   1_655 S
N188   O190    1.299   .     A
N188   O85     1.298   1_655 S
N191   O193    1.299   .     A
O192   N87     1.298   1_655 S
N194   O196    1.299   .     A
N194   O91     1.298   1_655 S
N197   O198    1.298   .     A
N197   O199    1.299   .     A
N200   O202    1.299   .     A
N200   O201    1.298   .     A
N203   O204    1.298   .     A
N203   O205    1.299   .     A
N206   O208    1.299   .     A
N206   O207    1.298   .     A
O209   C225    1.293   .     A
O209   Zn237   2.004   .     S
O210   C226    1.293   .     A
O210   Zn342   2.004   .     S
O211   C226    1.293   .     A
O211   Zn341   2.006   .     S
O212   C225    1.293   .     A
O212   Zn238   2.006   .     S
O213   Zn342   2.004   .     S
O213   C227    1.293   .     A
O214   C228    1.293   .     A
O214   Zn237   2.004   .     S
O215   C228    1.293   .     A
O215   Zn238   2.006   .     S
O216   Zn341   2.006   .     S
O216   C227    1.293   .     A
O217   C229    1.293   .     A
O217   Zn31    2.004   1_565 S
O218   C230    1.293   .     A
O218   Zn240   2.004   .     S
O219   Zn239   2.006   .     S
O219   C230    1.293   .     A
O220   C229    1.293   .     A
O220   Zn32    2.006   1_565 S
O221   C231    1.293   .     A
O221   Zn32    2.004   1_565 S
O222   Zn239   2.004   .     S
O222   C232    1.293   .     A
O223   Zn240   2.006   .     S
O223   C232    1.293   .     A
O224   C231    1.293   .     A
O224   Zn31    2.006   1_565 S
C225   C284    1.425   .     S
C226   C283    1.425   .     S
C227   C282    1.425   .     S
C228   C281    1.425   .     S
C229   C288    1.425   .     S
C230   C287    1.425   .     S
C231   C286    1.425   .     S
C232   C285    1.425   .     S
N233   Zn237   2.031   .     S
N233   C346    1.372   1_455 S
N233   C348    1.372   1_455 S
N234   C241    1.372   .     A
N234   C243    1.372   .     A
N234   Zn238   2.031   .     S
N235   Zn239   2.031   .     S
N235   C248    1.372   .     A
N236   Zn240   2.031   .     S
N236   C245    1.372   .     A
Zn237  O320    2.006   1_455 S
Zn237  O315    2.006   1_455 S
Zn238  O317    2.004   1_455 S
Zn238  O314    2.004   1_455 S
C241   N289    1.429   .     S
C241   C1180   1.426   1_454 S
C242   N292    1.429   .     S
C242   N337    1.372   .     S
C242   C763    1.426   .     S
C243   N295    1.429   .     S
C243   C1178   1.426   1_454 S
C244   N298    1.429   .     S
C244   C761    1.426   .     S
C244   N337    1.372   .     S
C245   N301    1.429   .     S
C245   C1080   1.426   1_554 S
C246   N304    1.429   .     S
C246   N27     1.372   1_565 S
C246   C663    1.426   .     S
C247   N307    1.429   .     S
C247   N28     1.372   1_565 S
C247   C1078   1.426   1_554 S
C248   N310    1.429   .     S
C248   C661    1.426   .     S
C249   C282    1.396   .     A
C249   H265    1.082   .     S
C249   C259    1.370   .     A
C250   H266    1.082   .     S
C250   C281    1.396   .     A
C250   C260    1.370   .     A
C251   C281    1.395   .     A
C251   H267    1.076   .     S
C251   C257    1.370   .     A
C252   C282    1.395   .     A
C252   C258    1.370   .     A
C252   H268    1.076   .     S
C253   C284    1.396   .     A
C253   H269    1.082   .     S
C253   C263    1.370   .     A
C254   H270    1.082   .     S
C254   C283    1.396   .     A
C254   C264    1.370   .     A
C255   H271    1.076   .     S
C255   C261    1.370   .     A
C255   C283    1.395   .     A
C256   C284    1.395   .     A
C256   C262    1.370   .     A
C256   H272    1.076   .     S
C257   H273    1.081   .     S
C257   C286    1.396   .     A
C258   H274    1.082   .     S
C258   C285    1.396   .     A
C259   C285    1.395   .     A
C259   H275    1.076   .     S
C260   H276    1.076   .     S
C260   C286    1.395   .     A
C261   H277    1.082   .     S
C261   C288    1.396   .     A
C262   C287    1.396   .     A
C262   H278    1.082   .     S
C263   C287    1.395   .     A
C263   H279    1.076   .     S
C264   H280    1.076   .     S
C264   C288    1.395   .     A
N289   O291    1.299   .     A
N289   O394    1.298   1_455 S
O290   N393    1.298   .     S
N292   O294    1.299   .     A
N292   O397    1.298   .     S
O293   N396    1.298   1_455 S
N295   O297    1.299   .     A
N295   O400    1.298   1_455 S
O296   N399    1.298   .     S
N298   O300    1.299   .     A
N298   O403    1.298   .     S
O299   N402    1.298   1_455 S
N301   O302    1.298   .     A
N301   O303    1.299   .     A
N304   O306    1.299   .     A
N304   O305    1.298   .     A
N307   O308    1.298   .     A
N307   O309    1.299   .     A
N310   O312    1.299   .     A
N310   O311    1.298   .     A
O313   C329    1.293   .     A
O313   Zn341   2.004   .     S
O314   C330    1.293   .     A
O314   Zn238   2.004   1_655 S
O315   C330    1.293   .     A
O315   Zn237   2.006   1_655 S
O316   C329    1.293   .     A
O316   Zn342   2.006   .     S
O317   Zn238   2.004   1_655 S
O317   C331    1.293   .     A
O318   C332    1.293   .     A
O318   Zn341   2.004   .     S
O319   C332    1.293   .     A
O319   Zn342   2.006   .     S
O320   Zn237   2.006   1_655 S
O320   C331    1.293   .     A
O321   C333    1.293   .     A
O321   Zn135   2.004   1_565 S
O322   C334    1.293   .     A
O322   Zn344   2.004   .     S
O323   Zn343   2.006   .     S
O323   C334    1.293   .     A
O324   C333    1.293   .     A
O324   Zn136   2.006   1_565 S
O325   C335    1.293   .     A
O325   Zn136   2.004   1_565 S
O326   Zn343   2.004   .     S
O326   C336    1.293   .     A
O327   Zn344   2.006   .     S
O327   C336    1.293   .     A
O328   C335    1.293   .     A
O328   Zn135   2.006   1_565 S
C329   C388    1.425   .     S
C330   C387    1.425   .     S
C331   C386    1.425   .     S
C332   C385    1.425   .     S
C333   C392    1.425   .     S
C334   C391    1.425   .     S
C335   C390    1.425   .     S
C336   C389    1.425   .     S
N337   Zn341   2.031   .     S
N338   C345    1.372   .     A
N338   C347    1.372   .     A
N338   Zn342   2.031   .     S
N339   Zn343   2.031   .     S
N339   C352    1.372   .     A
N340   Zn344   2.031   .     S
N340   C349    1.372   .     A
C345   N393    1.429   .     S
C345   C1076   1.426   1_554 S
C346   N396    1.429   .     S
C346   N233    1.372   1_655 S
C346   C659    1.426   1_655 S
C347   N399    1.429   .     S
C347   C1074   1.426   1_554 S
C348   N402    1.429   .     S
C348   C657    1.426   1_655 S
C348   N233    1.372   1_655 S
C349   N405    1.429   .     S
C349   C1184   1.426   1_554 S
C350   N408    1.429   .     S
C350   N131    1.372   1_565 S
C350   C767    1.426   .     S
C351   N411    1.429   .     S
C351   N132    1.372   1_565 S
C351   C1182   1.426   1_554 S
C352   N414    1.429   .     S
C352   C765    1.426   .     S
C353   C386    1.396   .     A
C353   H369    1.082   .     S
C353   C363    1.370   .     A
C354   H370    1.082   .     S
C354   C385    1.396   .     A
C354   C364    1.370   .     A
C355   C385    1.395   .     A
C355   H371    1.076   .     S
C355   C361    1.370   .     A
C356   C386    1.395   .     A
C356   C362    1.370   .     A
C356   H372    1.076   .     S
C357   C388    1.396   .     A
C357   H373    1.082   .     S
C357   C367    1.370   .     A
C358   H374    1.082   .     S
C358   C387    1.396   .     A
C358   C368    1.370   .     A
C359   H375    1.076   .     S
C359   C365    1.370   .     A
C359   C387    1.395   .     A
C360   C388    1.395   .     A
C360   C366    1.370   .     A
C360   H376    1.076   .     S
C361   H377    1.081   .     S
C361   C390    1.396   .     A
C362   H378    1.082   .     S
C362   C389    1.396   .     A
C363   C389    1.395   .     A
C363   H379    1.076   .     S
C364   H380    1.076   .     S
C364   C390    1.395   .     A
C365   H381    1.082   .     S
C365   C392    1.396   .     A
C366   C391    1.396   .     A
C366   H382    1.082   .     S
C367   C391    1.395   .     A
C367   H383    1.076   .     S
C368   H384    1.076   .     S
C368   C392    1.395   .     A
N393   O395    1.299   .     A
O394   N289    1.298   1_655 S
N396   O398    1.299   .     A
N396   O293    1.298   1_655 S
N399   O401    1.299   .     A
O400   N295    1.298   1_655 S
N402   O404    1.299   .     A
N402   O299    1.298   1_655 S
N405   O406    1.298   .     A
N405   O407    1.299   .     A
N408   O410    1.299   .     A
N408   O409    1.298   .     A
N411   O412    1.298   .     A
N411   O413    1.299   .     A
N414   O416    1.299   .     A
N414   O415    1.298   .     A
O417   C433    1.293   .     A
O417   Zn445   2.004   .     S
O418   C434    1.293   .     A
O418   Zn550   2.004   .     S
O419   C434    1.293   .     A
O419   Zn549   2.006   .     S
O420   C433    1.293   .     A
O420   Zn446   2.006   .     S
O421   Zn550   2.004   .     S
O421   C435    1.293   .     A
O422   C436    1.293   .     A
O422   Zn445   2.004   .     S
O423   C436    1.293   .     A
O423   Zn446   2.006   .     S
O424   Zn549   2.006   .     S
O424   C435    1.293   .     A
O425   C437    1.293   .     A
O425   Zn655   2.004   .     S
O426   C438    1.293   .     A
O426   Zn448   2.004   .     S
O427   Zn447   2.006   .     S
O427   C438    1.293   .     A
O428   C437    1.293   .     A
O428   Zn656   2.006   .     S
O429   C439    1.293   .     A
O429   Zn656   2.004   .     S
O430   Zn447   2.004   .     S
O430   C440    1.293   .     A
O431   Zn448   2.006   .     S
O431   C440    1.293   .     A
O432   C439    1.293   .     A
O432   Zn655   2.006   .     S
C433   C492    1.425   .     S
C434   C491    1.425   .     S
C435   C490    1.425   .     S
C436   C489    1.425   .     S
C437   C496    1.425   .     S
C438   C495    1.425   .     S
C439   C494    1.425   .     S
C440   C493    1.425   .     S
N441   Zn445   2.031   .     S
N441   C554    1.372   1_455 S
N441   C556    1.372   1_455 S
N442   C449    1.372   .     A
N442   C451    1.372   .     A
N442   Zn446   2.031   .     S
N443   Zn447   2.031   .     S
N443   C456    1.372   .     A
N443   C662    1.372   1_545 S
N444   Zn448   2.031   .     S
N444   C453    1.372   .     A
N444   C663    1.372   1_545 S
Zn445  O528    2.006   1_455 S
Zn445  O523    2.006   1_455 S
Zn446  O525    2.004   1_455 S
Zn446  O522    2.004   1_455 S
Zn447  O640    2.006   1_545 S
Zn447  O633    2.004   1_545 S
Zn448  O637    2.004   1_545 S
Zn448  O636    2.006   1_545 S
C449   N497    1.429   .     S
C449   C140    1.426   1_455 S
C450   N500    1.429   .     S
C450   N545    1.372   .     S
C450   C971    1.426   .     S
C451   N503    1.429   .     S
C451   C138    1.426   1_455 S
C452   N506    1.429   .     S
C452   C969    1.426   .     S
C452   N545    1.372   .     S
C453   N509    1.429   .     S
C454   N512    1.429   .     S
C454   N651    1.372   .     S
C454   C871    1.426   .     S
C455   N515    1.429   .     S
C455   N652    1.372   .     S
C456   N518    1.429   .     S
C456   C869    1.426   .     S
C457   C490    1.396   .     A
C457   H473    1.082   .     S
C457   C467    1.370   .     A
C458   H474    1.082   .     S
C458   C489    1.396   .     A
C458   C468    1.370   .     A
C459   C489    1.395   .     A
C459   H475    1.076   .     S
C459   C465    1.370   .     A
C460   C490    1.395   .     A
C460   C466    1.370   .     A
C460   H476    1.076   .     S
C461   C492    1.396   .     A
C461   H477    1.082   .     S
C461   C471    1.370   .     A
C462   H478    1.082   .     S
C462   C491    1.396   .     A
C462   C472    1.370   .     A
C463   H479    1.076   .     S
C463   C469    1.370   .     A
C463   C491    1.395   .     A
C464   C492    1.395   .     A
C464   C470    1.370   .     A
C464   H480    1.076   .     S
C465   H481    1.081   .     S
C465   C494    1.396   .     A
C466   H482    1.082   .     S
C466   C493    1.396   .     A
C467   C493    1.395   .     A
C467   H483    1.076   .     S
C468   H484    1.076   .     S
C468   C494    1.395   .     A
C469   H485    1.082   .     S
C469   C496    1.396   .     A
C470   C495    1.396   .     A
C470   H486    1.082   .     S
C471   C495    1.395   .     A
C471   H487    1.076   .     S
C472   H488    1.076   .     S
C472   C496    1.395   .     A
N497   O499    1.299   .     A
N497   O602    1.298   1_455 S
O498   N601    1.298   .     S
N500   O502    1.299   .     A
N500   O605    1.298   .     S
O501   N604    1.298   1_455 S
N503   O505    1.299   .     A
N503   O608    1.298   1_455 S
O504   N607    1.298   .     S
N506   O508    1.299   .     A
N506   O611    1.298   .     S
O507   N610    1.298   1_455 S
N509   O510    1.298   .     A
N509   O511    1.299   .     A
N512   O514    1.299   .     A
N512   O513    1.298   .     A
N515   O516    1.298   .     A
N515   O517    1.299   .     A
N518   O520    1.299   .     A
N518   O519    1.298   .     A
O521   C537    1.293   .     A
O521   Zn549   2.004   .     S
O522   C538    1.293   .     A
O522   Zn446   2.004   1_655 S
O523   C538    1.293   .     A
O523   Zn445   2.006   1_655 S
O524   C537    1.293   .     A
O524   Zn550   2.006   .     S
O525   Zn446   2.004   1_655 S
O525   C539    1.293   .     A
O526   C540    1.293   .     A
O526   Zn549   2.004   .     S
O527   C540    1.293   .     A
O527   Zn550   2.006   .     S
O528   Zn445   2.006   1_655 S
O528   C539    1.293   .     A
O529   C541    1.293   .     A
O529   Zn759   2.004   .     S
O530   C542    1.293   .     A
O530   Zn552   2.004   .     S
O531   Zn551   2.006   .     S
O531   C542    1.293   .     A
O532   C541    1.293   .     A
O532   Zn760   2.006   .     S
O533   C543    1.293   .     A
O533   Zn760   2.004   .     S
O534   Zn551   2.004   .     S
O534   C544    1.293   .     A
O535   Zn552   2.006   .     S
O535   C544    1.293   .     A
O536   C543    1.293   .     A
O536   Zn759   2.006   .     S
C537   C596    1.425   .     S
C538   C595    1.425   .     S
C539   C594    1.425   .     S
C540   C593    1.425   .     S
C541   C600    1.425   .     S
C542   C599    1.425   .     S
C543   C598    1.425   .     S
C544   C597    1.425   .     S
N545   Zn549   2.031   .     S
N546   C553    1.372   .     A
N546   C555    1.372   .     A
N546   Zn550   2.031   .     S
N547   Zn551   2.031   .     S
N547   C560    1.372   .     A
N547   C766    1.372   1_545 S
N548   Zn552   2.031   .     S
N548   C557    1.372   .     A
N548   C767    1.372   1_545 S
Zn551  O744    2.006   1_545 S
Zn551  O737    2.004   1_545 S
Zn552  O741    2.004   1_545 S
Zn552  O740    2.006   1_545 S
C553   N601    1.429   .     S
C554   N604    1.429   .     S
C554   N441    1.372   1_655 S
C554   C867    1.426   1_655 S
C555   N607    1.429   .     S
C556   N610    1.429   .     S
C556   C865    1.426   1_655 S
C556   N441    1.372   1_655 S
C557   N613    1.429   .     S
C558   N616    1.429   .     S
C558   N755    1.372   .     S
C558   C975    1.426   .     S
C559   N619    1.429   .     S
C559   N756    1.372   .     S
C560   N622    1.429   .     S
C560   C973    1.426   .     S
C561   C594    1.396   .     A
C561   H577    1.082   .     S
C561   C571    1.370   .     A
C562   H578    1.082   .     S
C562   C593    1.396   .     A
C562   C572    1.370   .     A
C563   C593    1.395   .     A
C563   H579    1.076   .     S
C563   C569    1.370   .     A
C564   C594    1.395   .     A
C564   C570    1.370   .     A
C564   H580    1.076   .     S
C565   C596    1.396   .     A
C565   H581    1.082   .     S
C565   C575    1.370   .     A
C566   H582    1.082   .     S
C566   C595    1.396   .     A
C566   C576    1.370   .     A
C567   H583    1.076   .     S
C567   C573    1.370   .     A
C567   C595    1.395   .     A
C568   C596    1.395   .     A
C568   C574    1.370   .     A
C568   H584    1.076   .     S
C569   H585    1.081   .     S
C569   C598    1.396   .     A
C570   H586    1.082   .     S
C570   C597    1.396   .     A
C571   C597    1.395   .     A
C571   H587    1.076   .     S
C572   H588    1.076   .     S
C572   C598    1.395   .     A
C573   H589    1.082   .     S
C573   C600    1.396   .     A
C574   C599    1.396   .     A
C574   H590    1.082   .     S
C575   C599    1.395   .     A
C575   H591    1.076   .     S
C576   H592    1.076   .     S
C576   C600    1.395   .     A
N601   O603    1.299   .     A
O602   N497    1.298   1_655 S
N604   O606    1.299   .     A
N604   O501    1.298   1_655 S
N607   O609    1.299   .     A
O608   N503    1.298   1_655 S
N610   O612    1.299   .     A
N610   O507    1.298   1_655 S
N613   O614    1.298   .     A
N613   O615    1.299   .     A
N616   O618    1.299   .     A
N616   O617    1.298   .     A
N619   O620    1.298   .     A
N619   O621    1.299   .     A
N622   O624    1.299   .     A
N622   O623    1.298   .     A
O625   C641    1.293   .     A
O625   Zn653   2.004   .     S
O626   C642    1.293   .     A
O626   Zn758   2.004   .     S
O627   C642    1.293   .     A
O627   Zn757   2.006   .     S
O628   C641    1.293   .     A
O628   Zn654   2.006   .     S
O629   Zn758   2.004   .     S
O629   C643    1.293   .     A
O630   C644    1.293   .     A
O630   Zn653   2.004   .     S
O631   C644    1.293   .     A
O631   Zn654   2.006   .     S
O632   Zn757   2.006   .     S
O632   C643    1.293   .     A
O633   C645    1.293   .     A
O633   Zn447   2.004   1_565 S
O634   C646    1.293   .     A
O634   Zn656   2.004   .     S
O635   Zn655   2.006   .     S
O635   C646    1.293   .     A
O636   C645    1.293   .     A
O636   Zn448   2.006   1_565 S
O637   C647    1.293   .     A
O637   Zn448   2.004   1_565 S
O638   Zn655   2.004   .     S
O638   C648    1.293   .     A
O639   Zn656   2.006   .     S
O639   C648    1.293   .     A
O640   C647    1.293   .     A
O640   Zn447   2.006   1_565 S
C641   C700    1.425   .     S
C642   C699    1.425   .     S
C643   C698    1.425   .     S
C644   C697    1.425   .     S
C645   C704    1.425   .     S
C646   C703    1.425   .     S
C647   C702    1.425   .     S
C648   C701    1.425   .     S
N649   Zn653   2.031   .     S
N649   C762    1.372   1_455 S
N649   C764    1.372   1_455 S
N650   C657    1.372   .     A
N650   C659    1.372   .     A
N650   Zn654   2.031   .     S
N651   Zn655   2.031   .     S
N651   C664    1.372   .     A
N652   Zn656   2.031   .     S
N652   C661    1.372   .     A
Zn653  O736    2.006   1_455 S
Zn653  O731    2.006   1_455 S
Zn654  O733    2.004   1_455 S
Zn654  O730    2.004   1_455 S
C657   N705    1.429   .     S
C657   C348    1.426   1_455 S
C658   N708    1.429   .     S
C658   N753    1.372   .     S
C658   C1179   1.426   .     S
C659   N711    1.429   .     S
C659   C346    1.426   1_455 S
C660   N714    1.429   .     S
C660   C1177   1.426   .     S
C660   N753    1.372   .     S
C661   N717    1.429   .     S
C662   N720    1.429   .     S
C662   N443    1.372   1_565 S
C662   C1079   1.426   .     S
C663   N723    1.429   .     S
C663   N444    1.372   1_565 S
C664   N726    1.429   .     S
C664   C1077   1.426   .     S
C665   C698    1.396   .     A
C665   H681    1.082   .     S
C665   C675    1.370   .     A
C666   H682    1.082   .     S
C666   C697    1.396   .     A
C666   C676    1.370   .     A
C667   C697    1.395   .     A
C667   H683    1.076   .     S
C667   C673    1.370   .     A
C668   C698    1.395   .     A
C668   C674    1.370   .     A
C668   H684    1.076   .     S
C669   C700    1.396   .     A
C669   H685    1.082   .     S
C669   C679    1.370   .     A
C670   H686    1.082   .     S
C670   C699    1.396   .     A
C670   C680    1.370   .     A
C671   H687    1.076   .     S
C671   C677    1.370   .     A
C671   C699    1.395   .     A
C672   C700    1.395   .     A
C672   C678    1.370   .     A
C672   H688    1.076   .     S
C673   H689    1.081   .     S
C673   C702    1.396   .     A
C674   H690    1.082   .     S
C674   C701    1.396   .     A
C675   C701    1.395   .     A
C675   H691    1.076   .     S
C676   H692    1.076   .     S
C676   C702    1.395   .     A
C677   H693    1.082   .     S
C677   C704    1.396   .     A
C678   C703    1.396   .     A
C678   H694    1.082   .     S
C679   C703    1.395   .     A
C679   H695    1.076   .     S
C680   H696    1.076   .     S
C680   C704    1.395   .     A
N705   O707    1.299   .     A
N705   O810    1.298   1_455 S
O706   N809    1.298   .     S
N708   O710    1.299   .     A
N708   O813    1.298   .     S
O709   N812    1.298   1_455 S
N711   O713    1.299   .     A
N711   O816    1.298   1_455 S
O712   N815    1.298   .     S
N714   O716    1.299   .     A
N714   O819    1.298   .     S
O715   N818    1.298   1_455 S
N717   O718    1.298   .     A
N717   O719    1.299   .     A
N720   O722    1.299   .     A
N720   O721    1.298   .     A
N723   O724    1.298   .     A
N723   O725    1.299   .     A
N726   O728    1.299   .     A
N726   O727    1.298   .     A
O729   C745    1.293   .     A
O729   Zn757   2.004   .     S
O730   C746    1.293   .     A
O730   Zn654   2.004   1_655 S
O731   C746    1.293   .     A
O731   Zn653   2.006   1_655 S
O732   C745    1.293   .     A
O732   Zn758   2.006   .     S
O733   Zn654   2.004   1_655 S
O733   C747    1.293   .     A
O734   C748    1.293   .     A
O734   Zn757   2.004   .     S
O735   C748    1.293   .     A
O735   Zn758   2.006   .     S
O736   Zn653   2.006   1_655 S
O736   C747    1.293   .     A
O737   C749    1.293   .     A
O737   Zn551   2.004   1_565 S
O738   C750    1.293   .     A
O738   Zn760   2.004   .     S
O739   Zn759   2.006   .     S
O739   C750    1.293   .     A
O740   C749    1.293   .     A
O740   Zn552   2.006   1_565 S
O741   C751    1.293   .     A
O741   Zn552   2.004   1_565 S
O742   Zn759   2.004   .     S
O742   C752    1.293   .     A
O743   Zn760   2.006   .     S
O743   C752    1.293   .     A
O744   C751    1.293   .     A
O744   Zn551   2.006   1_565 S
C745   C804    1.425   .     S
C746   C803    1.425   .     S
C747   C802    1.425   .     S
C748   C801    1.425   .     S
C749   C808    1.425   .     S
C750   C807    1.425   .     S
C751   C806    1.425   .     S
C752   C805    1.425   .     S
N753   Zn757   2.031   .     S
N754   C761    1.372   .     A
N754   C763    1.372   .     A
N754   Zn758   2.031   .     S
N755   Zn759   2.031   .     S
N755   C768    1.372   .     A
N756   Zn760   2.031   .     S
N756   C765    1.372   .     A
C761   N809    1.429   .     S
C762   N812    1.429   .     S
C762   N649    1.372   1_655 S
C762   C1075   1.426   1_655 S
C763   N815    1.429   .     S
C764   N818    1.429   .     S
C764   C1073   1.426   1_655 S
C764   N649    1.372   1_655 S
C765   N821    1.429   .     S
C766   N824    1.429   .     S
C766   N547    1.372   1_565 S
C766   C1183   1.426   .     S
C767   N827    1.429   .     S
C767   N548    1.372   1_565 S
C768   N830    1.429   .     S
C768   C1181   1.426   .     S
C769   C802    1.396   .     A
C769   H785    1.082   .     S
C769   C779    1.370   .     A
C770   H786    1.082   .     S
C770   C801    1.396   .     A
C770   C780    1.370   .     A
C771   C801    1.395   .     A
C771   H787    1.076   .     S
C771   C777    1.370   .     A
C772   C802    1.395   .     A
C772   C778    1.370   .     A
C772   H788    1.076   .     S
C773   C804    1.396   .     A
C773   H789    1.082   .     S
C773   C783    1.370   .     A
C774   H790    1.082   .     S
C774   C803    1.396   .     A
C774   C784    1.370   .     A
C775   H791    1.076   .     S
C775   C781    1.370   .     A
C775   C803    1.395   .     A
C776   C804    1.395   .     A
C776   C782    1.370   .     A
C776   H792    1.076   .     S
C777   H793    1.081   .     S
C777   C806    1.396   .     A
C778   H794    1.082   .     S
C778   C805    1.396   .     A
C779   C805    1.395   .     A
C779   H795    1.076   .     S
C780   H796    1.076   .     S
C780   C806    1.395   .     A
C781   H797    1.082   .     S
C781   C808    1.396   .     A
C782   C807    1.396   .     A
C782   H798    1.082   .     S
C783   C807    1.395   .     A
C783   H799    1.076   .     S
C784   H800    1.076   .     S
C784   C808    1.395   .     A
N809   O811    1.299   .     A
O810   N705    1.298   1_655 S
N812   O814    1.299   .     A
N812   O709    1.298   1_655 S
N815   O817    1.299   .     A
O816   N711    1.298   1_655 S
N818   O820    1.299   .     A
N818   O715    1.298   1_655 S
N821   O822    1.298   .     A
N821   O823    1.299   .     A
N824   O826    1.299   .     A
N824   O825    1.298   .     A
N827   O828    1.298   .     A
N827   O829    1.299   .     A
N830   O832    1.299   .     A
N830   O831    1.298   .     A
O833   C849    1.293   .     A
O833   Zn861   2.004   .     S
O834   C850    1.293   .     A
O834   Zn966   2.004   .     S
O835   C850    1.293   .     A
O835   Zn965   2.006   .     S
O836   C849    1.293   .     A
O836   Zn862   2.006   .     S
O837   Zn966   2.004   .     S
O837   C851    1.293   .     A
O838   C852    1.293   .     A
O838   Zn861   2.004   .     S
O839   C852    1.293   .     A
O839   Zn862   2.006   .     S
O840   Zn965   2.006   .     S
O840   C851    1.293   .     A
O841   C853    1.293   .     A
O841   Zn1071  2.004   .     S
O842   C854    1.293   .     A
O842   Zn864   2.004   .     S
O843   Zn863   2.006   .     S
O843   C854    1.293   .     A
O844   C853    1.293   .     A
O844   Zn1072  2.006   .     S
O845   C855    1.293   .     A
O845   Zn1072  2.004   .     S
O846   Zn863   2.004   .     S
O846   C856    1.293   .     A
O847   Zn864   2.006   .     S
O847   C856    1.293   .     A
O848   C855    1.293   .     A
O848   Zn1071  2.006   .     S
C849   C908    1.425   .     S
C850   C907    1.425   .     S
C851   C906    1.425   .     S
C852   C905    1.425   .     S
C853   C912    1.425   .     S
C854   C911    1.425   .     S
C855   C910    1.425   .     S
C856   C909    1.425   .     S
N857   Zn861   2.031   .     S
N857   C970    1.372   1_455 S
N857   C972    1.372   1_455 S
N858   C865    1.372   .     A
N858   C867    1.372   .     A
N858   Zn862   2.031   .     S
N859   Zn863   2.031   .     S
N859   C872    1.372   .     A
N859   C1078   1.372   1_545 S
N860   Zn864   2.031   .     S
N860   C869    1.372   .     A
N860   C1079   1.372   1_545 S
Zn861  O944    2.006   1_455 S
Zn861  O939    2.006   1_455 S
Zn862  O941    2.004   1_455 S
Zn862  O938    2.004   1_455 S
Zn863  O1056   2.006   1_545 S
Zn863  O1049   2.004   1_545 S
Zn864  O1053   2.004   1_545 S
Zn864  O1052   2.006   1_545 S
C865   N913    1.429   .     S
C865   C556    1.426   1_455 S
C866   N916    1.429   .     S
C866   N961    1.372   .     S
C866   C139    1.426   1_556 S
C867   N919    1.429   .     S
C867   C554    1.426   1_455 S
C868   N922    1.429   .     S
C868   C137    1.426   1_556 S
C868   N961    1.372   .     S
C869   N925    1.429   .     S
C870   N928    1.429   .     S
C870   N1067   1.372   .     S
C870   C39     1.426   1_556 S
C871   N931    1.429   .     S
C871   N1068   1.372   .     S
C872   N934    1.429   .     S
C872   C37     1.426   1_556 S
C873   C906    1.396   .     A
C873   H889    1.082   .     S
C873   C883    1.370   .     A
C874   H890    1.082   .     S
C874   C905    1.396   .     A
C874   C884    1.370   .     A
C875   C905    1.395   .     A
C875   H891    1.076   .     S
C875   C881    1.370   .     A
C876   C906    1.395   .     A
C876   C882    1.370   .     A
C876   H892    1.076   .     S
C877   C908    1.396   .     A
C877   H893    1.082   .     S
C877   C887    1.370   .     A
C878   H894    1.082   .     S
C878   C907    1.396   .     A
C878   C888    1.370   .     A
C879   H895    1.076   .     S
C879   C885    1.370   .     A
C879   C907    1.395   .     A
C880   C908    1.395   .     A
C880   C886    1.370   .     A
C880   H896    1.076   .     S
C881   H897    1.081   .     S
C881   C910    1.396   .     A
C882   H898    1.082   .     S
C882   C909    1.396   .     A
C883   C909    1.395   .     A
C883   H899    1.076   .     S
C884   H900    1.076   .     S
C884   C910    1.395   .     A
C885   H901    1.082   .     S
C885   C912    1.396   .     A
C886   C911    1.396   .     A
C886   H902    1.082   .     S
C887   C911    1.395   .     A
C887   H903    1.076   .     S
C888   H904    1.076   .     S
C888   C912    1.395   .     A
N913   O915    1.299   .     A
N913   O1018   1.298   1_455 S
O914   N1017   1.298   .     S
N916   O918    1.299   .     A
N916   O1021   1.298   .     S
O917   N1020   1.298   1_455 S
N919   O921    1.299   .     A
N919   O1024   1.298   1_455 S
O920   N1023   1.298   .     S
N922   O924    1.299   .     A
N922   O1027   1.298   .     S
O923   N1026   1.298   1_455 S
N925   O926    1.298   .     A
N925   O927    1.299   .     A
N928   O930    1.299   .     A
N928   O929    1.298   .     A
N931   O932    1.298   .     A
N931   O933    1.299   .     A
N934   O936    1.299   .     A
N934   O935    1.298   .     A
O937   C953    1.293   .     A
O937   Zn965   2.004   .     S
O938   C954    1.293   .     A
O938   Zn862   2.004   1_655 S
O939   C954    1.293   .     A
O939   Zn861   2.006   1_655 S
O940   C953    1.293   .     A
O940   Zn966   2.006   .     S
O941   Zn862   2.004   1_655 S
O941   C955    1.293   .     A
O942   C956    1.293   .     A
O942   Zn965   2.004   .     S
O943   C956    1.293   .     A
O943   Zn966   2.006   .     S
O944   Zn861   2.006   1_655 S
O944   C955    1.293   .     A
O945   C957    1.293   .     A
O945   Zn1175  2.004   .     S
O946   C958    1.293   .     A
O946   Zn968   2.004   .     S
O947   Zn967   2.006   .     S
O947   C958    1.293   .     A
O948   C957    1.293   .     A
O948   Zn1176  2.006   .     S
O949   C959    1.293   .     A
O949   Zn1176  2.004   .     S
O950   Zn967   2.004   .     S
O950   C960    1.293   .     A
O951   Zn968   2.006   .     S
O951   C960    1.293   .     A
O952   C959    1.293   .     A
O952   Zn1175  2.006   .     S
C953   C1012   1.425   .     S
C954   C1011   1.425   .     S
C955   C1010   1.425   .     S
C956   C1009   1.425   .     S
C957   C1016   1.425   .     S
C958   C1015   1.425   .     S
C959   C1014   1.425   .     S
C960   C1013   1.425   .     S
N961   Zn965   2.031   .     S
N962   C969    1.372   .     A
N962   C971    1.372   .     A
N962   Zn966   2.031   .     S
N963   Zn967   2.031   .     S
N963   C976    1.372   .     A
N963   C1182   1.372   1_545 S
N964   Zn968   2.031   .     S
N964   C973    1.372   .     A
N964   C1183   1.372   1_545 S
Zn967  O1160   2.006   1_545 S
Zn967  O1153   2.004   1_545 S
Zn968  O1157   2.004   1_545 S
Zn968  O1156   2.006   1_545 S
C969   N1017   1.429   .     S
C970   N1020   1.429   .     S
C970   N857    1.372   1_655 S
C970   C35     1.426   1_656 S
C971   N1023   1.429   .     S
C972   N1026   1.429   .     S
C972   C33     1.426   1_656 S
C972   N857    1.372   1_655 S
C973   N1029   1.429   .     S
C974   N1032   1.429   .     S
C974   N1171   1.372   .     S
C974   C143    1.426   1_556 S
C975   N1035   1.429   .     S
C975   N1172   1.372   .     S
C976   N1038   1.429   .     S
C976   C141    1.426   1_556 S
C977   C1010   1.396   .     A
C977   H993    1.082   .     S
C977   C987    1.370   .     A
C978   H994    1.082   .     S
C978   C1009   1.396   .     A
C978   C988    1.370   .     A
C979   C1009   1.395   .     A
C979   H995    1.076   .     S
C979   C985    1.370   .     A
C980   C1010   1.395   .     A
C980   C986    1.370   .     A
C980   H996    1.076   .     S
C981   C1012   1.396   .     A
C981   H997    1.082   .     S
C981   C991    1.370   .     A
C982   H998    1.082   .     S
C982   C1011   1.396   .     A
C982   C992    1.370   .     A
C983   H999    1.076   .     S
C983   C989    1.370   .     A
C983   C1011   1.395   .     A
C984   C1012   1.395   .     A
C984   C990    1.370   .     A
C984   H1000   1.076   .     S
C985   H1001   1.081   .     S
C985   C1014   1.396   .     A
C986   H1002   1.082   .     S
C986   C1013   1.396   .     A
C987   C1013   1.395   .     A
C987   H1003   1.076   .     S
C988   H1004   1.076   .     S
C988   C1014   1.395   .     A
C989   H1005   1.082   .     S
C989   C1016   1.396   .     A
C990   C1015   1.396   .     A
C990   H1006   1.082   .     S
C991   C1015   1.395   .     A
C991   H1007   1.076   .     S
C992   H1008   1.076   .     S
C992   C1016   1.395   .     A
N1017  O1019   1.299   .     A
O1018  N913    1.298   1_655 S
N1020  O1022   1.299   .     A
N1020  O917    1.298   1_655 S
N1023  O1025   1.299   .     A
O1024  N919    1.298   1_655 S
N1026  O1028   1.299   .     A
N1026  O923    1.298   1_655 S
N1029  O1030   1.298   .     A
N1029  O1031   1.299   .     A
N1032  O1034   1.299   .     A
N1032  O1033   1.298   .     A
N1035  O1036   1.298   .     A
N1035  O1037   1.299   .     A
N1038  O1040   1.299   .     A
N1038  O1039   1.298   .     A
O1041  C1057   1.293   .     A
O1041  Zn1069  2.004   .     S
O1042  C1058   1.293   .     A
O1042  Zn1174  2.004   .     S
O1043  C1058   1.293   .     A
O1043  Zn1173  2.006   .     S
O1044  C1057   1.293   .     A
O1044  Zn1070  2.006   .     S
O1045  Zn1174  2.004   .     S
O1045  C1059   1.293   .     A
O1046  C1060   1.293   .     A
O1046  Zn1069  2.004   .     S
O1047  C1060   1.293   .     A
O1047  Zn1070  2.006   .     S
O1048  Zn1173  2.006   .     S
O1048  C1059   1.293   .     A
O1049  C1061   1.293   .     A
O1049  Zn863   2.004   1_565 S
O1050  C1062   1.293   .     A
O1050  Zn1072  2.004   .     S
O1051  Zn1071  2.006   .     S
O1051  C1062   1.293   .     A
O1052  C1061   1.293   .     A
O1052  Zn864   2.006   1_565 S
O1053  C1063   1.293   .     A
O1053  Zn864   2.004   1_565 S
O1054  Zn1071  2.004   .     S
O1054  C1064   1.293   .     A
O1055  Zn1072  2.006   .     S
O1055  C1064   1.293   .     A
O1056  C1063   1.293   .     A
O1056  Zn863   2.006   1_565 S
C1057  C1116   1.425   .     S
C1058  C1115   1.425   .     S
C1059  C1114   1.425   .     S
C1060  C1113   1.425   .     S
C1061  C1120   1.425   .     S
C1062  C1119   1.425   .     S
C1063  C1118   1.425   .     S
C1064  C1117   1.425   .     S
N1065  Zn1069  2.031   .     S
N1065  C1178   1.372   1_455 S
N1065  C1180   1.372   1_455 S
N1066  C1073   1.372   .     A
N1066  C1075   1.372   .     A
N1066  Zn1070  2.031   .     S
N1067  Zn1071  2.031   .     S
N1067  C1080   1.372   .     A
N1068  Zn1072  2.031   .     S
N1068  C1077   1.372   .     A
Zn1069 O1152   2.006   1_455 S
Zn1069 O1147   2.006   1_455 S
Zn1070 O1149   2.004   1_455 S
Zn1070 O1146   2.004   1_455 S
C1073  N1121   1.429   .     S
C1073  C764    1.426   1_455 S
C1074  N1124   1.429   .     S
C1074  N1169   1.372   .     S
C1074  C347    1.426   1_556 S
C1075  N1127   1.429   .     S
C1075  C762    1.426   1_455 S
C1076  N1130   1.429   .     S
C1076  C345    1.426   1_556 S
C1076  N1169   1.372   .     S
C1077  N1133   1.429   .     S
C1078  N1136   1.429   .     S
C1078  N859    1.372   1_565 S
C1078  C247    1.426   1_556 S
C1079  N1139   1.429   .     S
C1079  N860    1.372   1_565 S
C1080  N1142   1.429   .     S
C1080  C245    1.426   1_556 S
C1081  C1114   1.396   .     A
C1081  H1097   1.082   .     S
C1081  C1091   1.370   .     A
C1082  H1098   1.082   .     S
C1082  C1113   1.396   .     A
C1082  C1092   1.370   .     A
C1083  C1113   1.395   .     A
C1083  H1099   1.076   .     S
C1083  C1089   1.370   .     A
C1084  C1114   1.395   .     A
C1084  C1090   1.370   .     A
C1084  H1100   1.076   .     S
C1085  C1116   1.396   .     A
C1085  H1101   1.082   .     S
C1085  C1095   1.370   .     A
C1086  H1102   1.082   .     S
C1086  C1115   1.396   .     A
C1086  C1096   1.370   .     A
C1087  H1103   1.076   .     S
C1087  C1093   1.370   .     A
C1087  C1115   1.395   .     A
C1088  C1116   1.395   .     A
C1088  C1094   1.370   .     A
C1088  H1104   1.076   .     S
C1089  H1105   1.081   .     S
C1089  C1118   1.396   .     A
C1090  H1106   1.082   .     S
C1090  C1117   1.396   .     A
C1091  C1117   1.395   .     A
C1091  H1107   1.076   .     S
C1092  H1108   1.076   .     S
C1092  C1118   1.395   .     A
C1093  H1109   1.082   .     S
C1093  C1120   1.396   .     A
C1094  C1119   1.396   .     A
C1094  H1110   1.082   .     S
C1095  C1119   1.395   .     A
C1095  H1111   1.076   .     S
C1096  H1112   1.076   .     S
C1096  C1120   1.395   .     A
N1121  O1123   1.299   .     A
N1121  O1226   1.298   1_455 S
O1122  N1225   1.298   .     S
N1124  O1126   1.299   .     A
N1124  O1229   1.298   .     S
O1125  N1228   1.298   1_455 S
N1127  O1129   1.299   .     A
N1127  O1232   1.298   1_455 S
O1128  N1231   1.298   .     S
N1130  O1132   1.299   .     A
N1130  O1235   1.298   .     S
O1131  N1234   1.298   1_455 S
N1133  O1134   1.298   .     A
N1133  O1135   1.299   .     A
N1136  O1138   1.299   .     A
N1136  O1137   1.298   .     A
N1139  O1140   1.298   .     A
N1139  O1141   1.299   .     A
N1142  O1144   1.299   .     A
N1142  O1143   1.298   .     A
O1145  C1161   1.293   .     A
O1145  Zn1173  2.004   .     S
O1146  C1162   1.293   .     A
O1146  Zn1070  2.004   1_655 S
O1147  C1162   1.293   .     A
O1147  Zn1069  2.006   1_655 S
O1148  C1161   1.293   .     A
O1148  Zn1174  2.006   .     S
O1149  Zn1070  2.004   1_655 S
O1149  C1163   1.293   .     A
O1150  C1164   1.293   .     A
O1150  Zn1173  2.004   .     S
O1151  C1164   1.293   .     A
O1151  Zn1174  2.006   .     S
O1152  Zn1069  2.006   1_655 S
O1152  C1163   1.293   .     A
O1153  C1165   1.293   .     A
O1153  Zn967   2.004   1_565 S
O1154  C1166   1.293   .     A
O1154  Zn1176  2.004   .     S
O1155  Zn1175  2.006   .     S
O1155  C1166   1.293   .     A
O1156  C1165   1.293   .     A
O1156  Zn968   2.006   1_565 S
O1157  C1167   1.293   .     A
O1157  Zn968   2.004   1_565 S
O1158  Zn1175  2.004   .     S
O1158  C1168   1.293   .     A
O1159  Zn1176  2.006   .     S
O1159  C1168   1.293   .     A
O1160  C1167   1.293   .     A
O1160  Zn967   2.006   1_565 S
C1161  C1220   1.425   .     S
C1162  C1219   1.425   .     S
C1163  C1218   1.425   .     S
C1164  C1217   1.425   .     S
C1165  C1224   1.425   .     S
C1166  C1223   1.425   .     S
C1167  C1222   1.425   .     S
C1168  C1221   1.425   .     S
N1169  Zn1173  2.031   .     S
N1170  C1177   1.372   .     A
N1170  C1179   1.372   .     A
N1170  Zn1174  2.031   .     S
N1171  Zn1175  2.031   .     S
N1171  C1184   1.372   .     A
N1172  Zn1176  2.031   .     S
N1172  C1181   1.372   .     A
C1177  N1225   1.429   .     S
C1178  N1228   1.429   .     S
C1178  N1065   1.372   1_655 S
C1178  C243    1.426   1_656 S
C1179  N1231   1.429   .     S
C1180  N1234   1.429   .     S
C1180  C241    1.426   1_656 S
C1180  N1065   1.372   1_655 S
C1181  N1237   1.429   .     S
C1182  N1240   1.429   .     S
C1182  N963    1.372   1_565 S
C1182  C351    1.426   1_556 S
C1183  N1243   1.429   .     S
C1183  N964    1.372   1_565 S
C1184  N1246   1.429   .     S
C1184  C349    1.426   1_556 S
C1185  C1218   1.396   .     A
C1185  H1201   1.082   .     S
C1185  C1195   1.370   .     A
C1186  H1202   1.082   .     S
C1186  C1217   1.396   .     A
C1186  C1196   1.370   .     A
C1187  C1217   1.395   .     A
C1187  H1203   1.076   .     S
C1187  C1193   1.370   .     A
C1188  C1218   1.395   .     A
C1188  C1194   1.370   .     A
C1188  H1204   1.076   .     S
C1189  C1220   1.396   .     A
C1189  H1205   1.082   .     S
C1189  C1199   1.370   .     A
C1190  H1206   1.082   .     S
C1190  C1219   1.396   .     A
C1190  C1200   1.370   .     A
C1191  H1207   1.076   .     S
C1191  C1197   1.370   .     A
C1191  C1219   1.395   .     A
C1192  C1220   1.395   .     A
C1192  C1198   1.370   .     A
C1192  H1208   1.076   .     S
C1193  H1209   1.081   .     S
C1193  C1222   1.396   .     A
C1194  H1210   1.082   .     S
C1194  C1221   1.396   .     A
C1195  C1221   1.395   .     A
C1195  H1211   1.076   .     S
C1196  H1212   1.076   .     S
C1196  C1222   1.395   .     A
C1197  H1213   1.082   .     S
C1197  C1224   1.396   .     A
C1198  C1223   1.396   .     A
C1198  H1214   1.082   .     S
C1199  C1223   1.395   .     A
C1199  H1215   1.076   .     S
C1200  H1216   1.076   .     S
C1200  C1224   1.395   .     A
N1225  O1227   1.299   .     A
O1226  N1121   1.298   1_655 S
N1228  O1230   1.299   .     A
N1228  O1125   1.298   1_655 S
N1231  O1233   1.299   .     A
O1232  N1127   1.298   1_655 S
N1234  O1236   1.299   .     A
N1234  O1131   1.298   1_655 S
N1237  O1238   1.298   .     A
N1237  O1239   1.299   .     A
N1240  O1242   1.299   .     A
N1240  O1241   1.298   .     A
N1243  O1244   1.298   .     A
N1243  O1245   1.299   .     A
N1246  O1248   1.299   .     A
N1246  O1247   1.298   .     A
