data_str_m2_o1_o1_pcu_sym.41
_audit_creation_date              2020-01-03
_audit_creation_method            'Materials Studio'
_symmetry_space_group_name_H-M    'P1'
_symmetry_Int_Tables_number       1
_symmetry_cell_setting            triclinic
loop_
_symmetry_equiv_pos_as_xyz
  x,y,z
_cell_length_a                    32.1513
_cell_length_b                    29.6130
_cell_length_c                    28.9445
_cell_angle_alpha                 91.2830
_cell_angle_beta                  89.9992
_cell_angle_gamma                 89.9999
loop_
_atom_site_label
_atom_site_type_symbol
_atom_site_fract_x
_atom_site_fract_y
_atom_site_fract_z
_atom_site_U_iso_or_equiv
_atom_site_adp_type
_atom_site_occupancy
C1     C     0.06140   0.19316   0.16649   0.00000  Uiso   1.00
C2     C     0.00174   0.28990   0.30951   0.00000  Uiso   1.00
C3     C     0.49829   0.28985   0.02565   0.00000  Uiso   1.00
C4     C     0.49829   0.21015   0.30768   0.00000  Uiso   1.00
C5     C     0.25174   0.46010   0.02382   0.00000  Uiso   1.00
C6     C     0.25174   0.03990   0.30951   0.00000  Uiso   1.00
C7     C     0.24829   0.03985   0.02565   0.00000  Uiso   1.00
C8     C     0.24829   0.46015   0.30768   0.00000  Uiso   1.00
C9     C     0.39188   0.13801   0.12351   0.00000  Uiso   1.00
C10    C     0.11171   0.35781   0.20840   0.00000  Uiso   1.00
C11    C     0.11539   0.35070   0.12458   0.00000  Uiso   1.00
C12    C     0.43909   0.30763   0.16705   0.00000  Uiso   1.00
C13    C     0.38588   0.14675   0.20734   0.00000  Uiso   1.00
C14    C     0.11539   0.14930   0.20875   0.00000  Uiso   1.00
C15    C     0.38588   0.35324   0.12600   0.00000  Uiso   1.00
C16    C     0.39189   0.36200   0.20982   0.00000  Uiso   1.00
C17    C     0.11171   0.14219   0.12493   0.00000  Uiso   1.00
C18    C     0.14189   0.38800   0.12351   0.00000  Uiso   1.00
C19    C     0.36171   0.10781   0.20839   0.00000  Uiso   1.00
C20    C     0.36537   0.10072   0.12458   0.00000  Uiso   1.00
C21    C     0.13588   0.39676   0.20734   0.00000  Uiso   1.00
C22    C     0.36539   0.39930   0.20875   0.00000  Uiso   1.00
C23    C     0.43909   0.19237   0.16629   0.00000  Uiso   1.00
C24    C     0.13588   0.10324   0.12599   0.00000  Uiso   1.00
C25    C     0.14189   0.11200   0.20982   0.00000  Uiso   1.00
C26    C     0.36171   0.39219   0.12493   0.00000  Uiso   1.00
C27    C     0.09741   0.33775   0.16680   0.00000  Uiso   1.00
C28    C     0.40426   0.15985   0.16539   0.00000  Uiso   1.00
C29    C     0.40427   0.34015   0.16794   0.00000  Uiso   1.00
C30    C     0.09741   0.16225   0.16653   0.00000  Uiso   1.00
C31    C     0.34741   0.08775   0.16680   0.00000  Uiso   1.00
C32    C     0.15427   0.40985   0.16539   0.00000  Uiso   1.00
C33    C     0.15427   0.09015   0.16794   0.00000  Uiso   1.00
C34    C     0.06140   0.30684   0.16684   0.00000  Uiso   1.00
C35    C     0.34741   0.41225   0.16653   0.00000  Uiso   1.00
C36    C     0.00831   0.16646   0.04743   0.00000  Uiso   1.00
C37    C     0.00832   0.33354   0.28591   0.00000  Uiso   1.00
C38    C     0.49082   0.33325   0.05111   0.00000  Uiso   1.00
C39    C     0.49082   0.16675   0.28222   0.00000  Uiso   1.00
C40    C     0.25832   0.41646   0.04743   0.00000  Uiso   1.00
C41    C     0.25832   0.08354   0.28591   0.00000  Uiso   1.00
C42    C     0.24082   0.08325   0.05111   0.00000  Uiso   1.00
C43    C     0.24082   0.41675   0.28222   0.00000  Uiso   1.00
C44    C     0.40268   0.15544   0.07865   0.00000  Uiso   1.00
C45    C     0.31140   0.44316   0.16649   0.00000  Uiso   1.00
C46    C     0.10774   0.33495   0.25181   0.00000  Uiso   1.00
C47    C     0.11024   0.32325   0.08275   0.00000  Uiso   1.00
C48    C     0.38746   0.17551   0.24858   0.00000  Uiso   1.00
C49    C     0.11024   0.17676   0.25058   0.00000  Uiso   1.00
C50    C     0.38746   0.32448   0.08475   0.00000  Uiso   1.00
C51    C     0.40270   0.34458   0.25469   0.00000  Uiso   1.00
C52    C     0.10773   0.16504   0.08152   0.00000  Uiso   1.00
C53    C     0.15270   0.40542   0.07865   0.00000  Uiso   1.00
C54    C     0.35775   0.08494   0.25180   0.00000  Uiso   1.00
C55    C     0.36021   0.07328   0.08274   0.00000  Uiso   1.00
C56    C     0.18909   0.05763   0.16705   0.00000  Uiso   1.00
C57    C     0.13746   0.42552   0.24858   0.00000  Uiso   1.00
C58    C     0.36024   0.42676   0.25058   0.00000  Uiso   1.00
C59    C     0.13746   0.07448   0.08475   0.00000  Uiso   1.00
C60    C     0.15270   0.09459   0.25469   0.00000  Uiso   1.00
C61    C     0.35774   0.41505   0.08152   0.00000  Uiso   1.00
C62    C     0.18909   0.44237   0.16629   0.00000  Uiso   1.00
C63    C     0.31140   0.05684   0.16684   0.00000  Uiso   1.00
C64    C     0.00173   0.21010   0.02382   0.00000  Uiso   1.00
Cu65   Cu    0.00000   0.25000   0.21355   0.00000  Uiso   1.00
Cu66   Cu    0.00000   0.25000   0.11978   0.00000  Uiso   1.00
Cu67   Cu    0.25000  -0.00000   0.21355   0.00000  Uiso   1.00
Cu68   Cu    0.25000  -0.00000   0.11978   0.00000  Uiso   1.00
H69    H     0.49667   0.16063   0.08147   0.00000  Uiso   1.00
H70    H     0.49667   0.33937   0.25187   0.00000  Uiso   1.00
H71    H     0.00642   0.34170   0.08293   0.00000  Uiso   1.00
H72    H     0.00642   0.15830   0.25040   0.00000  Uiso   1.00
H73    H     0.24667   0.41063   0.08147   0.00000  Uiso   1.00
H74    H     0.24667   0.08937   0.25187   0.00000  Uiso   1.00
H75    H     0.25642   0.09170   0.08294   0.00000  Uiso   1.00
H76    H     0.25642   0.40830   0.25040   0.00000  Uiso   1.00
N77    N     0.00000   0.25000   0.28402   0.00000  Uiso   1.00
N78    N     0.38827   0.30116   0.05214   0.00000  Uiso   1.00
N79    N     0.41061   0.33065   0.29063   0.00000  Uiso   1.00
N80    N     0.10541   0.18385   0.04706   0.00000  Uiso   1.00
N81    N     0.16061   0.41935   0.04271   0.00000  Uiso   1.00
N82    N     0.35544   0.06612   0.28625   0.00000  Uiso   1.00
N83    N     0.35621   0.05093   0.04977   0.00000  Uiso   1.00
N84    N     0.13827   0.44883   0.28119   0.00000  Uiso   1.00
N85    N     0.35625   0.44912   0.28354   0.00000  Uiso   1.00
N86    N     0.13828   0.05116   0.05214   0.00000  Uiso   1.00
N87    N     0.16061   0.08066   0.29063   0.00000  Uiso   1.00
N88    N     0.00000   0.25000   0.04931   0.00000  Uiso   1.00
N89    N     0.35542   0.43386   0.04706   0.00000  Uiso   1.00
N90    N     0.25000  -0.00000   0.28402   0.00000  Uiso   1.00
N91    N     0.25000  -0.00000   0.04931   0.00000  Uiso   1.00
N92    N     0.41059   0.16938   0.04271   0.00000  Uiso   1.00
N93    N     0.10542   0.31614   0.28627   0.00000  Uiso   1.00
N94    N     0.10625   0.30089   0.04979   0.00000  Uiso   1.00
N95    N     0.38827   0.19883   0.28119   0.00000  Uiso   1.00
N96    N     0.10626   0.19913   0.28354   0.00000  Uiso   1.00
O97    O     0.04509   0.20491   0.20625   0.00000  Uiso   1.00
O98    O     0.20492   0.04509   0.12709   0.00000  Uiso   1.00
O99    O     0.20492   0.04509   0.20625   0.00000  Uiso   1.00
O100   O     0.29509   0.45491   0.12709   0.00000  Uiso   1.00
O101   O     0.20492   0.45491   0.12709   0.00000  Uiso   1.00
O102   O     0.29509   0.04509   0.20625   0.00000  Uiso   1.00
O103   O     0.29509   0.04509   0.12709   0.00000  Uiso   1.00
O104   O     0.20492   0.45491   0.20625   0.00000  Uiso   1.00
O105   O     0.02798   0.13578   0.02887   0.00000  Uiso   1.00
O106   O     0.02799   0.36421   0.30446   0.00000  Uiso   1.00
O107   O     0.46611   0.36076   0.03642   0.00000  Uiso   1.00
O108   O     0.45492   0.29509   0.12709   0.00000  Uiso   1.00
O109   O     0.46611   0.13925   0.29691   0.00000  Uiso   1.00
O110   O     0.27799   0.38579   0.02887   0.00000  Uiso   1.00
O111   O     0.27801   0.11420   0.30446   0.00000  Uiso   1.00
O112   O     0.21613   0.11076   0.03641   0.00000  Uiso   1.00
O113   O     0.21611   0.38924   0.29692   0.00000  Uiso   1.00
O114   O     0.45492   0.29509   0.20625   0.00000  Uiso   1.00
O115   O     0.04509   0.20491   0.12709   0.00000  Uiso   1.00
O116   O     0.45492   0.20491   0.12709   0.00000  Uiso   1.00
O117   O     0.04509   0.29509   0.20625   0.00000  Uiso   1.00
O118   O     0.04509   0.29509   0.12709   0.00000  Uiso   1.00
O119   O     0.45492   0.20491   0.20625   0.00000  Uiso   1.00
O120   O     0.29509   0.45491   0.20625   0.00000  Uiso   1.00
C121   C     0.56140   0.19316   0.16649   0.00000  Uiso   1.00
C122   C     0.50174   0.28990   0.30951   0.00000  Uiso   1.00
C123   C     0.99829   0.28985   0.02565   0.00000  Uiso   1.00
C124   C     0.99829   0.21015   0.30768   0.00000  Uiso   1.00
C125   C     0.75174   0.46010   0.02382   0.00000  Uiso   1.00
C126   C     0.75174   0.03990   0.30951   0.00000  Uiso   1.00
C127   C     0.74829   0.03985   0.02565   0.00000  Uiso   1.00
C128   C     0.74829   0.46015   0.30768   0.00000  Uiso   1.00
C129   C     0.89188   0.13801   0.12351   0.00000  Uiso   1.00
C130   C     0.61171   0.35781   0.20840   0.00000  Uiso   1.00
C131   C     0.61539   0.35070   0.12458   0.00000  Uiso   1.00
C132   C     0.93909   0.30763   0.16705   0.00000  Uiso   1.00
C133   C     0.88588   0.14675   0.20734   0.00000  Uiso   1.00
C134   C     0.61539   0.14930   0.20875   0.00000  Uiso   1.00
C135   C     0.88588   0.35324   0.12600   0.00000  Uiso   1.00
C136   C     0.89189   0.36200   0.20982   0.00000  Uiso   1.00
C137   C     0.61171   0.14219   0.12493   0.00000  Uiso   1.00
C138   C     0.64189   0.38800   0.12351   0.00000  Uiso   1.00
C139   C     0.86171   0.10781   0.20839   0.00000  Uiso   1.00
C140   C     0.86537   0.10072   0.12458   0.00000  Uiso   1.00
C141   C     0.63588   0.39676   0.20734   0.00000  Uiso   1.00
C142   C     0.86539   0.39930   0.20875   0.00000  Uiso   1.00
C143   C     0.93909   0.19237   0.16629   0.00000  Uiso   1.00
C144   C     0.63588   0.10324   0.12599   0.00000  Uiso   1.00
C145   C     0.64189   0.11200   0.20982   0.00000  Uiso   1.00
C146   C     0.86171   0.39219   0.12493   0.00000  Uiso   1.00
C147   C     0.59741   0.33775   0.16680   0.00000  Uiso   1.00
C148   C     0.90426   0.15985   0.16539   0.00000  Uiso   1.00
C149   C     0.90427   0.34015   0.16794   0.00000  Uiso   1.00
C150   C     0.59741   0.16225   0.16653   0.00000  Uiso   1.00
C151   C     0.84741   0.08775   0.16680   0.00000  Uiso   1.00
C152   C     0.65427   0.40985   0.16539   0.00000  Uiso   1.00
C153   C     0.65427   0.09015   0.16794   0.00000  Uiso   1.00
C154   C     0.56140   0.30684   0.16684   0.00000  Uiso   1.00
C155   C     0.84741   0.41225   0.16653   0.00000  Uiso   1.00
C156   C     0.50831   0.16646   0.04743   0.00000  Uiso   1.00
C157   C     0.50832   0.33354   0.28591   0.00000  Uiso   1.00
C158   C     0.99082   0.33325   0.05111   0.00000  Uiso   1.00
C159   C     0.99082   0.16675   0.28222   0.00000  Uiso   1.00
C160   C     0.75832   0.41646   0.04743   0.00000  Uiso   1.00
C161   C     0.75832   0.08354   0.28591   0.00000  Uiso   1.00
C162   C     0.74082   0.08325   0.05111   0.00000  Uiso   1.00
C163   C     0.74082   0.41675   0.28222   0.00000  Uiso   1.00
C164   C     0.90268   0.15544   0.07865   0.00000  Uiso   1.00
C165   C     0.81140   0.44316   0.16649   0.00000  Uiso   1.00
C166   C     0.60774   0.33495   0.25181   0.00000  Uiso   1.00
C167   C     0.61024   0.32325   0.08275   0.00000  Uiso   1.00
C168   C     0.88746   0.17551   0.24858   0.00000  Uiso   1.00
C169   C     0.61024   0.17676   0.25058   0.00000  Uiso   1.00
C170   C     0.88746   0.32448   0.08475   0.00000  Uiso   1.00
C171   C     0.90270   0.34458   0.25469   0.00000  Uiso   1.00
C172   C     0.60773   0.16504   0.08152   0.00000  Uiso   1.00
C173   C     0.65270   0.40542   0.07865   0.00000  Uiso   1.00
C174   C     0.85775   0.08494   0.25180   0.00000  Uiso   1.00
C175   C     0.86021   0.07328   0.08274   0.00000  Uiso   1.00
C176   C     0.68909   0.05763   0.16705   0.00000  Uiso   1.00
C177   C     0.63746   0.42552   0.24858   0.00000  Uiso   1.00
C178   C     0.86024   0.42676   0.25058   0.00000  Uiso   1.00
C179   C     0.63746   0.07448   0.08475   0.00000  Uiso   1.00
C180   C     0.65270   0.09459   0.25469   0.00000  Uiso   1.00
C181   C     0.85774   0.41505   0.08152   0.00000  Uiso   1.00
C182   C     0.68909   0.44237   0.16629   0.00000  Uiso   1.00
C183   C     0.81140   0.05684   0.16684   0.00000  Uiso   1.00
C184   C     0.50173   0.21010   0.02382   0.00000  Uiso   1.00
Cu185  Cu    0.50000   0.25000   0.21355   0.00000  Uiso   1.00
Cu186  Cu    0.50000   0.25000   0.11978   0.00000  Uiso   1.00
Cu187  Cu    0.75000  -0.00000   0.21355   0.00000  Uiso   1.00
Cu188  Cu    0.75000  -0.00000   0.11978   0.00000  Uiso   1.00
H189   H     0.99667   0.16063   0.08147   0.00000  Uiso   1.00
H190   H     0.99667   0.33937   0.25187   0.00000  Uiso   1.00
H191   H     0.50642   0.34170   0.08293   0.00000  Uiso   1.00
H192   H     0.50642   0.15830   0.25040   0.00000  Uiso   1.00
H193   H     0.74667   0.41063   0.08147   0.00000  Uiso   1.00
H194   H     0.74667   0.08937   0.25187   0.00000  Uiso   1.00
H195   H     0.75642   0.09170   0.08294   0.00000  Uiso   1.00
H196   H     0.75642   0.40830   0.25040   0.00000  Uiso   1.00
N197   N     0.50000   0.25000   0.28402   0.00000  Uiso   1.00
N198   N     0.88827   0.30116   0.05214   0.00000  Uiso   1.00
N199   N     0.91061   0.33065   0.29063   0.00000  Uiso   1.00
N200   N     0.60541   0.18385   0.04706   0.00000  Uiso   1.00
N201   N     0.66061   0.41935   0.04271   0.00000  Uiso   1.00
N202   N     0.85544   0.06612   0.28625   0.00000  Uiso   1.00
N203   N     0.85621   0.05093   0.04977   0.00000  Uiso   1.00
N204   N     0.63827   0.44883   0.28119   0.00000  Uiso   1.00
N205   N     0.85625   0.44912   0.28354   0.00000  Uiso   1.00
N206   N     0.63828   0.05116   0.05214   0.00000  Uiso   1.00
N207   N     0.66061   0.08066   0.29063   0.00000  Uiso   1.00
N208   N     0.50000   0.25000   0.04931   0.00000  Uiso   1.00
N209   N     0.85542   0.43386   0.04706   0.00000  Uiso   1.00
N210   N     0.75000  -0.00000   0.28402   0.00000  Uiso   1.00
N211   N     0.75000  -0.00000   0.04931   0.00000  Uiso   1.00
N212   N     0.91059   0.16938   0.04271   0.00000  Uiso   1.00
N213   N     0.60542   0.31614   0.28627   0.00000  Uiso   1.00
N214   N     0.60625   0.30089   0.04979   0.00000  Uiso   1.00
N215   N     0.88827   0.19883   0.28119   0.00000  Uiso   1.00
N216   N     0.60626   0.19913   0.28354   0.00000  Uiso   1.00
O217   O     0.54509   0.20491   0.20625   0.00000  Uiso   1.00
O218   O     0.70492   0.04509   0.12709   0.00000  Uiso   1.00
O219   O     0.70492   0.04509   0.20625   0.00000  Uiso   1.00
O220   O     0.79509   0.45491   0.12709   0.00000  Uiso   1.00
O221   O     0.70492   0.45491   0.12709   0.00000  Uiso   1.00
O222   O     0.79509   0.04509   0.20625   0.00000  Uiso   1.00
O223   O     0.79509   0.04509   0.12709   0.00000  Uiso   1.00
O224   O     0.70492   0.45491   0.20625   0.00000  Uiso   1.00
O225   O     0.52798   0.13578   0.02887   0.00000  Uiso   1.00
O226   O     0.52799   0.36421   0.30446   0.00000  Uiso   1.00
O227   O     0.96611   0.36076   0.03642   0.00000  Uiso   1.00
O228   O     0.95492   0.29509   0.12709   0.00000  Uiso   1.00
O229   O     0.96611   0.13925   0.29691   0.00000  Uiso   1.00
O230   O     0.77799   0.38579   0.02887   0.00000  Uiso   1.00
O231   O     0.77801   0.11420   0.30446   0.00000  Uiso   1.00
O232   O     0.71613   0.11076   0.03641   0.00000  Uiso   1.00
O233   O     0.71611   0.38924   0.29692   0.00000  Uiso   1.00
O234   O     0.95492   0.29509   0.20625   0.00000  Uiso   1.00
O235   O     0.54509   0.20491   0.12709   0.00000  Uiso   1.00
O236   O     0.95492   0.20491   0.12709   0.00000  Uiso   1.00
O237   O     0.54509   0.29509   0.20625   0.00000  Uiso   1.00
O238   O     0.54509   0.29509   0.12709   0.00000  Uiso   1.00
O239   O     0.95492   0.20491   0.20625   0.00000  Uiso   1.00
O240   O     0.79509   0.45491   0.20625   0.00000  Uiso   1.00
C241   C     0.06140   0.69316   0.16649   0.00000  Uiso   1.00
C242   C     0.00174   0.78990   0.30951   0.00000  Uiso   1.00
C243   C     0.49829   0.78985   0.02565   0.00000  Uiso   1.00
C244   C     0.49829   0.71015   0.30768   0.00000  Uiso   1.00
C245   C     0.25174   0.96010   0.02382   0.00000  Uiso   1.00
C246   C     0.25174   0.53990   0.30951   0.00000  Uiso   1.00
C247   C     0.24829   0.53985   0.02565   0.00000  Uiso   1.00
C248   C     0.24829   0.96015   0.30768   0.00000  Uiso   1.00
C249   C     0.39188   0.63801   0.12351   0.00000  Uiso   1.00
C250   C     0.11171   0.85781   0.20840   0.00000  Uiso   1.00
C251   C     0.11539   0.85070   0.12458   0.00000  Uiso   1.00
C252   C     0.43909   0.80763   0.16705   0.00000  Uiso   1.00
C253   C     0.38588   0.64675   0.20734   0.00000  Uiso   1.00
C254   C     0.11539   0.64930   0.20875   0.00000  Uiso   1.00
C255   C     0.38588   0.85324   0.12600   0.00000  Uiso   1.00
C256   C     0.39189   0.86200   0.20982   0.00000  Uiso   1.00
C257   C     0.11171   0.64219   0.12493   0.00000  Uiso   1.00
C258   C     0.14189   0.88800   0.12351   0.00000  Uiso   1.00
C259   C     0.36171   0.60781   0.20839   0.00000  Uiso   1.00
C260   C     0.36537   0.60072   0.12458   0.00000  Uiso   1.00
C261   C     0.13588   0.89676   0.20734   0.00000  Uiso   1.00
C262   C     0.36539   0.89930   0.20875   0.00000  Uiso   1.00
C263   C     0.43909   0.69237   0.16629   0.00000  Uiso   1.00
C264   C     0.13588   0.60324   0.12599   0.00000  Uiso   1.00
C265   C     0.14189   0.61200   0.20982   0.00000  Uiso   1.00
C266   C     0.36171   0.89219   0.12493   0.00000  Uiso   1.00
C267   C     0.09741   0.83775   0.16680   0.00000  Uiso   1.00
C268   C     0.40426   0.65985   0.16539   0.00000  Uiso   1.00
C269   C     0.40427   0.84015   0.16794   0.00000  Uiso   1.00
C270   C     0.09741   0.66225   0.16653   0.00000  Uiso   1.00
C271   C     0.34741   0.58775   0.16680   0.00000  Uiso   1.00
C272   C     0.15427   0.90985   0.16539   0.00000  Uiso   1.00
C273   C     0.15427   0.59015   0.16794   0.00000  Uiso   1.00
C274   C     0.06140   0.80684   0.16684   0.00000  Uiso   1.00
C275   C     0.34741   0.91225   0.16653   0.00000  Uiso   1.00
C276   C     0.00831   0.66646   0.04743   0.00000  Uiso   1.00
C277   C     0.00832   0.83354   0.28591   0.00000  Uiso   1.00
C278   C     0.49082   0.83325   0.05111   0.00000  Uiso   1.00
C279   C     0.49082   0.66675   0.28222   0.00000  Uiso   1.00
C280   C     0.25832   0.91646   0.04743   0.00000  Uiso   1.00
C281   C     0.25832   0.58354   0.28591   0.00000  Uiso   1.00
C282   C     0.24082   0.58325   0.05111   0.00000  Uiso   1.00
C283   C     0.24082   0.91675   0.28222   0.00000  Uiso   1.00
C284   C     0.40268   0.65544   0.07865   0.00000  Uiso   1.00
C285   C     0.31140   0.94316   0.16649   0.00000  Uiso   1.00
C286   C     0.10774   0.83495   0.25181   0.00000  Uiso   1.00
C287   C     0.11024   0.82325   0.08275   0.00000  Uiso   1.00
C288   C     0.38746   0.67551   0.24858   0.00000  Uiso   1.00
C289   C     0.11024   0.67676   0.25058   0.00000  Uiso   1.00
C290   C     0.38746   0.82448   0.08475   0.00000  Uiso   1.00
C291   C     0.40270   0.84458   0.25469   0.00000  Uiso   1.00
C292   C     0.10773   0.66504   0.08152   0.00000  Uiso   1.00
C293   C     0.15270   0.90542   0.07865   0.00000  Uiso   1.00
C294   C     0.35775   0.58494   0.25180   0.00000  Uiso   1.00
C295   C     0.36021   0.57328   0.08274   0.00000  Uiso   1.00
C296   C     0.18909   0.55763   0.16705   0.00000  Uiso   1.00
C297   C     0.13746   0.92552   0.24858   0.00000  Uiso   1.00
C298   C     0.36024   0.92676   0.25058   0.00000  Uiso   1.00
C299   C     0.13746   0.57448   0.08475   0.00000  Uiso   1.00
C300   C     0.15270   0.59459   0.25469   0.00000  Uiso   1.00
C301   C     0.35774   0.91505   0.08152   0.00000  Uiso   1.00
C302   C     0.18909   0.94237   0.16629   0.00000  Uiso   1.00
C303   C     0.31140   0.55684   0.16684   0.00000  Uiso   1.00
C304   C     0.00173   0.71010   0.02382   0.00000  Uiso   1.00
Cu305  Cu    0.00000   0.75000   0.21355   0.00000  Uiso   1.00
Cu306  Cu    0.00000   0.75000   0.11978   0.00000  Uiso   1.00
Cu307  Cu    0.25000   0.50000   0.21355   0.00000  Uiso   1.00
Cu308  Cu    0.25000   0.50000   0.11978   0.00000  Uiso   1.00
H309   H     0.49667   0.66063   0.08147   0.00000  Uiso   1.00
H310   H     0.49667   0.83937   0.25187   0.00000  Uiso   1.00
H311   H     0.00642   0.84170   0.08293   0.00000  Uiso   1.00
H312   H     0.00642   0.65830   0.25040   0.00000  Uiso   1.00
H313   H     0.24667   0.91063   0.08147   0.00000  Uiso   1.00
H314   H     0.24667   0.58937   0.25187   0.00000  Uiso   1.00
H315   H     0.25642   0.59170   0.08294   0.00000  Uiso   1.00
H316   H     0.25642   0.90830   0.25040   0.00000  Uiso   1.00
N317   N     0.00000   0.75000   0.28402   0.00000  Uiso   1.00
N318   N     0.38827   0.80116   0.05214   0.00000  Uiso   1.00
N319   N     0.41061   0.83065   0.29063   0.00000  Uiso   1.00
N320   N     0.10541   0.68385   0.04706   0.00000  Uiso   1.00
N321   N     0.16061   0.91935   0.04271   0.00000  Uiso   1.00
N322   N     0.35544   0.56612   0.28625   0.00000  Uiso   1.00
N323   N     0.35621   0.55093   0.04977   0.00000  Uiso   1.00
N324   N     0.13827   0.94883   0.28119   0.00000  Uiso   1.00
N325   N     0.35625   0.94912   0.28354   0.00000  Uiso   1.00
N326   N     0.13828   0.55116   0.05214   0.00000  Uiso   1.00
N327   N     0.16061   0.58066   0.29063   0.00000  Uiso   1.00
N328   N     0.00000   0.75000   0.04931   0.00000  Uiso   1.00
N329   N     0.35542   0.93386   0.04706   0.00000  Uiso   1.00
N330   N     0.25000   0.50000   0.28402   0.00000  Uiso   1.00
N331   N     0.25000   0.50000   0.04931   0.00000  Uiso   1.00
N332   N     0.41059   0.66938   0.04271   0.00000  Uiso   1.00
N333   N     0.10542   0.81614   0.28627   0.00000  Uiso   1.00
N334   N     0.10625   0.80089   0.04979   0.00000  Uiso   1.00
N335   N     0.38827   0.69883   0.28119   0.00000  Uiso   1.00
N336   N     0.10626   0.69913   0.28354   0.00000  Uiso   1.00
O337   O     0.04509   0.70491   0.20625   0.00000  Uiso   1.00
O338   O     0.20492   0.54509   0.12709   0.00000  Uiso   1.00
O339   O     0.20492   0.54509   0.20625   0.00000  Uiso   1.00
O340   O     0.29509   0.95491   0.12709   0.00000  Uiso   1.00
O341   O     0.20492   0.95491   0.12709   0.00000  Uiso   1.00
O342   O     0.29509   0.54509   0.20625   0.00000  Uiso   1.00
O343   O     0.29509   0.54509   0.12709   0.00000  Uiso   1.00
O344   O     0.20492   0.95491   0.20625   0.00000  Uiso   1.00
O345   O     0.02798   0.63578   0.02887   0.00000  Uiso   1.00
O346   O     0.02799   0.86421   0.30446   0.00000  Uiso   1.00
O347   O     0.46611   0.86076   0.03642   0.00000  Uiso   1.00
O348   O     0.45492   0.79509   0.12709   0.00000  Uiso   1.00
O349   O     0.46611   0.63925   0.29691   0.00000  Uiso   1.00
O350   O     0.27799   0.88579   0.02887   0.00000  Uiso   1.00
O351   O     0.27801   0.61420   0.30446   0.00000  Uiso   1.00
O352   O     0.21613   0.61076   0.03641   0.00000  Uiso   1.00
O353   O     0.21611   0.88924   0.29692   0.00000  Uiso   1.00
O354   O     0.45492   0.79509   0.20625   0.00000  Uiso   1.00
O355   O     0.04509   0.70491   0.12709   0.00000  Uiso   1.00
O356   O     0.45492   0.70491   0.12709   0.00000  Uiso   1.00
O357   O     0.04509   0.79509   0.20625   0.00000  Uiso   1.00
O358   O     0.04509   0.79509   0.12709   0.00000  Uiso   1.00
O359   O     0.45492   0.70491   0.20625   0.00000  Uiso   1.00
O360   O     0.29509   0.95491   0.20625   0.00000  Uiso   1.00
C361   C     0.56140   0.69316   0.16649   0.00000  Uiso   1.00
C362   C     0.50174   0.78990   0.30951   0.00000  Uiso   1.00
C363   C     0.99829   0.78985   0.02565   0.00000  Uiso   1.00
C364   C     0.99829   0.71015   0.30768   0.00000  Uiso   1.00
C365   C     0.75174   0.96010   0.02382   0.00000  Uiso   1.00
C366   C     0.75174   0.53990   0.30951   0.00000  Uiso   1.00
C367   C     0.74829   0.53985   0.02565   0.00000  Uiso   1.00
C368   C     0.74829   0.96015   0.30768   0.00000  Uiso   1.00
C369   C     0.89188   0.63801   0.12351   0.00000  Uiso   1.00
C370   C     0.61171   0.85781   0.20840   0.00000  Uiso   1.00
C371   C     0.61539   0.85070   0.12458   0.00000  Uiso   1.00
C372   C     0.93909   0.80763   0.16705   0.00000  Uiso   1.00
C373   C     0.88588   0.64675   0.20734   0.00000  Uiso   1.00
C374   C     0.61539   0.64930   0.20875   0.00000  Uiso   1.00
C375   C     0.88588   0.85324   0.12600   0.00000  Uiso   1.00
C376   C     0.89189   0.86200   0.20982   0.00000  Uiso   1.00
C377   C     0.61171   0.64219   0.12493   0.00000  Uiso   1.00
C378   C     0.64189   0.88800   0.12351   0.00000  Uiso   1.00
C379   C     0.86171   0.60781   0.20839   0.00000  Uiso   1.00
C380   C     0.86537   0.60072   0.12458   0.00000  Uiso   1.00
C381   C     0.63588   0.89676   0.20734   0.00000  Uiso   1.00
C382   C     0.86539   0.89930   0.20875   0.00000  Uiso   1.00
C383   C     0.93909   0.69237   0.16629   0.00000  Uiso   1.00
C384   C     0.63588   0.60324   0.12599   0.00000  Uiso   1.00
C385   C     0.64189   0.61200   0.20982   0.00000  Uiso   1.00
C386   C     0.86171   0.89219   0.12493   0.00000  Uiso   1.00
C387   C     0.59741   0.83775   0.16680   0.00000  Uiso   1.00
C388   C     0.90426   0.65985   0.16539   0.00000  Uiso   1.00
C389   C     0.90427   0.84015   0.16794   0.00000  Uiso   1.00
C390   C     0.59741   0.66225   0.16653   0.00000  Uiso   1.00
C391   C     0.84741   0.58775   0.16680   0.00000  Uiso   1.00
C392   C     0.65427   0.90985   0.16539   0.00000  Uiso   1.00
C393   C     0.65427   0.59015   0.16794   0.00000  Uiso   1.00
C394   C     0.56140   0.80684   0.16684   0.00000  Uiso   1.00
C395   C     0.84741   0.91225   0.16653   0.00000  Uiso   1.00
C396   C     0.50831   0.66646   0.04743   0.00000  Uiso   1.00
C397   C     0.50832   0.83354   0.28591   0.00000  Uiso   1.00
C398   C     0.99082   0.83325   0.05111   0.00000  Uiso   1.00
C399   C     0.99082   0.66675   0.28222   0.00000  Uiso   1.00
C400   C     0.75832   0.91646   0.04743   0.00000  Uiso   1.00
C401   C     0.75832   0.58354   0.28591   0.00000  Uiso   1.00
C402   C     0.74082   0.58325   0.05111   0.00000  Uiso   1.00
C403   C     0.74082   0.91675   0.28222   0.00000  Uiso   1.00
C404   C     0.90268   0.65544   0.07865   0.00000  Uiso   1.00
C405   C     0.81140   0.94316   0.16649   0.00000  Uiso   1.00
C406   C     0.60774   0.83495   0.25181   0.00000  Uiso   1.00
C407   C     0.61024   0.82325   0.08275   0.00000  Uiso   1.00
C408   C     0.88746   0.67551   0.24858   0.00000  Uiso   1.00
C409   C     0.61024   0.67676   0.25058   0.00000  Uiso   1.00
C410   C     0.88746   0.82448   0.08475   0.00000  Uiso   1.00
C411   C     0.90270   0.84458   0.25469   0.00000  Uiso   1.00
C412   C     0.60773   0.66504   0.08152   0.00000  Uiso   1.00
C413   C     0.65270   0.90542   0.07865   0.00000  Uiso   1.00
C414   C     0.85775   0.58494   0.25180   0.00000  Uiso   1.00
C415   C     0.86021   0.57328   0.08274   0.00000  Uiso   1.00
C416   C     0.68909   0.55763   0.16705   0.00000  Uiso   1.00
C417   C     0.63746   0.92552   0.24858   0.00000  Uiso   1.00
C418   C     0.86024   0.92676   0.25058   0.00000  Uiso   1.00
C419   C     0.63746   0.57448   0.08475   0.00000  Uiso   1.00
C420   C     0.65270   0.59459   0.25469   0.00000  Uiso   1.00
C421   C     0.85774   0.91505   0.08152   0.00000  Uiso   1.00
C422   C     0.68909   0.94237   0.16629   0.00000  Uiso   1.00
C423   C     0.81140   0.55684   0.16684   0.00000  Uiso   1.00
C424   C     0.50173   0.71010   0.02382   0.00000  Uiso   1.00
Cu425  Cu    0.50000   0.75000   0.21355   0.00000  Uiso   1.00
Cu426  Cu    0.50000   0.75000   0.11978   0.00000  Uiso   1.00
Cu427  Cu    0.75000   0.50000   0.21355   0.00000  Uiso   1.00
Cu428  Cu    0.75000   0.50000   0.11978   0.00000  Uiso   1.00
H429   H     0.99667   0.66063   0.08147   0.00000  Uiso   1.00
H430   H     0.99667   0.83937   0.25187   0.00000  Uiso   1.00
H431   H     0.50642   0.84170   0.08293   0.00000  Uiso   1.00
H432   H     0.50642   0.65830   0.25040   0.00000  Uiso   1.00
H433   H     0.74667   0.91063   0.08147   0.00000  Uiso   1.00
H434   H     0.74667   0.58937   0.25187   0.00000  Uiso   1.00
H435   H     0.75642   0.59170   0.08294   0.00000  Uiso   1.00
H436   H     0.75642   0.90830   0.25040   0.00000  Uiso   1.00
N437   N     0.50000   0.75000   0.28402   0.00000  Uiso   1.00
N438   N     0.88827   0.80116   0.05214   0.00000  Uiso   1.00
N439   N     0.91061   0.83065   0.29063   0.00000  Uiso   1.00
N440   N     0.60541   0.68385   0.04706   0.00000  Uiso   1.00
N441   N     0.66061   0.91935   0.04271   0.00000  Uiso   1.00
N442   N     0.85544   0.56612   0.28625   0.00000  Uiso   1.00
N443   N     0.85621   0.55093   0.04977   0.00000  Uiso   1.00
N444   N     0.63827   0.94883   0.28119   0.00000  Uiso   1.00
N445   N     0.85625   0.94912   0.28354   0.00000  Uiso   1.00
N446   N     0.63828   0.55116   0.05214   0.00000  Uiso   1.00
N447   N     0.66061   0.58066   0.29063   0.00000  Uiso   1.00
N448   N     0.50000   0.75000   0.04931   0.00000  Uiso   1.00
N449   N     0.85542   0.93386   0.04706   0.00000  Uiso   1.00
N450   N     0.75000   0.50000   0.28402   0.00000  Uiso   1.00
N451   N     0.75000   0.50000   0.04931   0.00000  Uiso   1.00
N452   N     0.91059   0.66938   0.04271   0.00000  Uiso   1.00
N453   N     0.60542   0.81614   0.28627   0.00000  Uiso   1.00
N454   N     0.60625   0.80089   0.04979   0.00000  Uiso   1.00
N455   N     0.88827   0.69883   0.28119   0.00000  Uiso   1.00
N456   N     0.60626   0.69913   0.28354   0.00000  Uiso   1.00
O457   O     0.54509   0.70491   0.20625   0.00000  Uiso   1.00
O458   O     0.70492   0.54509   0.12709   0.00000  Uiso   1.00
O459   O     0.70492   0.54509   0.20625   0.00000  Uiso   1.00
O460   O     0.79509   0.95491   0.12709   0.00000  Uiso   1.00
O461   O     0.70492   0.95491   0.12709   0.00000  Uiso   1.00
O462   O     0.79509   0.54509   0.20625   0.00000  Uiso   1.00
O463   O     0.79509   0.54509   0.12709   0.00000  Uiso   1.00
O464   O     0.70492   0.95491   0.20625   0.00000  Uiso   1.00
O465   O     0.52798   0.63578   0.02887   0.00000  Uiso   1.00
O466   O     0.52799   0.86421   0.30446   0.00000  Uiso   1.00
O467   O     0.96611   0.86076   0.03642   0.00000  Uiso   1.00
O468   O     0.95492   0.79509   0.12709   0.00000  Uiso   1.00
O469   O     0.96611   0.63925   0.29691   0.00000  Uiso   1.00
O470   O     0.77799   0.88579   0.02887   0.00000  Uiso   1.00
O471   O     0.77801   0.61420   0.30446   0.00000  Uiso   1.00
O472   O     0.71613   0.61076   0.03641   0.00000  Uiso   1.00
O473   O     0.71611   0.88924   0.29692   0.00000  Uiso   1.00
O474   O     0.95492   0.79509   0.20625   0.00000  Uiso   1.00
O475   O     0.54509   0.70491   0.12709   0.00000  Uiso   1.00
O476   O     0.95492   0.70491   0.12709   0.00000  Uiso   1.00
O477   O     0.54509   0.79509   0.20625   0.00000  Uiso   1.00
O478   O     0.54509   0.79509   0.12709   0.00000  Uiso   1.00
O479   O     0.95492   0.70491   0.20625   0.00000  Uiso   1.00
O480   O     0.79509   0.95491   0.20625   0.00000  Uiso   1.00
C481   C     0.06140   0.19316   0.49982   0.00000  Uiso   1.00
C482   C     0.00174   0.28990   0.64285   0.00000  Uiso   1.00
C483   C     0.49829   0.28985   0.35898   0.00000  Uiso   1.00
C484   C     0.49829   0.21015   0.64102   0.00000  Uiso   1.00
C485   C     0.25174   0.46010   0.35715   0.00000  Uiso   1.00
C486   C     0.25174   0.03990   0.64285   0.00000  Uiso   1.00
C487   C     0.24829   0.03985   0.35898   0.00000  Uiso   1.00
C488   C     0.24829   0.46015   0.64102   0.00000  Uiso   1.00
C489   C     0.39188   0.13801   0.45684   0.00000  Uiso   1.00
C490   C     0.11171   0.35781   0.54173   0.00000  Uiso   1.00
C491   C     0.11539   0.35070   0.45792   0.00000  Uiso   1.00
C492   C     0.43909   0.30763   0.50038   0.00000  Uiso   1.00
C493   C     0.38588   0.14675   0.54067   0.00000  Uiso   1.00
C494   C     0.11539   0.14930   0.54208   0.00000  Uiso   1.00
C495   C     0.38588   0.35324   0.45933   0.00000  Uiso   1.00
C496   C     0.39189   0.36200   0.54316   0.00000  Uiso   1.00
C497   C     0.11171   0.14219   0.45827   0.00000  Uiso   1.00
C498   C     0.14189   0.38800   0.45684   0.00000  Uiso   1.00
C499   C     0.36171   0.10781   0.54173   0.00000  Uiso   1.00
C500   C     0.36537   0.10072   0.45791   0.00000  Uiso   1.00
C501   C     0.13588   0.39676   0.54067   0.00000  Uiso   1.00
C502   C     0.36539   0.39930   0.54208   0.00000  Uiso   1.00
C503   C     0.43909   0.19237   0.49962   0.00000  Uiso   1.00
C504   C     0.13588   0.10324   0.45933   0.00000  Uiso   1.00
C505   C     0.14189   0.11200   0.54316   0.00000  Uiso   1.00
C506   C     0.36171   0.39219   0.45827   0.00000  Uiso   1.00
C507   C     0.09741   0.33775   0.50014   0.00000  Uiso   1.00
C508   C     0.40426   0.15985   0.49872   0.00000  Uiso   1.00
C509   C     0.40427   0.34015   0.50128   0.00000  Uiso   1.00
C510   C     0.09741   0.16225   0.49986   0.00000  Uiso   1.00
C511   C     0.34741   0.08775   0.50013   0.00000  Uiso   1.00
C512   C     0.15427   0.40985   0.49872   0.00000  Uiso   1.00
C513   C     0.15427   0.09015   0.50128   0.00000  Uiso   1.00
C514   C     0.06140   0.30684   0.50018   0.00000  Uiso   1.00
C515   C     0.34741   0.41225   0.49986   0.00000  Uiso   1.00
C516   C     0.00831   0.16646   0.38076   0.00000  Uiso   1.00
C517   C     0.00832   0.33354   0.61924   0.00000  Uiso   1.00
C518   C     0.49082   0.33325   0.38445   0.00000  Uiso   1.00
C519   C     0.49082   0.16675   0.61555   0.00000  Uiso   1.00
C520   C     0.25832   0.41646   0.38076   0.00000  Uiso   1.00
C521   C     0.25832   0.08354   0.61924   0.00000  Uiso   1.00
C522   C     0.24082   0.08325   0.38445   0.00000  Uiso   1.00
C523   C     0.24082   0.41675   0.61555   0.00000  Uiso   1.00
C524   C     0.40268   0.15544   0.41198   0.00000  Uiso   1.00
C525   C     0.31140   0.44316   0.49982   0.00000  Uiso   1.00
C526   C     0.10774   0.33495   0.58514   0.00000  Uiso   1.00
C527   C     0.11024   0.32325   0.41608   0.00000  Uiso   1.00
C528   C     0.38746   0.17551   0.58192   0.00000  Uiso   1.00
C529   C     0.11024   0.17676   0.58391   0.00000  Uiso   1.00
C530   C     0.38746   0.32448   0.41808   0.00000  Uiso   1.00
C531   C     0.40270   0.34458   0.58802   0.00000  Uiso   1.00
C532   C     0.10773   0.16504   0.41485   0.00000  Uiso   1.00
C533   C     0.15270   0.40542   0.41198   0.00000  Uiso   1.00
C534   C     0.35775   0.08494   0.58514   0.00000  Uiso   1.00
C535   C     0.36021   0.07328   0.41607   0.00000  Uiso   1.00
C536   C     0.18909   0.05763   0.50038   0.00000  Uiso   1.00
C537   C     0.13746   0.42552   0.58192   0.00000  Uiso   1.00
C538   C     0.36024   0.42676   0.58392   0.00000  Uiso   1.00
C539   C     0.13746   0.07448   0.41808   0.00000  Uiso   1.00
C540   C     0.15270   0.09459   0.58802   0.00000  Uiso   1.00
C541   C     0.35774   0.41505   0.41485   0.00000  Uiso   1.00
C542   C     0.18909   0.44237   0.49962   0.00000  Uiso   1.00
C543   C     0.31140   0.05684   0.50018   0.00000  Uiso   1.00
C544   C     0.00173   0.21010   0.35715   0.00000  Uiso   1.00
Cu545  Cu    0.00000   0.25000   0.54689   0.00000  Uiso   1.00
Cu546  Cu    0.00000   0.25000   0.45311   0.00000  Uiso   1.00
Cu547  Cu    0.25000  -0.00000   0.54689   0.00000  Uiso   1.00
Cu548  Cu    0.25000  -0.00000   0.45311   0.00000  Uiso   1.00
H549   H     0.49667   0.16063   0.41480   0.00000  Uiso   1.00
H550   H     0.49667   0.33937   0.58520   0.00000  Uiso   1.00
H551   H     0.00642   0.34170   0.41627   0.00000  Uiso   1.00
H552   H     0.00642   0.15830   0.58374   0.00000  Uiso   1.00
H553   H     0.24667   0.41063   0.41480   0.00000  Uiso   1.00
H554   H     0.24667   0.08937   0.58521   0.00000  Uiso   1.00
H555   H     0.25642   0.09170   0.41627   0.00000  Uiso   1.00
H556   H     0.25642   0.40830   0.58373   0.00000  Uiso   1.00
N557   N     0.00000   0.25000   0.61736   0.00000  Uiso   1.00
N558   N     0.38827   0.30116   0.38548   0.00000  Uiso   1.00
N559   N     0.41061   0.33065   0.62396   0.00000  Uiso   1.00
N560   N     0.10541   0.18385   0.38039   0.00000  Uiso   1.00
N561   N     0.16061   0.41935   0.37604   0.00000  Uiso   1.00
N562   N     0.35544   0.06612   0.61959   0.00000  Uiso   1.00
N563   N     0.35621   0.05093   0.38310   0.00000  Uiso   1.00
N564   N     0.13827   0.44883   0.61452   0.00000  Uiso   1.00
N565   N     0.35625   0.44912   0.61688   0.00000  Uiso   1.00
N566   N     0.13828   0.05116   0.38548   0.00000  Uiso   1.00
N567   N     0.16061   0.08066   0.62396   0.00000  Uiso   1.00
N568   N     0.00000   0.25000   0.38264   0.00000  Uiso   1.00
N569   N     0.35542   0.43386   0.38040   0.00000  Uiso   1.00
N570   N     0.25000  -0.00000   0.61736   0.00000  Uiso   1.00
N571   N     0.25000  -0.00000   0.38264   0.00000  Uiso   1.00
N572   N     0.41059   0.16938   0.37604   0.00000  Uiso   1.00
N573   N     0.10542   0.31614   0.61960   0.00000  Uiso   1.00
N574   N     0.10625   0.30089   0.38312   0.00000  Uiso   1.00
N575   N     0.38827   0.19883   0.61453   0.00000  Uiso   1.00
N576   N     0.10626   0.19913   0.61687   0.00000  Uiso   1.00
O577   O     0.04509   0.20491   0.53958   0.00000  Uiso   1.00
O578   O     0.20492   0.04509   0.46042   0.00000  Uiso   1.00
O579   O     0.20492   0.04509   0.53958   0.00000  Uiso   1.00
O580   O     0.29509   0.45491   0.46042   0.00000  Uiso   1.00
O581   O     0.20492   0.45491   0.46042   0.00000  Uiso   1.00
O582   O     0.29509   0.04509   0.53958   0.00000  Uiso   1.00
O583   O     0.29509   0.04509   0.46042   0.00000  Uiso   1.00
O584   O     0.20492   0.45491   0.53958   0.00000  Uiso   1.00
O585   O     0.02798   0.13578   0.36220   0.00000  Uiso   1.00
O586   O     0.02799   0.36421   0.63780   0.00000  Uiso   1.00
O587   O     0.46611   0.36076   0.36975   0.00000  Uiso   1.00
O588   O     0.45492   0.29509   0.46042   0.00000  Uiso   1.00
O589   O     0.46611   0.13925   0.63025   0.00000  Uiso   1.00
O590   O     0.27799   0.38579   0.36220   0.00000  Uiso   1.00
O591   O     0.27801   0.11420   0.63779   0.00000  Uiso   1.00
O592   O     0.21613   0.11076   0.36974   0.00000  Uiso   1.00
O593   O     0.21611   0.38924   0.63025   0.00000  Uiso   1.00
O594   O     0.45492   0.29509   0.53958   0.00000  Uiso   1.00
O595   O     0.04509   0.20491   0.46042   0.00000  Uiso   1.00
O596   O     0.45492   0.20491   0.46042   0.00000  Uiso   1.00
O597   O     0.04509   0.29509   0.53958   0.00000  Uiso   1.00
O598   O     0.04509   0.29509   0.46042   0.00000  Uiso   1.00
O599   O     0.45492   0.20491   0.53958   0.00000  Uiso   1.00
O600   O     0.29509   0.45491   0.53958   0.00000  Uiso   1.00
C601   C     0.56140   0.19316   0.49982   0.00000  Uiso   1.00
C602   C     0.50174   0.28990   0.64285   0.00000  Uiso   1.00
C603   C     0.99829   0.28985   0.35898   0.00000  Uiso   1.00
C604   C     0.99829   0.21015   0.64102   0.00000  Uiso   1.00
C605   C     0.75174   0.46010   0.35715   0.00000  Uiso   1.00
C606   C     0.75174   0.03990   0.64285   0.00000  Uiso   1.00
C607   C     0.74829   0.03985   0.35898   0.00000  Uiso   1.00
C608   C     0.74829   0.46015   0.64102   0.00000  Uiso   1.00
C609   C     0.89188   0.13801   0.45684   0.00000  Uiso   1.00
C610   C     0.61171   0.35781   0.54173   0.00000  Uiso   1.00
C611   C     0.61539   0.35070   0.45792   0.00000  Uiso   1.00
C612   C     0.93909   0.30763   0.50038   0.00000  Uiso   1.00
C613   C     0.88588   0.14675   0.54067   0.00000  Uiso   1.00
C614   C     0.61539   0.14930   0.54208   0.00000  Uiso   1.00
C615   C     0.88588   0.35324   0.45933   0.00000  Uiso   1.00
C616   C     0.89189   0.36200   0.54316   0.00000  Uiso   1.00
C617   C     0.61171   0.14219   0.45827   0.00000  Uiso   1.00
C618   C     0.64189   0.38800   0.45684   0.00000  Uiso   1.00
C619   C     0.86171   0.10781   0.54173   0.00000  Uiso   1.00
C620   C     0.86537   0.10072   0.45791   0.00000  Uiso   1.00
C621   C     0.63588   0.39676   0.54067   0.00000  Uiso   1.00
C622   C     0.86539   0.39930   0.54208   0.00000  Uiso   1.00
C623   C     0.93909   0.19237   0.49962   0.00000  Uiso   1.00
C624   C     0.63588   0.10324   0.45933   0.00000  Uiso   1.00
C625   C     0.64189   0.11200   0.54316   0.00000  Uiso   1.00
C626   C     0.86171   0.39219   0.45827   0.00000  Uiso   1.00
C627   C     0.59741   0.33775   0.50014   0.00000  Uiso   1.00
C628   C     0.90426   0.15985   0.49872   0.00000  Uiso   1.00
C629   C     0.90427   0.34015   0.50128   0.00000  Uiso   1.00
C630   C     0.59741   0.16225   0.49986   0.00000  Uiso   1.00
C631   C     0.84741   0.08775   0.50013   0.00000  Uiso   1.00
C632   C     0.65427   0.40985   0.49872   0.00000  Uiso   1.00
C633   C     0.65427   0.09015   0.50128   0.00000  Uiso   1.00
C634   C     0.56140   0.30684   0.50018   0.00000  Uiso   1.00
C635   C     0.84741   0.41225   0.49986   0.00000  Uiso   1.00
C636   C     0.50831   0.16646   0.38076   0.00000  Uiso   1.00
C637   C     0.50832   0.33354   0.61924   0.00000  Uiso   1.00
C638   C     0.99082   0.33325   0.38445   0.00000  Uiso   1.00
C639   C     0.99082   0.16675   0.61555   0.00000  Uiso   1.00
C640   C     0.75832   0.41646   0.38076   0.00000  Uiso   1.00
C641   C     0.75832   0.08354   0.61924   0.00000  Uiso   1.00
C642   C     0.74082   0.08325   0.38445   0.00000  Uiso   1.00
C643   C     0.74082   0.41675   0.61555   0.00000  Uiso   1.00
C644   C     0.90268   0.15544   0.41198   0.00000  Uiso   1.00
C645   C     0.81140   0.44316   0.49982   0.00000  Uiso   1.00
C646   C     0.60774   0.33495   0.58514   0.00000  Uiso   1.00
C647   C     0.61024   0.32325   0.41608   0.00000  Uiso   1.00
C648   C     0.88746   0.17551   0.58192   0.00000  Uiso   1.00
C649   C     0.61024   0.17676   0.58391   0.00000  Uiso   1.00
C650   C     0.88746   0.32448   0.41808   0.00000  Uiso   1.00
C651   C     0.90270   0.34458   0.58802   0.00000  Uiso   1.00
C652   C     0.60773   0.16504   0.41485   0.00000  Uiso   1.00
C653   C     0.65270   0.40542   0.41198   0.00000  Uiso   1.00
C654   C     0.85775   0.08494   0.58514   0.00000  Uiso   1.00
C655   C     0.86021   0.07328   0.41607   0.00000  Uiso   1.00
C656   C     0.68909   0.05763   0.50038   0.00000  Uiso   1.00
C657   C     0.63746   0.42552   0.58192   0.00000  Uiso   1.00
C658   C     0.86024   0.42676   0.58392   0.00000  Uiso   1.00
C659   C     0.63746   0.07448   0.41808   0.00000  Uiso   1.00
C660   C     0.65270   0.09459   0.58802   0.00000  Uiso   1.00
C661   C     0.85774   0.41505   0.41485   0.00000  Uiso   1.00
C662   C     0.68909   0.44237   0.49962   0.00000  Uiso   1.00
C663   C     0.81140   0.05684   0.50018   0.00000  Uiso   1.00
C664   C     0.50173   0.21010   0.35715   0.00000  Uiso   1.00
Cu665  Cu    0.50000   0.25000   0.54689   0.00000  Uiso   1.00
Cu666  Cu    0.50000   0.25000   0.45311   0.00000  Uiso   1.00
Cu667  Cu    0.75000  -0.00000   0.54689   0.00000  Uiso   1.00
Cu668  Cu    0.75000  -0.00000   0.45311   0.00000  Uiso   1.00
H669   H     0.99667   0.16063   0.41480   0.00000  Uiso   1.00
H670   H     0.99667   0.33937   0.58520   0.00000  Uiso   1.00
H671   H     0.50642   0.34170   0.41627   0.00000  Uiso   1.00
H672   H     0.50642   0.15830   0.58374   0.00000  Uiso   1.00
H673   H     0.74667   0.41063   0.41480   0.00000  Uiso   1.00
H674   H     0.74667   0.08937   0.58521   0.00000  Uiso   1.00
H675   H     0.75642   0.09170   0.41627   0.00000  Uiso   1.00
H676   H     0.75642   0.40830   0.58373   0.00000  Uiso   1.00
N677   N     0.50000   0.25000   0.61736   0.00000  Uiso   1.00
N678   N     0.88827   0.30116   0.38548   0.00000  Uiso   1.00
N679   N     0.91061   0.33065   0.62396   0.00000  Uiso   1.00
N680   N     0.60541   0.18385   0.38039   0.00000  Uiso   1.00
N681   N     0.66061   0.41935   0.37604   0.00000  Uiso   1.00
N682   N     0.85544   0.06612   0.61959   0.00000  Uiso   1.00
N683   N     0.85621   0.05093   0.38310   0.00000  Uiso   1.00
N684   N     0.63827   0.44883   0.61452   0.00000  Uiso   1.00
N685   N     0.85625   0.44912   0.61688   0.00000  Uiso   1.00
N686   N     0.63828   0.05116   0.38548   0.00000  Uiso   1.00
N687   N     0.66061   0.08066   0.62396   0.00000  Uiso   1.00
N688   N     0.50000   0.25000   0.38264   0.00000  Uiso   1.00
N689   N     0.85542   0.43386   0.38040   0.00000  Uiso   1.00
N690   N     0.75000  -0.00000   0.61736   0.00000  Uiso   1.00
N691   N     0.75000  -0.00000   0.38264   0.00000  Uiso   1.00
N692   N     0.91059   0.16938   0.37604   0.00000  Uiso   1.00
N693   N     0.60542   0.31614   0.61960   0.00000  Uiso   1.00
N694   N     0.60625   0.30089   0.38312   0.00000  Uiso   1.00
N695   N     0.88827   0.19883   0.61453   0.00000  Uiso   1.00
N696   N     0.60626   0.19913   0.61687   0.00000  Uiso   1.00
O697   O     0.54509   0.20491   0.53958   0.00000  Uiso   1.00
O698   O     0.70492   0.04509   0.46042   0.00000  Uiso   1.00
O699   O     0.70492   0.04509   0.53958   0.00000  Uiso   1.00
O700   O     0.79509   0.45491   0.46042   0.00000  Uiso   1.00
O701   O     0.70492   0.45491   0.46042   0.00000  Uiso   1.00
O702   O     0.79509   0.04509   0.53958   0.00000  Uiso   1.00
O703   O     0.79509   0.04509   0.46042   0.00000  Uiso   1.00
O704   O     0.70492   0.45491   0.53958   0.00000  Uiso   1.00
O705   O     0.52798   0.13578   0.36220   0.00000  Uiso   1.00
O706   O     0.52799   0.36421   0.63780   0.00000  Uiso   1.00
O707   O     0.96611   0.36076   0.36975   0.00000  Uiso   1.00
O708   O     0.95492   0.29509   0.46042   0.00000  Uiso   1.00
O709   O     0.96611   0.13925   0.63025   0.00000  Uiso   1.00
O710   O     0.77799   0.38579   0.36220   0.00000  Uiso   1.00
O711   O     0.77801   0.11420   0.63779   0.00000  Uiso   1.00
O712   O     0.71613   0.11076   0.36974   0.00000  Uiso   1.00
O713   O     0.71611   0.38924   0.63025   0.00000  Uiso   1.00
O714   O     0.95492   0.29509   0.53958   0.00000  Uiso   1.00
O715   O     0.54509   0.20491   0.46042   0.00000  Uiso   1.00
O716   O     0.95492   0.20491   0.46042   0.00000  Uiso   1.00
O717   O     0.54509   0.29509   0.53958   0.00000  Uiso   1.00
O718   O     0.54509   0.29509   0.46042   0.00000  Uiso   1.00
O719   O     0.95492   0.20491   0.53958   0.00000  Uiso   1.00
O720   O     0.79509   0.45491   0.53958   0.00000  Uiso   1.00
C721   C     0.06140   0.69316   0.49982   0.00000  Uiso   1.00
C722   C     0.00174   0.78990   0.64285   0.00000  Uiso   1.00
C723   C     0.49829   0.78985   0.35898   0.00000  Uiso   1.00
C724   C     0.49829   0.71015   0.64102   0.00000  Uiso   1.00
C725   C     0.25174   0.96010   0.35715   0.00000  Uiso   1.00
C726   C     0.25174   0.53990   0.64285   0.00000  Uiso   1.00
C727   C     0.24829   0.53985   0.35898   0.00000  Uiso   1.00
C728   C     0.24829   0.96015   0.64102   0.00000  Uiso   1.00
C729   C     0.39188   0.63801   0.45684   0.00000  Uiso   1.00
C730   C     0.11171   0.85781   0.54173   0.00000  Uiso   1.00
C731   C     0.11539   0.85070   0.45792   0.00000  Uiso   1.00
C732   C     0.43909   0.80763   0.50038   0.00000  Uiso   1.00
C733   C     0.38588   0.64675   0.54067   0.00000  Uiso   1.00
C734   C     0.11539   0.64930   0.54208   0.00000  Uiso   1.00
C735   C     0.38588   0.85324   0.45933   0.00000  Uiso   1.00
C736   C     0.39189   0.86200   0.54316   0.00000  Uiso   1.00
C737   C     0.11171   0.64219   0.45827   0.00000  Uiso   1.00
C738   C     0.14189   0.88800   0.45684   0.00000  Uiso   1.00
C739   C     0.36171   0.60781   0.54173   0.00000  Uiso   1.00
C740   C     0.36537   0.60072   0.45791   0.00000  Uiso   1.00
C741   C     0.13588   0.89676   0.54067   0.00000  Uiso   1.00
C742   C     0.36539   0.89930   0.54208   0.00000  Uiso   1.00
C743   C     0.43909   0.69237   0.49962   0.00000  Uiso   1.00
C744   C     0.13588   0.60324   0.45933   0.00000  Uiso   1.00
C745   C     0.14189   0.61200   0.54316   0.00000  Uiso   1.00
C746   C     0.36171   0.89219   0.45827   0.00000  Uiso   1.00
C747   C     0.09741   0.83775   0.50014   0.00000  Uiso   1.00
C748   C     0.40426   0.65985   0.49872   0.00000  Uiso   1.00
C749   C     0.40427   0.84015   0.50128   0.00000  Uiso   1.00
C750   C     0.09741   0.66225   0.49986   0.00000  Uiso   1.00
C751   C     0.34741   0.58775   0.50013   0.00000  Uiso   1.00
C752   C     0.15427   0.90985   0.49872   0.00000  Uiso   1.00
C753   C     0.15427   0.59015   0.50128   0.00000  Uiso   1.00
C754   C     0.06140   0.80684   0.50018   0.00000  Uiso   1.00
C755   C     0.34741   0.91225   0.49986   0.00000  Uiso   1.00
C756   C     0.00831   0.66646   0.38076   0.00000  Uiso   1.00
C757   C     0.00832   0.83354   0.61924   0.00000  Uiso   1.00
C758   C     0.49082   0.83325   0.38445   0.00000  Uiso   1.00
C759   C     0.49082   0.66675   0.61555   0.00000  Uiso   1.00
C760   C     0.25832   0.91646   0.38076   0.00000  Uiso   1.00
C761   C     0.25832   0.58354   0.61924   0.00000  Uiso   1.00
C762   C     0.24082   0.58325   0.38445   0.00000  Uiso   1.00
C763   C     0.24082   0.91675   0.61555   0.00000  Uiso   1.00
C764   C     0.40268   0.65544   0.41198   0.00000  Uiso   1.00
C765   C     0.31140   0.94316   0.49982   0.00000  Uiso   1.00
C766   C     0.10774   0.83495   0.58514   0.00000  Uiso   1.00
C767   C     0.11024   0.82325   0.41608   0.00000  Uiso   1.00
C768   C     0.38746   0.67551   0.58192   0.00000  Uiso   1.00
C769   C     0.11024   0.67676   0.58391   0.00000  Uiso   1.00
C770   C     0.38746   0.82448   0.41808   0.00000  Uiso   1.00
C771   C     0.40270   0.84458   0.58802   0.00000  Uiso   1.00
C772   C     0.10773   0.66504   0.41485   0.00000  Uiso   1.00
C773   C     0.15270   0.90542   0.41198   0.00000  Uiso   1.00
C774   C     0.35775   0.58494   0.58514   0.00000  Uiso   1.00
C775   C     0.36021   0.57328   0.41607   0.00000  Uiso   1.00
C776   C     0.18909   0.55763   0.50038   0.00000  Uiso   1.00
C777   C     0.13746   0.92552   0.58192   0.00000  Uiso   1.00
C778   C     0.36024   0.92676   0.58392   0.00000  Uiso   1.00
C779   C     0.13746   0.57448   0.41808   0.00000  Uiso   1.00
C780   C     0.15270   0.59459   0.58802   0.00000  Uiso   1.00
C781   C     0.35774   0.91505   0.41485   0.00000  Uiso   1.00
C782   C     0.18909   0.94237   0.49962   0.00000  Uiso   1.00
C783   C     0.31140   0.55684   0.50018   0.00000  Uiso   1.00
C784   C     0.00173   0.71010   0.35715   0.00000  Uiso   1.00
Cu785  Cu    0.00000   0.75000   0.54689   0.00000  Uiso   1.00
Cu786  Cu    0.00000   0.75000   0.45311   0.00000  Uiso   1.00
Cu787  Cu    0.25000   0.50000   0.54689   0.00000  Uiso   1.00
Cu788  Cu    0.25000   0.50000   0.45311   0.00000  Uiso   1.00
H789   H     0.49667   0.66063   0.41480   0.00000  Uiso   1.00
H790   H     0.49667   0.83937   0.58520   0.00000  Uiso   1.00
H791   H     0.00642   0.84170   0.41627   0.00000  Uiso   1.00
H792   H     0.00642   0.65830   0.58374   0.00000  Uiso   1.00
H793   H     0.24667   0.91063   0.41480   0.00000  Uiso   1.00
H794   H     0.24667   0.58937   0.58521   0.00000  Uiso   1.00
H795   H     0.25642   0.59170   0.41627   0.00000  Uiso   1.00
H796   H     0.25642   0.90830   0.58373   0.00000  Uiso   1.00
N797   N     0.00000   0.75000   0.61736   0.00000  Uiso   1.00
N798   N     0.38827   0.80116   0.38548   0.00000  Uiso   1.00
N799   N     0.41061   0.83065   0.62396   0.00000  Uiso   1.00
N800   N     0.10541   0.68385   0.38039   0.00000  Uiso   1.00
N801   N     0.16061   0.91935   0.37604   0.00000  Uiso   1.00
N802   N     0.35544   0.56612   0.61959   0.00000  Uiso   1.00
N803   N     0.35621   0.55093   0.38310   0.00000  Uiso   1.00
N804   N     0.13827   0.94883   0.61452   0.00000  Uiso   1.00
N805   N     0.35625   0.94912   0.61688   0.00000  Uiso   1.00
N806   N     0.13828   0.55116   0.38548   0.00000  Uiso   1.00
N807   N     0.16061   0.58066   0.62396   0.00000  Uiso   1.00
N808   N     0.00000   0.75000   0.38264   0.00000  Uiso   1.00
N809   N     0.35542   0.93386   0.38040   0.00000  Uiso   1.00
N810   N     0.25000   0.50000   0.61736   0.00000  Uiso   1.00
N811   N     0.25000   0.50000   0.38264   0.00000  Uiso   1.00
N812   N     0.41059   0.66938   0.37604   0.00000  Uiso   1.00
N813   N     0.10542   0.81614   0.61960   0.00000  Uiso   1.00
N814   N     0.10625   0.80089   0.38312   0.00000  Uiso   1.00
N815   N     0.38827   0.69883   0.61453   0.00000  Uiso   1.00
N816   N     0.10626   0.69913   0.61687   0.00000  Uiso   1.00
O817   O     0.04509   0.70491   0.53958   0.00000  Uiso   1.00
O818   O     0.20492   0.54509   0.46042   0.00000  Uiso   1.00
O819   O     0.20492   0.54509   0.53958   0.00000  Uiso   1.00
O820   O     0.29509   0.95491   0.46042   0.00000  Uiso   1.00
O821   O     0.20492   0.95491   0.46042   0.00000  Uiso   1.00
O822   O     0.29509   0.54509   0.53958   0.00000  Uiso   1.00
O823   O     0.29509   0.54509   0.46042   0.00000  Uiso   1.00
O824   O     0.20492   0.95491   0.53958   0.00000  Uiso   1.00
O825   O     0.02798   0.63578   0.36220   0.00000  Uiso   1.00
O826   O     0.02799   0.86421   0.63780   0.00000  Uiso   1.00
O827   O     0.46611   0.86076   0.36975   0.00000  Uiso   1.00
O828   O     0.45492   0.79509   0.46042   0.00000  Uiso   1.00
O829   O     0.46611   0.63925   0.63025   0.00000  Uiso   1.00
O830   O     0.27799   0.88579   0.36220   0.00000  Uiso   1.00
O831   O     0.27801   0.61420   0.63779   0.00000  Uiso   1.00
O832   O     0.21613   0.61076   0.36974   0.00000  Uiso   1.00
O833   O     0.21611   0.88924   0.63025   0.00000  Uiso   1.00
O834   O     0.45492   0.79509   0.53958   0.00000  Uiso   1.00
O835   O     0.04509   0.70491   0.46042   0.00000  Uiso   1.00
O836   O     0.45492   0.70491   0.46042   0.00000  Uiso   1.00
O837   O     0.04509   0.79509   0.53958   0.00000  Uiso   1.00
O838   O     0.04509   0.79509   0.46042   0.00000  Uiso   1.00
O839   O     0.45492   0.70491   0.53958   0.00000  Uiso   1.00
O840   O     0.29509   0.95491   0.53958   0.00000  Uiso   1.00
C841   C     0.56140   0.69316   0.49982   0.00000  Uiso   1.00
C842   C     0.50174   0.78990   0.64285   0.00000  Uiso   1.00
C843   C     0.99829   0.78985   0.35898   0.00000  Uiso   1.00
C844   C     0.99829   0.71015   0.64102   0.00000  Uiso   1.00
C845   C     0.75174   0.96010   0.35715   0.00000  Uiso   1.00
C846   C     0.75174   0.53990   0.64285   0.00000  Uiso   1.00
C847   C     0.74829   0.53985   0.35898   0.00000  Uiso   1.00
C848   C     0.74829   0.96015   0.64102   0.00000  Uiso   1.00
C849   C     0.89188   0.63801   0.45684   0.00000  Uiso   1.00
C850   C     0.61171   0.85781   0.54173   0.00000  Uiso   1.00
C851   C     0.61539   0.85070   0.45792   0.00000  Uiso   1.00
C852   C     0.93909   0.80763   0.50038   0.00000  Uiso   1.00
C853   C     0.88588   0.64675   0.54067   0.00000  Uiso   1.00
C854   C     0.61539   0.64930   0.54208   0.00000  Uiso   1.00
C855   C     0.88588   0.85324   0.45933   0.00000  Uiso   1.00
C856   C     0.89189   0.86200   0.54316   0.00000  Uiso   1.00
C857   C     0.61171   0.64219   0.45827   0.00000  Uiso   1.00
C858   C     0.64189   0.88800   0.45684   0.00000  Uiso   1.00
C859   C     0.86171   0.60781   0.54173   0.00000  Uiso   1.00
C860   C     0.86537   0.60072   0.45791   0.00000  Uiso   1.00
C861   C     0.63588   0.89676   0.54067   0.00000  Uiso   1.00
C862   C     0.86539   0.89930   0.54208   0.00000  Uiso   1.00
C863   C     0.93909   0.69237   0.49962   0.00000  Uiso   1.00
C864   C     0.63588   0.60324   0.45933   0.00000  Uiso   1.00
C865   C     0.64189   0.61200   0.54316   0.00000  Uiso   1.00
C866   C     0.86171   0.89219   0.45827   0.00000  Uiso   1.00
C867   C     0.59741   0.83775   0.50014   0.00000  Uiso   1.00
C868   C     0.90426   0.65985   0.49872   0.00000  Uiso   1.00
C869   C     0.90427   0.84015   0.50128   0.00000  Uiso   1.00
C870   C     0.59741   0.66225   0.49986   0.00000  Uiso   1.00
C871   C     0.84741   0.58775   0.50013   0.00000  Uiso   1.00
C872   C     0.65427   0.90985   0.49872   0.00000  Uiso   1.00
C873   C     0.65427   0.59015   0.50128   0.00000  Uiso   1.00
C874   C     0.56140   0.80684   0.50018   0.00000  Uiso   1.00
C875   C     0.84741   0.91225   0.49986   0.00000  Uiso   1.00
C876   C     0.50831   0.66646   0.38076   0.00000  Uiso   1.00
C877   C     0.50832   0.83354   0.61924   0.00000  Uiso   1.00
C878   C     0.99082   0.83325   0.38445   0.00000  Uiso   1.00
C879   C     0.99082   0.66675   0.61555   0.00000  Uiso   1.00
C880   C     0.75832   0.91646   0.38076   0.00000  Uiso   1.00
C881   C     0.75832   0.58354   0.61924   0.00000  Uiso   1.00
C882   C     0.74082   0.58325   0.38445   0.00000  Uiso   1.00
C883   C     0.74082   0.91675   0.61555   0.00000  Uiso   1.00
C884   C     0.90268   0.65544   0.41198   0.00000  Uiso   1.00
C885   C     0.81140   0.94316   0.49982   0.00000  Uiso   1.00
C886   C     0.60774   0.83495   0.58514   0.00000  Uiso   1.00
C887   C     0.61024   0.82325   0.41608   0.00000  Uiso   1.00
C888   C     0.88746   0.67551   0.58192   0.00000  Uiso   1.00
C889   C     0.61024   0.67676   0.58391   0.00000  Uiso   1.00
C890   C     0.88746   0.82448   0.41808   0.00000  Uiso   1.00
C891   C     0.90270   0.84458   0.58802   0.00000  Uiso   1.00
C892   C     0.60773   0.66504   0.41485   0.00000  Uiso   1.00
C893   C     0.65270   0.90542   0.41198   0.00000  Uiso   1.00
C894   C     0.85775   0.58494   0.58514   0.00000  Uiso   1.00
C895   C     0.86021   0.57328   0.41607   0.00000  Uiso   1.00
C896   C     0.68909   0.55763   0.50038   0.00000  Uiso   1.00
C897   C     0.63746   0.92552   0.58192   0.00000  Uiso   1.00
C898   C     0.86024   0.92676   0.58392   0.00000  Uiso   1.00
C899   C     0.63746   0.57448   0.41808   0.00000  Uiso   1.00
C900   C     0.65270   0.59459   0.58802   0.00000  Uiso   1.00
C901   C     0.85774   0.91505   0.41485   0.00000  Uiso   1.00
C902   C     0.68909   0.94237   0.49962   0.00000  Uiso   1.00
C903   C     0.81140   0.55684   0.50018   0.00000  Uiso   1.00
C904   C     0.50173   0.71010   0.35715   0.00000  Uiso   1.00
Cu905  Cu    0.50000   0.75000   0.54689   0.00000  Uiso   1.00
Cu906  Cu    0.50000   0.75000   0.45311   0.00000  Uiso   1.00
Cu907  Cu    0.75000   0.50000   0.54689   0.00000  Uiso   1.00
Cu908  Cu    0.75000   0.50000   0.45311   0.00000  Uiso   1.00
H909   H     0.99667   0.66063   0.41480   0.00000  Uiso   1.00
H910   H     0.99667   0.83937   0.58520   0.00000  Uiso   1.00
H911   H     0.50642   0.84170   0.41627   0.00000  Uiso   1.00
H912   H     0.50642   0.65830   0.58374   0.00000  Uiso   1.00
H913   H     0.74667   0.91063   0.41480   0.00000  Uiso   1.00
H914   H     0.74667   0.58937   0.58521   0.00000  Uiso   1.00
H915   H     0.75642   0.59170   0.41627   0.00000  Uiso   1.00
H916   H     0.75642   0.90830   0.58373   0.00000  Uiso   1.00
N917   N     0.50000   0.75000   0.61736   0.00000  Uiso   1.00
N918   N     0.88827   0.80116   0.38548   0.00000  Uiso   1.00
N919   N     0.91061   0.83065   0.62396   0.00000  Uiso   1.00
N920   N     0.60541   0.68385   0.38039   0.00000  Uiso   1.00
N921   N     0.66061   0.91935   0.37604   0.00000  Uiso   1.00
N922   N     0.85544   0.56612   0.61959   0.00000  Uiso   1.00
N923   N     0.85621   0.55093   0.38310   0.00000  Uiso   1.00
N924   N     0.63827   0.94883   0.61452   0.00000  Uiso   1.00
N925   N     0.85625   0.94912   0.61688   0.00000  Uiso   1.00
N926   N     0.63828   0.55116   0.38548   0.00000  Uiso   1.00
N927   N     0.66061   0.58066   0.62396   0.00000  Uiso   1.00
N928   N     0.50000   0.75000   0.38264   0.00000  Uiso   1.00
N929   N     0.85542   0.93386   0.38040   0.00000  Uiso   1.00
N930   N     0.75000   0.50000   0.61736   0.00000  Uiso   1.00
N931   N     0.75000   0.50000   0.38264   0.00000  Uiso   1.00
N932   N     0.91059   0.66938   0.37604   0.00000  Uiso   1.00
N933   N     0.60542   0.81614   0.61960   0.00000  Uiso   1.00
N934   N     0.60625   0.80089   0.38312   0.00000  Uiso   1.00
N935   N     0.88827   0.69883   0.61453   0.00000  Uiso   1.00
N936   N     0.60626   0.69913   0.61687   0.00000  Uiso   1.00
O937   O     0.54509   0.70491   0.53958   0.00000  Uiso   1.00
O938   O     0.70492   0.54509   0.46042   0.00000  Uiso   1.00
O939   O     0.70492   0.54509   0.53958   0.00000  Uiso   1.00
O940   O     0.79509   0.95491   0.46042   0.00000  Uiso   1.00
O941   O     0.70492   0.95491   0.46042   0.00000  Uiso   1.00
O942   O     0.79509   0.54509   0.53958   0.00000  Uiso   1.00
O943   O     0.79509   0.54509   0.46042   0.00000  Uiso   1.00
O944   O     0.70492   0.95491   0.53958   0.00000  Uiso   1.00
O945   O     0.52798   0.63578   0.36220   0.00000  Uiso   1.00
O946   O     0.52799   0.86421   0.63780   0.00000  Uiso   1.00
O947   O     0.96611   0.86076   0.36975   0.00000  Uiso   1.00
O948   O     0.95492   0.79509   0.46042   0.00000  Uiso   1.00
O949   O     0.96611   0.63925   0.63025   0.00000  Uiso   1.00
O950   O     0.77799   0.88579   0.36220   0.00000  Uiso   1.00
O951   O     0.77801   0.61420   0.63779   0.00000  Uiso   1.00
O952   O     0.71613   0.61076   0.36974   0.00000  Uiso   1.00
O953   O     0.71611   0.88924   0.63025   0.00000  Uiso   1.00
O954   O     0.95492   0.79509   0.53958   0.00000  Uiso   1.00
O955   O     0.54509   0.70491   0.46042   0.00000  Uiso   1.00
O956   O     0.95492   0.70491   0.46042   0.00000  Uiso   1.00
O957   O     0.54509   0.79509   0.53958   0.00000  Uiso   1.00
O958   O     0.54509   0.79509   0.46042   0.00000  Uiso   1.00
O959   O     0.95492   0.70491   0.53958   0.00000  Uiso   1.00
O960   O     0.79509   0.95491   0.53958   0.00000  Uiso   1.00
C961   C     0.06140   0.19316   0.83315   0.00000  Uiso   1.00
C962   C     0.00174   0.28990   0.97618   0.00000  Uiso   1.00
C963   C     0.49829   0.28985   0.69232   0.00000  Uiso   1.00
C964   C     0.49829   0.21015   0.97435   0.00000  Uiso   1.00
C965   C     0.25174   0.46010   0.69049   0.00000  Uiso   1.00
C966   C     0.25174   0.03990   0.97618   0.00000  Uiso   1.00
C967   C     0.24829   0.03985   0.69232   0.00000  Uiso   1.00
C968   C     0.24829   0.46015   0.97435   0.00000  Uiso   1.00
C969   C     0.39188   0.13801   0.79018   0.00000  Uiso   1.00
C970   C     0.11171   0.35781   0.87506   0.00000  Uiso   1.00
C971   C     0.11539   0.35070   0.79125   0.00000  Uiso   1.00
C972   C     0.43909   0.30763   0.83371   0.00000  Uiso   1.00
C973   C     0.38588   0.14675   0.87400   0.00000  Uiso   1.00
C974   C     0.11539   0.14930   0.87542   0.00000  Uiso   1.00
C975   C     0.38588   0.35324   0.79266   0.00000  Uiso   1.00
C976   C     0.39189   0.36200   0.87649   0.00000  Uiso   1.00
C977   C     0.11171   0.14219   0.79160   0.00000  Uiso   1.00
C978   C     0.14189   0.38800   0.79018   0.00000  Uiso   1.00
C979   C     0.36171   0.10781   0.87506   0.00000  Uiso   1.00
C980   C     0.36537   0.10072   0.79124   0.00000  Uiso   1.00
C981   C     0.13588   0.39676   0.87400   0.00000  Uiso   1.00
C982   C     0.36539   0.39930   0.87542   0.00000  Uiso   1.00
C983   C     0.43909   0.19237   0.83295   0.00000  Uiso   1.00
C984   C     0.13588   0.10324   0.79266   0.00000  Uiso   1.00
C985   C     0.14189   0.11200   0.87649   0.00000  Uiso   1.00
C986   C     0.36171   0.39219   0.79160   0.00000  Uiso   1.00
C987   C     0.09741   0.33775   0.83347   0.00000  Uiso   1.00
C988   C     0.40426   0.15985   0.83206   0.00000  Uiso   1.00
C989   C     0.40427   0.34015   0.83461   0.00000  Uiso   1.00
C990   C     0.09741   0.16225   0.83319   0.00000  Uiso   1.00
C991   C     0.34741   0.08775   0.83347   0.00000  Uiso   1.00
C992   C     0.15427   0.40985   0.83206   0.00000  Uiso   1.00
C993   C     0.15427   0.09015   0.83461   0.00000  Uiso   1.00
C994   C     0.06140   0.30684   0.83351   0.00000  Uiso   1.00
C995   C     0.34741   0.41225   0.83319   0.00000  Uiso   1.00
C996   C     0.00831   0.16646   0.71409   0.00000  Uiso   1.00
C997   C     0.00832   0.33354   0.95257   0.00000  Uiso   1.00
C998   C     0.49082   0.33325   0.71778   0.00000  Uiso   1.00
C999   C     0.49082   0.16675   0.94889   0.00000  Uiso   1.00
C1000  C     0.25832   0.41646   0.71409   0.00000  Uiso   1.00
C1001  C     0.25832   0.08354   0.95257   0.00000  Uiso   1.00
C1002  C     0.24082   0.08325   0.71778   0.00000  Uiso   1.00
C1003  C     0.24082   0.41675   0.94889   0.00000  Uiso   1.00
C1004  C     0.40268   0.15544   0.74531   0.00000  Uiso   1.00
C1005  C     0.31140   0.44316   0.83315   0.00000  Uiso   1.00
C1006  C     0.10774   0.33495   0.91848   0.00000  Uiso   1.00
C1007  C     0.11024   0.32325   0.74942   0.00000  Uiso   1.00
C1008  C     0.38746   0.17551   0.91525   0.00000  Uiso   1.00
C1009  C     0.11024   0.17676   0.91725   0.00000  Uiso   1.00
C1010  C     0.38746   0.32448   0.75142   0.00000  Uiso   1.00
C1011  C     0.40270   0.34458   0.92135   0.00000  Uiso   1.00
C1012  C     0.10773   0.16504   0.74818   0.00000  Uiso   1.00
C1013  C     0.15270   0.40542   0.74531   0.00000  Uiso   1.00
C1014  C     0.35775   0.08494   0.91847   0.00000  Uiso   1.00
C1015  C     0.36021   0.07328   0.74940   0.00000  Uiso   1.00
C1016  C     0.18909   0.05763   0.83371   0.00000  Uiso   1.00
C1017  C     0.13746   0.42552   0.91525   0.00000  Uiso   1.00
C1018  C     0.36024   0.42676   0.91725   0.00000  Uiso   1.00
C1019  C     0.13746   0.07448   0.75142   0.00000  Uiso   1.00
C1020  C     0.15270   0.09459   0.92135   0.00000  Uiso   1.00
C1021  C     0.35774   0.41505   0.74819   0.00000  Uiso   1.00
C1022  C     0.18909   0.44237   0.83295   0.00000  Uiso   1.00
C1023  C     0.31140   0.05684   0.83351   0.00000  Uiso   1.00
C1024  C     0.00173   0.21010   0.69049   0.00000  Uiso   1.00
Cu1025 Cu    0.00000   0.25000   0.88022   0.00000  Uiso   1.00
Cu1026 Cu    0.00000   0.25000   0.78645   0.00000  Uiso   1.00
Cu1027 Cu    0.25000  -0.00000   0.88022   0.00000  Uiso   1.00
Cu1028 Cu    0.25000  -0.00000   0.78645   0.00000  Uiso   1.00
H1029  H     0.49667   0.16063   0.74813   0.00000  Uiso   1.00
H1030  H     0.49667   0.33937   0.91853   0.00000  Uiso   1.00
H1031  H     0.00642   0.34170   0.74960   0.00000  Uiso   1.00
H1032  H     0.00642   0.15830   0.91707   0.00000  Uiso   1.00
H1033  H     0.24667   0.41063   0.74813   0.00000  Uiso   1.00
H1034  H     0.24667   0.08937   0.91854   0.00000  Uiso   1.00
H1035  H     0.25642   0.09170   0.74960   0.00000  Uiso   1.00
H1036  H     0.25642   0.40830   0.91707   0.00000  Uiso   1.00
N1037  N     0.00000   0.25000   0.95069   0.00000  Uiso   1.00
N1038  N     0.38827   0.30116   0.71881   0.00000  Uiso   1.00
N1039  N     0.41061   0.33065   0.95730   0.00000  Uiso   1.00
N1040  N     0.10541   0.18385   0.71373   0.00000  Uiso   1.00
N1041  N     0.16061   0.41935   0.70937   0.00000  Uiso   1.00
N1042  N     0.35544   0.06612   0.95292   0.00000  Uiso   1.00
N1043  N     0.35621   0.05093   0.71643   0.00000  Uiso   1.00
N1044  N     0.13827   0.44883   0.94786   0.00000  Uiso   1.00
N1045  N     0.35625   0.44912   0.95021   0.00000  Uiso   1.00
N1046  N     0.13828   0.05116   0.71881   0.00000  Uiso   1.00
N1047  N     0.16061   0.08066   0.95730   0.00000  Uiso   1.00
N1048  N     0.00000   0.25000   0.71598   0.00000  Uiso   1.00
N1049  N     0.35542   0.43386   0.71373   0.00000  Uiso   1.00
N1050  N     0.25000  -0.00000   0.95069   0.00000  Uiso   1.00
N1051  N     0.25000  -0.00000   0.71598   0.00000  Uiso   1.00
N1052  N     0.41059   0.16938   0.70937   0.00000  Uiso   1.00
N1053  N     0.10542   0.31614   0.95293   0.00000  Uiso   1.00
N1054  N     0.10625   0.30089   0.71645   0.00000  Uiso   1.00
N1055  N     0.38827   0.19883   0.94786   0.00000  Uiso   1.00
N1056  N     0.10626   0.19913   0.95021   0.00000  Uiso   1.00
O1057  O     0.04509   0.20491   0.87291   0.00000  Uiso   1.00
O1058  O     0.20492   0.04509   0.79375   0.00000  Uiso   1.00
O1059  O     0.20492   0.04509   0.87291   0.00000  Uiso   1.00
O1060  O     0.29509   0.45491   0.79375   0.00000  Uiso   1.00
O1061  O     0.20492   0.45491   0.79375   0.00000  Uiso   1.00
O1062  O     0.29509   0.04509   0.87291   0.00000  Uiso   1.00
O1063  O     0.29509   0.04509   0.79375   0.00000  Uiso   1.00
O1064  O     0.20492   0.45491   0.87291   0.00000  Uiso   1.00
O1065  O     0.02798   0.13578   0.69553   0.00000  Uiso   1.00
O1066  O     0.02799   0.36421   0.97113   0.00000  Uiso   1.00
O1067  O     0.46611   0.36076   0.70308   0.00000  Uiso   1.00
O1068  O     0.45492   0.29509   0.79375   0.00000  Uiso   1.00
O1069  O     0.46611   0.13925   0.96358   0.00000  Uiso   1.00
O1070  O     0.27799   0.38579   0.69553   0.00000  Uiso   1.00
O1071  O     0.27801   0.11420   0.97113   0.00000  Uiso   1.00
O1072  O     0.21613   0.11076   0.70308   0.00000  Uiso   1.00
O1073  O     0.21611   0.38924   0.96358   0.00000  Uiso   1.00
O1074  O     0.45492   0.29509   0.87291   0.00000  Uiso   1.00
O1075  O     0.04509   0.20491   0.79375   0.00000  Uiso   1.00
O1076  O     0.45492   0.20491   0.79375   0.00000  Uiso   1.00
O1077  O     0.04509   0.29509   0.87291   0.00000  Uiso   1.00
O1078  O     0.04509   0.29509   0.79375   0.00000  Uiso   1.00
O1079  O     0.45492   0.20491   0.87291   0.00000  Uiso   1.00
O1080  O     0.29509   0.45491   0.87291   0.00000  Uiso   1.00
C1081  C     0.56140   0.19316   0.83315   0.00000  Uiso   1.00
C1082  C     0.50174   0.28990   0.97618   0.00000  Uiso   1.00
C1083  C     0.99829   0.28985   0.69232   0.00000  Uiso   1.00
C1084  C     0.99829   0.21015   0.97435   0.00000  Uiso   1.00
C1085  C     0.75174   0.46010   0.69049   0.00000  Uiso   1.00
C1086  C     0.75174   0.03990   0.97618   0.00000  Uiso   1.00
C1087  C     0.74829   0.03985   0.69232   0.00000  Uiso   1.00
C1088  C     0.74829   0.46015   0.97435   0.00000  Uiso   1.00
C1089  C     0.89188   0.13801   0.79018   0.00000  Uiso   1.00
C1090  C     0.61171   0.35781   0.87506   0.00000  Uiso   1.00
C1091  C     0.61539   0.35070   0.79125   0.00000  Uiso   1.00
C1092  C     0.93909   0.30763   0.83371   0.00000  Uiso   1.00
C1093  C     0.88588   0.14675   0.87400   0.00000  Uiso   1.00
C1094  C     0.61539   0.14930   0.87542   0.00000  Uiso   1.00
C1095  C     0.88588   0.35324   0.79266   0.00000  Uiso   1.00
C1096  C     0.89189   0.36200   0.87649   0.00000  Uiso   1.00
C1097  C     0.61171   0.14219   0.79160   0.00000  Uiso   1.00
C1098  C     0.64189   0.38800   0.79018   0.00000  Uiso   1.00
C1099  C     0.86171   0.10781   0.87506   0.00000  Uiso   1.00
C1100  C     0.86537   0.10072   0.79124   0.00000  Uiso   1.00
C1101  C     0.63588   0.39676   0.87400   0.00000  Uiso   1.00
C1102  C     0.86539   0.39930   0.87542   0.00000  Uiso   1.00
C1103  C     0.93909   0.19237   0.83295   0.00000  Uiso   1.00
C1104  C     0.63588   0.10324   0.79266   0.00000  Uiso   1.00
C1105  C     0.64189   0.11200   0.87649   0.00000  Uiso   1.00
C1106  C     0.86171   0.39219   0.79160   0.00000  Uiso   1.00
C1107  C     0.59741   0.33775   0.83347   0.00000  Uiso   1.00
C1108  C     0.90426   0.15985   0.83206   0.00000  Uiso   1.00
C1109  C     0.90427   0.34015   0.83461   0.00000  Uiso   1.00
C1110  C     0.59741   0.16225   0.83319   0.00000  Uiso   1.00
C1111  C     0.84741   0.08775   0.83347   0.00000  Uiso   1.00
C1112  C     0.65427   0.40985   0.83206   0.00000  Uiso   1.00
C1113  C     0.65427   0.09015   0.83461   0.00000  Uiso   1.00
C1114  C     0.56140   0.30684   0.83351   0.00000  Uiso   1.00
C1115  C     0.84741   0.41225   0.83319   0.00000  Uiso   1.00
C1116  C     0.50831   0.16646   0.71409   0.00000  Uiso   1.00
C1117  C     0.50832   0.33354   0.95257   0.00000  Uiso   1.00
C1118  C     0.99082   0.33325   0.71778   0.00000  Uiso   1.00
C1119  C     0.99082   0.16675   0.94889   0.00000  Uiso   1.00
C1120  C     0.75832   0.41646   0.71409   0.00000  Uiso   1.00
C1121  C     0.75832   0.08354   0.95257   0.00000  Uiso   1.00
C1122  C     0.74082   0.08325   0.71778   0.00000  Uiso   1.00
C1123  C     0.74082   0.41675   0.94889   0.00000  Uiso   1.00
C1124  C     0.90268   0.15544   0.74531   0.00000  Uiso   1.00
C1125  C     0.81140   0.44316   0.83315   0.00000  Uiso   1.00
C1126  C     0.60774   0.33495   0.91848   0.00000  Uiso   1.00
C1127  C     0.61024   0.32325   0.74942   0.00000  Uiso   1.00
C1128  C     0.88746   0.17551   0.91525   0.00000  Uiso   1.00
C1129  C     0.61024   0.17676   0.91725   0.00000  Uiso   1.00
C1130  C     0.88746   0.32448   0.75142   0.00000  Uiso   1.00
C1131  C     0.90270   0.34458   0.92135   0.00000  Uiso   1.00
C1132  C     0.60773   0.16504   0.74818   0.00000  Uiso   1.00
C1133  C     0.65270   0.40542   0.74531   0.00000  Uiso   1.00
C1134  C     0.85775   0.08494   0.91847   0.00000  Uiso   1.00
C1135  C     0.86021   0.07328   0.74940   0.00000  Uiso   1.00
C1136  C     0.68909   0.05763   0.83371   0.00000  Uiso   1.00
C1137  C     0.63746   0.42552   0.91525   0.00000  Uiso   1.00
C1138  C     0.86024   0.42676   0.91725   0.00000  Uiso   1.00
C1139  C     0.63746   0.07448   0.75142   0.00000  Uiso   1.00
C1140  C     0.65270   0.09459   0.92135   0.00000  Uiso   1.00
C1141  C     0.85774   0.41505   0.74819   0.00000  Uiso   1.00
C1142  C     0.68909   0.44237   0.83295   0.00000  Uiso   1.00
C1143  C     0.81140   0.05684   0.83351   0.00000  Uiso   1.00
C1144  C     0.50173   0.21010   0.69049   0.00000  Uiso   1.00
Cu1145 Cu    0.50000   0.25000   0.88022   0.00000  Uiso   1.00
Cu1146 Cu    0.50000   0.25000   0.78645   0.00000  Uiso   1.00
Cu1147 Cu    0.75000  -0.00000   0.88022   0.00000  Uiso   1.00
Cu1148 Cu    0.75000  -0.00000   0.78645   0.00000  Uiso   1.00
H1149  H     0.99667   0.16063   0.74813   0.00000  Uiso   1.00
H1150  H     0.99667   0.33937   0.91853   0.00000  Uiso   1.00
H1151  H     0.50642   0.34170   0.74960   0.00000  Uiso   1.00
H1152  H     0.50642   0.15830   0.91707   0.00000  Uiso   1.00
H1153  H     0.74667   0.41063   0.74813   0.00000  Uiso   1.00
H1154  H     0.74667   0.08937   0.91854   0.00000  Uiso   1.00
H1155  H     0.75642   0.09170   0.74960   0.00000  Uiso   1.00
H1156  H     0.75642   0.40830   0.91707   0.00000  Uiso   1.00
N1157  N     0.50000   0.25000   0.95069   0.00000  Uiso   1.00
N1158  N     0.88827   0.30116   0.71881   0.00000  Uiso   1.00
N1159  N     0.91061   0.33065   0.95730   0.00000  Uiso   1.00
N1160  N     0.60541   0.18385   0.71373   0.00000  Uiso   1.00
N1161  N     0.66061   0.41935   0.70937   0.00000  Uiso   1.00
N1162  N     0.85544   0.06612   0.95292   0.00000  Uiso   1.00
N1163  N     0.85621   0.05093   0.71643   0.00000  Uiso   1.00
N1164  N     0.63827   0.44883   0.94786   0.00000  Uiso   1.00
N1165  N     0.85625   0.44912   0.95021   0.00000  Uiso   1.00
N1166  N     0.63828   0.05116   0.71881   0.00000  Uiso   1.00
N1167  N     0.66061   0.08066   0.95730   0.00000  Uiso   1.00
N1168  N     0.50000   0.25000   0.71598   0.00000  Uiso   1.00
N1169  N     0.85542   0.43386   0.71373   0.00000  Uiso   1.00
N1170  N     0.75000  -0.00000   0.95069   0.00000  Uiso   1.00
N1171  N     0.75000  -0.00000   0.71598   0.00000  Uiso   1.00
N1172  N     0.91059   0.16938   0.70937   0.00000  Uiso   1.00
N1173  N     0.60542   0.31614   0.95293   0.00000  Uiso   1.00
N1174  N     0.60625   0.30089   0.71645   0.00000  Uiso   1.00
N1175  N     0.88827   0.19883   0.94786   0.00000  Uiso   1.00
N1176  N     0.60626   0.19913   0.95021   0.00000  Uiso   1.00
O1177  O     0.54509   0.20491   0.87291   0.00000  Uiso   1.00
O1178  O     0.70492   0.04509   0.79375   0.00000  Uiso   1.00
O1179  O     0.70492   0.04509   0.87291   0.00000  Uiso   1.00
O1180  O     0.79509   0.45491   0.79375   0.00000  Uiso   1.00
O1181  O     0.70492   0.45491   0.79375   0.00000  Uiso   1.00
O1182  O     0.79509   0.04509   0.87291   0.00000  Uiso   1.00
O1183  O     0.79509   0.04509   0.79375   0.00000  Uiso   1.00
O1184  O     0.70492   0.45491   0.87291   0.00000  Uiso   1.00
O1185  O     0.52798   0.13578   0.69553   0.00000  Uiso   1.00
O1186  O     0.52799   0.36421   0.97113   0.00000  Uiso   1.00
O1187  O     0.96611   0.36076   0.70308   0.00000  Uiso   1.00
O1188  O     0.95492   0.29509   0.79375   0.00000  Uiso   1.00
O1189  O     0.96611   0.13925   0.96358   0.00000  Uiso   1.00
O1190  O     0.77799   0.38579   0.69553   0.00000  Uiso   1.00
O1191  O     0.77801   0.11420   0.97113   0.00000  Uiso   1.00
O1192  O     0.71613   0.11076   0.70308   0.00000  Uiso   1.00
O1193  O     0.71611   0.38924   0.96358   0.00000  Uiso   1.00
O1194  O     0.95492   0.29509   0.87291   0.00000  Uiso   1.00
O1195  O     0.54509   0.20491   0.79375   0.00000  Uiso   1.00
O1196  O     0.95492   0.20491   0.79375   0.00000  Uiso   1.00
O1197  O     0.54509   0.29509   0.87291   0.00000  Uiso   1.00
O1198  O     0.54509   0.29509   0.79375   0.00000  Uiso   1.00
O1199  O     0.95492   0.20491   0.87291   0.00000  Uiso   1.00
O1200  O     0.79509   0.45491   0.87291   0.00000  Uiso   1.00
C1201  C     0.06140   0.69316   0.83315   0.00000  Uiso   1.00
C1202  C     0.00174   0.78990   0.97618   0.00000  Uiso   1.00
C1203  C     0.49829   0.78985   0.69232   0.00000  Uiso   1.00
C1204  C     0.49829   0.71015   0.97435   0.00000  Uiso   1.00
C1205  C     0.25174   0.96010   0.69049   0.00000  Uiso   1.00
C1206  C     0.25174   0.53990   0.97618   0.00000  Uiso   1.00
C1207  C     0.24829   0.53985   0.69232   0.00000  Uiso   1.00
C1208  C     0.24829   0.96015   0.97435   0.00000  Uiso   1.00
C1209  C     0.39188   0.63801   0.79018   0.00000  Uiso   1.00
C1210  C     0.11171   0.85781   0.87506   0.00000  Uiso   1.00
C1211  C     0.11539   0.85070   0.79125   0.00000  Uiso   1.00
C1212  C     0.43909   0.80763   0.83371   0.00000  Uiso   1.00
C1213  C     0.38588   0.64675   0.87400   0.00000  Uiso   1.00
C1214  C     0.11539   0.64930   0.87542   0.00000  Uiso   1.00
C1215  C     0.38588   0.85324   0.79266   0.00000  Uiso   1.00
C1216  C     0.39189   0.86200   0.87649   0.00000  Uiso   1.00
C1217  C     0.11171   0.64219   0.79160   0.00000  Uiso   1.00
C1218  C     0.14189   0.88800   0.79018   0.00000  Uiso   1.00
C1219  C     0.36171   0.60781   0.87506   0.00000  Uiso   1.00
C1220  C     0.36537   0.60072   0.79124   0.00000  Uiso   1.00
C1221  C     0.13588   0.89676   0.87400   0.00000  Uiso   1.00
C1222  C     0.36539   0.89930   0.87542   0.00000  Uiso   1.00
C1223  C     0.43909   0.69237   0.83295   0.00000  Uiso   1.00
C1224  C     0.13588   0.60324   0.79266   0.00000  Uiso   1.00
C1225  C     0.14189   0.61200   0.87649   0.00000  Uiso   1.00
C1226  C     0.36171   0.89219   0.79160   0.00000  Uiso   1.00
C1227  C     0.09741   0.83775   0.83347   0.00000  Uiso   1.00
C1228  C     0.40426   0.65985   0.83206   0.00000  Uiso   1.00
C1229  C     0.40427   0.84015   0.83461   0.00000  Uiso   1.00
C1230  C     0.09741   0.66225   0.83319   0.00000  Uiso   1.00
C1231  C     0.34741   0.58775   0.83347   0.00000  Uiso   1.00
C1232  C     0.15427   0.90985   0.83206   0.00000  Uiso   1.00
C1233  C     0.15427   0.59015   0.83461   0.00000  Uiso   1.00
C1234  C     0.06140   0.80684   0.83351   0.00000  Uiso   1.00
C1235  C     0.34741   0.91225   0.83319   0.00000  Uiso   1.00
C1236  C     0.00831   0.66646   0.71409   0.00000  Uiso   1.00
C1237  C     0.00832   0.83354   0.95257   0.00000  Uiso   1.00
C1238  C     0.49082   0.83325   0.71778   0.00000  Uiso   1.00
C1239  C     0.49082   0.66675   0.94889   0.00000  Uiso   1.00
C1240  C     0.25832   0.91646   0.71409   0.00000  Uiso   1.00
C1241  C     0.25832   0.58354   0.95257   0.00000  Uiso   1.00
C1242  C     0.24082   0.58325   0.71778   0.00000  Uiso   1.00
C1243  C     0.24082   0.91675   0.94889   0.00000  Uiso   1.00
C1244  C     0.40268   0.65544   0.74531   0.00000  Uiso   1.00
C1245  C     0.31140   0.94316   0.83315   0.00000  Uiso   1.00
C1246  C     0.10774   0.83495   0.91848   0.00000  Uiso   1.00
C1247  C     0.11024   0.82325   0.74942   0.00000  Uiso   1.00
C1248  C     0.38746   0.67551   0.91525   0.00000  Uiso   1.00
C1249  C     0.11024   0.67676   0.91725   0.00000  Uiso   1.00
C1250  C     0.38746   0.82448   0.75142   0.00000  Uiso   1.00
C1251  C     0.40270   0.84458   0.92135   0.00000  Uiso   1.00
C1252  C     0.10773   0.66504   0.74818   0.00000  Uiso   1.00
C1253  C     0.15270   0.90542   0.74531   0.00000  Uiso   1.00
C1254  C     0.35775   0.58494   0.91847   0.00000  Uiso   1.00
C1255  C     0.36021   0.57328   0.74940   0.00000  Uiso   1.00
C1256  C     0.18909   0.55763   0.83371   0.00000  Uiso   1.00
C1257  C     0.13746   0.92552   0.91525   0.00000  Uiso   1.00
C1258  C     0.36024   0.92676   0.91725   0.00000  Uiso   1.00
C1259  C     0.13746   0.57448   0.75142   0.00000  Uiso   1.00
C1260  C     0.15270   0.59459   0.92135   0.00000  Uiso   1.00
C1261  C     0.35774   0.91505   0.74819   0.00000  Uiso   1.00
C1262  C     0.18909   0.94237   0.83295   0.00000  Uiso   1.00
C1263  C     0.31140   0.55684   0.83351   0.00000  Uiso   1.00
C1264  C     0.00173   0.71010   0.69049   0.00000  Uiso   1.00
Cu1265 Cu    0.00000   0.75000   0.88022   0.00000  Uiso   1.00
Cu1266 Cu    0.00000   0.75000   0.78645   0.00000  Uiso   1.00
Cu1267 Cu    0.25000   0.50000   0.88022   0.00000  Uiso   1.00
Cu1268 Cu    0.25000   0.50000   0.78645   0.00000  Uiso   1.00
H1269  H     0.49667   0.66063   0.74813   0.00000  Uiso   1.00
H1270  H     0.49667   0.83937   0.91853   0.00000  Uiso   1.00
H1271  H     0.00642   0.84170   0.74960   0.00000  Uiso   1.00
H1272  H     0.00642   0.65830   0.91707   0.00000  Uiso   1.00
H1273  H     0.24667   0.91063   0.74813   0.00000  Uiso   1.00
H1274  H     0.24667   0.58937   0.91854   0.00000  Uiso   1.00
H1275  H     0.25642   0.59170   0.74960   0.00000  Uiso   1.00
H1276  H     0.25642   0.90830   0.91707   0.00000  Uiso   1.00
N1277  N     0.00000   0.75000   0.95069   0.00000  Uiso   1.00
N1278  N     0.38827   0.80116   0.71881   0.00000  Uiso   1.00
N1279  N     0.41061   0.83065   0.95730   0.00000  Uiso   1.00
N1280  N     0.10541   0.68385   0.71373   0.00000  Uiso   1.00
N1281  N     0.16061   0.91935   0.70937   0.00000  Uiso   1.00
N1282  N     0.35544   0.56612   0.95292   0.00000  Uiso   1.00
N1283  N     0.35621   0.55093   0.71643   0.00000  Uiso   1.00
N1284  N     0.13827   0.94883   0.94786   0.00000  Uiso   1.00
N1285  N     0.35625   0.94912   0.95021   0.00000  Uiso   1.00
N1286  N     0.13828   0.55116   0.71881   0.00000  Uiso   1.00
N1287  N     0.16061   0.58066   0.95730   0.00000  Uiso   1.00
N1288  N     0.00000   0.75000   0.71598   0.00000  Uiso   1.00
N1289  N     0.35542   0.93386   0.71373   0.00000  Uiso   1.00
N1290  N     0.25000   0.50000   0.95069   0.00000  Uiso   1.00
N1291  N     0.25000   0.50000   0.71598   0.00000  Uiso   1.00
N1292  N     0.41059   0.66938   0.70937   0.00000  Uiso   1.00
N1293  N     0.10542   0.81614   0.95293   0.00000  Uiso   1.00
N1294  N     0.10625   0.80089   0.71645   0.00000  Uiso   1.00
N1295  N     0.38827   0.69883   0.94786   0.00000  Uiso   1.00
N1296  N     0.10626   0.69913   0.95021   0.00000  Uiso   1.00
O1297  O     0.04509   0.70491   0.87291   0.00000  Uiso   1.00
O1298  O     0.20492   0.54509   0.79375   0.00000  Uiso   1.00
O1299  O     0.20492   0.54509   0.87291   0.00000  Uiso   1.00
O1300  O     0.29509   0.95491   0.79375   0.00000  Uiso   1.00
O1301  O     0.20492   0.95491   0.79375   0.00000  Uiso   1.00
O1302  O     0.29509   0.54509   0.87291   0.00000  Uiso   1.00
O1303  O     0.29509   0.54509   0.79375   0.00000  Uiso   1.00
O1304  O     0.20492   0.95491   0.87291   0.00000  Uiso   1.00
O1305  O     0.02798   0.63578   0.69553   0.00000  Uiso   1.00
O1306  O     0.02799   0.86421   0.97113   0.00000  Uiso   1.00
O1307  O     0.46611   0.86076   0.70308   0.00000  Uiso   1.00
O1308  O     0.45492   0.79509   0.79375   0.00000  Uiso   1.00
O1309  O     0.46611   0.63925   0.96358   0.00000  Uiso   1.00
O1310  O     0.27799   0.88579   0.69553   0.00000  Uiso   1.00
O1311  O     0.27801   0.61420   0.97113   0.00000  Uiso   1.00
O1312  O     0.21613   0.61076   0.70308   0.00000  Uiso   1.00
O1313  O     0.21611   0.88924   0.96358   0.00000  Uiso   1.00
O1314  O     0.45492   0.79509   0.87291   0.00000  Uiso   1.00
O1315  O     0.04509   0.70491   0.79375   0.00000  Uiso   1.00
O1316  O     0.45492   0.70491   0.79375   0.00000  Uiso   1.00
O1317  O     0.04509   0.79509   0.87291   0.00000  Uiso   1.00
O1318  O     0.04509   0.79509   0.79375   0.00000  Uiso   1.00
O1319  O     0.45492   0.70491   0.87291   0.00000  Uiso   1.00
O1320  O     0.29509   0.95491   0.87291   0.00000  Uiso   1.00
C1321  C     0.56140   0.69316   0.83315   0.00000  Uiso   1.00
C1322  C     0.50174   0.78990   0.97618   0.00000  Uiso   1.00
C1323  C     0.99829   0.78985   0.69232   0.00000  Uiso   1.00
C1324  C     0.99829   0.71015   0.97435   0.00000  Uiso   1.00
C1325  C     0.75174   0.96010   0.69049   0.00000  Uiso   1.00
C1326  C     0.75174   0.53990   0.97618   0.00000  Uiso   1.00
C1327  C     0.74829   0.53985   0.69232   0.00000  Uiso   1.00
C1328  C     0.74829   0.96015   0.97435   0.00000  Uiso   1.00
C1329  C     0.89188   0.63801   0.79018   0.00000  Uiso   1.00
C1330  C     0.61171   0.85781   0.87506   0.00000  Uiso   1.00
C1331  C     0.61539   0.85070   0.79125   0.00000  Uiso   1.00
C1332  C     0.93909   0.80763   0.83371   0.00000  Uiso   1.00
C1333  C     0.88588   0.64675   0.87400   0.00000  Uiso   1.00
C1334  C     0.61539   0.64930   0.87542   0.00000  Uiso   1.00
C1335  C     0.88588   0.85324   0.79266   0.00000  Uiso   1.00
C1336  C     0.89189   0.86200   0.87649   0.00000  Uiso   1.00
C1337  C     0.61171   0.64219   0.79160   0.00000  Uiso   1.00
C1338  C     0.64189   0.88800   0.79018   0.00000  Uiso   1.00
C1339  C     0.86171   0.60781   0.87506   0.00000  Uiso   1.00
C1340  C     0.86537   0.60072   0.79124   0.00000  Uiso   1.00
C1341  C     0.63588   0.89676   0.87400   0.00000  Uiso   1.00
C1342  C     0.86539   0.89930   0.87542   0.00000  Uiso   1.00
C1343  C     0.93909   0.69237   0.83295   0.00000  Uiso   1.00
C1344  C     0.63588   0.60324   0.79266   0.00000  Uiso   1.00
C1345  C     0.64189   0.61200   0.87649   0.00000  Uiso   1.00
C1346  C     0.86171   0.89219   0.79160   0.00000  Uiso   1.00
C1347  C     0.59741   0.83775   0.83347   0.00000  Uiso   1.00
C1348  C     0.90426   0.65985   0.83206   0.00000  Uiso   1.00
C1349  C     0.90427   0.84015   0.83461   0.00000  Uiso   1.00
C1350  C     0.59741   0.66225   0.83319   0.00000  Uiso   1.00
C1351  C     0.84741   0.58775   0.83347   0.00000  Uiso   1.00
C1352  C     0.65427   0.90985   0.83206   0.00000  Uiso   1.00
C1353  C     0.65427   0.59015   0.83461   0.00000  Uiso   1.00
C1354  C     0.56140   0.80684   0.83351   0.00000  Uiso   1.00
C1355  C     0.84741   0.91225   0.83319   0.00000  Uiso   1.00
C1356  C     0.50831   0.66646   0.71409   0.00000  Uiso   1.00
C1357  C     0.50832   0.83354   0.95257   0.00000  Uiso   1.00
C1358  C     0.99082   0.83325   0.71778   0.00000  Uiso   1.00
C1359  C     0.99082   0.66675   0.94889   0.00000  Uiso   1.00
C1360  C     0.75832   0.91646   0.71409   0.00000  Uiso   1.00
C1361  C     0.75832   0.58354   0.95257   0.00000  Uiso   1.00
C1362  C     0.74082   0.58325   0.71778   0.00000  Uiso   1.00
C1363  C     0.74082   0.91675   0.94889   0.00000  Uiso   1.00
C1364  C     0.90268   0.65544   0.74531   0.00000  Uiso   1.00
C1365  C     0.81140   0.94316   0.83315   0.00000  Uiso   1.00
C1366  C     0.60774   0.83495   0.91848   0.00000  Uiso   1.00
C1367  C     0.61024   0.82325   0.74942   0.00000  Uiso   1.00
C1368  C     0.88746   0.67551   0.91525   0.00000  Uiso   1.00
C1369  C     0.61024   0.67676   0.91725   0.00000  Uiso   1.00
C1370  C     0.88746   0.82448   0.75142   0.00000  Uiso   1.00
C1371  C     0.90270   0.84458   0.92135   0.00000  Uiso   1.00
C1372  C     0.60773   0.66504   0.74818   0.00000  Uiso   1.00
C1373  C     0.65270   0.90542   0.74531   0.00000  Uiso   1.00
C1374  C     0.85775   0.58494   0.91847   0.00000  Uiso   1.00
C1375  C     0.86021   0.57328   0.74940   0.00000  Uiso   1.00
C1376  C     0.68909   0.55763   0.83371   0.00000  Uiso   1.00
C1377  C     0.63746   0.92552   0.91525   0.00000  Uiso   1.00
C1378  C     0.86024   0.92676   0.91725   0.00000  Uiso   1.00
C1379  C     0.63746   0.57448   0.75142   0.00000  Uiso   1.00
C1380  C     0.65270   0.59459   0.92135   0.00000  Uiso   1.00
C1381  C     0.85774   0.91505   0.74819   0.00000  Uiso   1.00
C1382  C     0.68909   0.94237   0.83295   0.00000  Uiso   1.00
C1383  C     0.81140   0.55684   0.83351   0.00000  Uiso   1.00
C1384  C     0.50173   0.71010   0.69049   0.00000  Uiso   1.00
Cu1385 Cu    0.50000   0.75000   0.88022   0.00000  Uiso   1.00
Cu1386 Cu    0.50000   0.75000   0.78645   0.00000  Uiso   1.00
Cu1387 Cu    0.75000   0.50000   0.88022   0.00000  Uiso   1.00
Cu1388 Cu    0.75000   0.50000   0.78645   0.00000  Uiso   1.00
H1389  H     0.99667   0.66063   0.74813   0.00000  Uiso   1.00
H1390  H     0.99667   0.83937   0.91853   0.00000  Uiso   1.00
H1391  H     0.50642   0.84170   0.74960   0.00000  Uiso   1.00
H1392  H     0.50642   0.65830   0.91707   0.00000  Uiso   1.00
H1393  H     0.74667   0.91063   0.74813   0.00000  Uiso   1.00
H1394  H     0.74667   0.58937   0.91854   0.00000  Uiso   1.00
H1395  H     0.75642   0.59170   0.74960   0.00000  Uiso   1.00
H1396  H     0.75642   0.90830   0.91707   0.00000  Uiso   1.00
N1397  N     0.50000   0.75000   0.95069   0.00000  Uiso   1.00
N1398  N     0.88827   0.80116   0.71881   0.00000  Uiso   1.00
N1399  N     0.91061   0.83065   0.95730   0.00000  Uiso   1.00
N1400  N     0.60541   0.68385   0.71373   0.00000  Uiso   1.00
N1401  N     0.66061   0.91935   0.70937   0.00000  Uiso   1.00
N1402  N     0.85544   0.56612   0.95292   0.00000  Uiso   1.00
N1403  N     0.85621   0.55093   0.71643   0.00000  Uiso   1.00
N1404  N     0.63827   0.94883   0.94786   0.00000  Uiso   1.00
N1405  N     0.85625   0.94912   0.95021   0.00000  Uiso   1.00
N1406  N     0.63828   0.55116   0.71881   0.00000  Uiso   1.00
N1407  N     0.66061   0.58066   0.95730   0.00000  Uiso   1.00
N1408  N     0.50000   0.75000   0.71598   0.00000  Uiso   1.00
N1409  N     0.85542   0.93386   0.71373   0.00000  Uiso   1.00
N1410  N     0.75000   0.50000   0.95069   0.00000  Uiso   1.00
N1411  N     0.75000   0.50000   0.71598   0.00000  Uiso   1.00
N1412  N     0.91059   0.66938   0.70937   0.00000  Uiso   1.00
N1413  N     0.60542   0.81614   0.95293   0.00000  Uiso   1.00
N1414  N     0.60625   0.80089   0.71645   0.00000  Uiso   1.00
N1415  N     0.88827   0.69883   0.94786   0.00000  Uiso   1.00
N1416  N     0.60626   0.69913   0.95021   0.00000  Uiso   1.00
O1417  O     0.54509   0.70491   0.87291   0.00000  Uiso   1.00
O1418  O     0.70492   0.54509   0.79375   0.00000  Uiso   1.00
O1419  O     0.70492   0.54509   0.87291   0.00000  Uiso   1.00
O1420  O     0.79509   0.95491   0.79375   0.00000  Uiso   1.00
O1421  O     0.70492   0.95491   0.79375   0.00000  Uiso   1.00
O1422  O     0.79509   0.54509   0.87291   0.00000  Uiso   1.00
O1423  O     0.79509   0.54509   0.79375   0.00000  Uiso   1.00
O1424  O     0.70492   0.95491   0.87291   0.00000  Uiso   1.00
O1425  O     0.52798   0.63578   0.69553   0.00000  Uiso   1.00
O1426  O     0.52799   0.86421   0.97113   0.00000  Uiso   1.00
O1427  O     0.96611   0.86076   0.70308   0.00000  Uiso   1.00
O1428  O     0.95492   0.79509   0.79375   0.00000  Uiso   1.00
O1429  O     0.96611   0.63925   0.96358   0.00000  Uiso   1.00
O1430  O     0.77799   0.88579   0.69553   0.00000  Uiso   1.00
O1431  O     0.77801   0.61420   0.97113   0.00000  Uiso   1.00
O1432  O     0.71613   0.61076   0.70308   0.00000  Uiso   1.00
O1433  O     0.71611   0.88924   0.96358   0.00000  Uiso   1.00
O1434  O     0.95492   0.79509   0.87291   0.00000  Uiso   1.00
O1435  O     0.54509   0.70491   0.79375   0.00000  Uiso   1.00
O1436  O     0.95492   0.70491   0.79375   0.00000  Uiso   1.00
O1437  O     0.54509   0.79509   0.87291   0.00000  Uiso   1.00
O1438  O     0.54509   0.79509   0.79375   0.00000  Uiso   1.00
O1439  O     0.95492   0.70491   0.87291   0.00000  Uiso   1.00
O1440  O     0.79509   0.95491   0.87291   0.00000  Uiso   1.00
loop_
_geom_bond_atom_site_label_1
_geom_bond_atom_site_label_2
_geom_bond_distance
_geom_bond_site_symmetry_2
_ccdc_geom_bond_type
C1     O97     1.305   .     A
C1     C30     1.476   .     S
C1     O115    1.309   .     A
C2     C37     1.490   .     S
C2     C603    1.436   1_455 S
C2     N77     1.380   .     S
C3     C38     1.487   .     S
C3     C1082   1.436   1_554 S
C3     N208    1.379   .     S
C4     C39     1.487   .     S
C4     N197    1.379   .     A
C4     C664    1.436   .     S
C5     C40     1.490   .     S
C5     C968    1.436   1_554 S
C5     N331    1.380   .     S
C6     C41     1.490   .     S
C6     N90     1.380   .     A
C6     C487    1.436   .     S
C7     C42     1.487   .     S
C7     N91     1.379   .     A
C7     C966    1.436   1_554 S
C8     C43     1.487   .     S
C8     C485    1.436   .     S
C8     N330    1.379   .     S
C9     C44     1.450   .     S
C9     C20     1.396   .     A
C9     C28     1.418   .     A
C10    C27     1.408   .     A
C10    C46     1.446   .     S
C10    C21     1.392   .     A
C11    C18     1.396   .     A
C11    C47     1.453   .     S
C11    C27     1.413   .     A
C12    C29     1.477   .     S
C12    O114    1.305   .     A
C12    O108    1.310   .     A
C13    C28     1.412   .     A
C13    C19     1.392   .     A
C13    C48     1.452   .     S
C14    C49     1.453   .     S
C14    C30     1.413   .     A
C14    C25     1.396   .     A
C15    C50     1.452   .     S
C15    C29     1.412   .     A
C15    C26     1.392   .     A
C16    C29     1.418   .     A
C16    C51     1.450   .     S
C16    C22     1.396   .     A
C17    C30     1.408   .     A
C17    C52     1.446   .     S
C17    C24     1.392   .     A
C18    C53     1.450   .     S
C18    C32     1.418   .     A
C19    C31     1.408   .     A
C19    C54     1.446   .     S
C20    C55     1.453   .     S
C20    C31     1.413   .     A
C21    C32     1.412   .     A
C21    C57     1.452   .     S
C22    C35     1.413   .     A
C22    C58     1.453   .     S
C23    O119    1.310   .     A
C23    O116    1.305   .     A
C23    C28     1.477   .     S
C24    C33     1.412   .     A
C24    C59     1.452   .     S
C25    C60     1.450   .     S
C25    C33     1.418   .     A
C26    C61     1.446   .     S
C26    C35     1.408   .     A
C27    C34     1.476   .     S
C31    C63     1.476   .     S
C32    C62     1.477   .     S
C33    C56     1.477   .     S
C34    O118    1.305   .     A
C34    O117    1.310   .     A
C35    C45     1.476   .     S
C36    O105    1.221   .     D
C36    C64     1.490   .     S
C36    H189    1.072   1_455 S
C37    O106    1.221   .     D
C37    H190    1.072   1_455 S
C38    O107    1.221   .     D
C38    H191    1.073   .     S
C39    O109    1.221   .     D
C39    H192    1.073   .     S
C40    H73     1.072   .     S
C40    O110    1.221   .     D
C41    H74     1.072   .     S
C41    O111    1.221   .     D
C42    H75     1.073   .     S
C42    O112    1.221   .     D
C43    H76     1.073   .     S
C43    O113    1.221   .     D
C44    N92     1.156   .     T
C45    O120    1.305   .     A
C45    O100    1.310   .     A
C46    N93     1.156   .     T
C47    N94     1.156   .     T
C48    N95     1.157   .     T
C49    N96     1.156   .     T
C50    N78     1.157   .     T
C51    N79     1.156   .     T
C52    N80     1.156   .     T
C53    N81     1.156   .     T
C54    N82     1.156   .     T
C55    N83     1.156   .     T
C56    O98     1.310   .     A
C56    O99     1.305   .     A
C57    N84     1.157   .     T
C58    N85     1.156   .     T
C59    N86     1.157   .     T
C60    N87     1.156   .     T
C61    N89     1.156   .     T
C62    O104    1.310   .     A
C62    O101    1.305   .     A
C63    O102    1.310   .     A
C63    O103    1.305   .     A
C64    N88     1.380   .     A
C64    C1084   1.436   1_454 S
Cu65   O97     1.979   .     S
Cu65   O117    1.985   .     S
Cu65   Cu66    2.714   .     S
Cu65   N77     2.040   .     S
Cu65   O234    1.985   1_455 S
Cu65   O239    1.979   1_455 S
Cu66   O236    1.985   1_455 S
Cu66   O228    1.979   1_455 S
Cu66   N88     2.040   .     S
Cu66   O115    1.985   .     S
Cu66   O118    1.979   .     S
Cu67   O99     1.985   .     S
Cu67   Cu68    2.714   .     S
Cu67   N90     2.040   .     S
Cu67   O102    1.985   .     S
Cu67   O344    1.979   1_545 S
Cu67   O360    1.979   1_545 S
Cu68   N91     2.040   .     S
Cu68   O103    1.979   .     S
Cu68   O98     1.979   .     S
Cu68   O340    1.985   1_545 S
Cu68   O341    1.985   1_545 S
H69    C156    1.072   .     S
H70    C157    1.072   .     S
H71    C158    1.073   1_455 S
H72    C159    1.073   1_455 S
N77    C124    1.379   1_455 A
N88    C123    1.379   1_455 S
N90    C248    1.379   1_545 S
N91    C245    1.380   1_545 S
O100   Cu308   1.985   .     S
O101   Cu308   1.985   .     S
O104   Cu307   1.979   .     S
O108   Cu186   1.979   .     S
O114   Cu185   1.985   .     S
O116   Cu186   1.985   .     S
O119   Cu185   1.979   .     S
O120   Cu307   1.979   .     S
C121   O217    1.305   .     A
C121   C150    1.476   .     S
C121   O235    1.309   .     A
C122   C157    1.490   .     S
C122   C483    1.436   .     S
C122   N197    1.380   .     S
C123   C158    1.487   .     S
C123   C962    1.436   1_654 S
C123   N88     1.379   1_655 S
C124   C159    1.487   .     S
C124   N77     1.379   1_655 A
C124   C544    1.436   1_655 S
C125   C160    1.490   .     S
C125   C1088   1.436   1_554 S
C125   N451    1.380   .     S
C126   C161    1.490   .     S
C126   N210    1.380   .     A
C126   C607    1.436   .     S
C127   C162    1.487   .     S
C127   N211    1.379   .     A
C127   C1086   1.436   1_554 S
C128   C163    1.487   .     S
C128   C605    1.436   .     S
C128   N450    1.379   .     S
C129   C164    1.450   .     S
C129   C140    1.396   .     A
C129   C148    1.418   .     A
C130   C147    1.408   .     A
C130   C166    1.446   .     S
C130   C141    1.392   .     A
C131   C138    1.396   .     A
C131   C167    1.453   .     S
C131   C147    1.413   .     A
C132   C149    1.477   .     S
C132   O234    1.305   .     A
C132   O228    1.310   .     A
C133   C148    1.412   .     A
C133   C139    1.392   .     A
C133   C168    1.452   .     S
C134   C169    1.453   .     S
C134   C150    1.413   .     A
C134   C145    1.396   .     A
C135   C170    1.452   .     S
C135   C149    1.412   .     A
C135   C146    1.392   .     A
C136   C149    1.418   .     A
C136   C171    1.450   .     S
C136   C142    1.396   .     A
C137   C150    1.408   .     A
C137   C172    1.446   .     S
C137   C144    1.392   .     A
C138   C173    1.450   .     S
C138   C152    1.418   .     A
C139   C151    1.408   .     A
C139   C174    1.446   .     S
C140   C175    1.453   .     S
C140   C151    1.413   .     A
C141   C152    1.412   .     A
C141   C177    1.452   .     S
C142   C155    1.413   .     A
C142   C178    1.453   .     S
C143   O239    1.310   .     A
C143   O236    1.305   .     A
C143   C148    1.477   .     S
C144   C153    1.412   .     A
C144   C179    1.452   .     S
C145   C180    1.450   .     S
C145   C153    1.418   .     A
C146   C181    1.446   .     S
C146   C155    1.408   .     A
C147   C154    1.476   .     S
C151   C183    1.476   .     S
C152   C182    1.477   .     S
C153   C176    1.477   .     S
C154   O238    1.305   .     A
C154   O237    1.310   .     A
C155   C165    1.476   .     S
C156   O225    1.221   .     D
C156   C184    1.490   .     S
C157   O226    1.221   .     D
C158   O227    1.221   .     D
C158   H71     1.073   1_655 S
C159   O229    1.221   .     D
C159   H72     1.073   1_655 S
C160   H193    1.072   .     S
C160   O230    1.221   .     D
C161   H194    1.072   .     S
C161   O231    1.221   .     D
C162   H195    1.073   .     S
C162   O232    1.221   .     D
C163   H196    1.073   .     S
C163   O233    1.221   .     D
C164   N212    1.156   .     T
C165   O240    1.305   .     A
C165   O220    1.310   .     A
C166   N213    1.156   .     T
C167   N214    1.156   .     T
C168   N215    1.157   .     T
C169   N216    1.156   .     T
C170   N198    1.157   .     T
C171   N199    1.156   .     T
C172   N200    1.156   .     T
C173   N201    1.156   .     T
C174   N202    1.156   .     T
C175   N203    1.156   .     T
C176   O218    1.310   .     A
C176   O219    1.305   .     A
C177   N204    1.157   .     T
C178   N205    1.156   .     T
C179   N206    1.157   .     T
C180   N207    1.156   .     T
C181   N209    1.156   .     T
C182   O224    1.310   .     A
C182   O221    1.305   .     A
C183   O222    1.310   .     A
C183   O223    1.305   .     A
C184   N208    1.380   .     A
C184   C964    1.436   1_554 S
Cu185  O217    1.979   .     S
Cu185  O237    1.985   .     S
Cu185  Cu186   2.714   .     S
Cu185  N197    2.040   .     S
Cu186  N208    2.040   .     S
Cu186  O235    1.985   .     S
Cu186  O238    1.979   .     S
Cu187  O219    1.985   .     S
Cu187  Cu188   2.714   .     S
Cu187  N210    2.040   .     S
Cu187  O222    1.985   .     S
Cu187  O464    1.979   1_545 S
Cu187  O480    1.979   1_545 S
Cu188  N211    2.040   .     S
Cu188  O223    1.979   .     S
Cu188  O218    1.979   .     S
Cu188  O460    1.985   1_545 S
Cu188  O461    1.985   1_545 S
H189   C36     1.072   1_655 S
H190   C37     1.072   1_655 S
N210   C368    1.379   1_545 S
N211   C365    1.380   1_545 S
O220   Cu428   1.985   .     S
O221   Cu428   1.985   .     S
O224   Cu427   1.979   .     S
O228   Cu66    1.979   1_655 S
O234   Cu65    1.985   1_655 S
O236   Cu66    1.985   1_655 S
O239   Cu65    1.979   1_655 S
O240   Cu427   1.979   .     S
C241   O337    1.305   .     A
C241   C270    1.476   .     S
C241   O355    1.309   .     A
C242   C277    1.490   .     S
C242   C843    1.436   1_455 S
C242   N317    1.380   .     S
C243   C278    1.487   .     S
C243   C1322   1.436   1_554 S
C243   N448    1.379   .     S
C244   C279    1.487   .     S
C244   N437    1.379   .     A
C244   C904    1.436   .     S
C245   C280    1.490   .     S
C245   C1208   1.436   1_554 S
C245   N91     1.380   1_565 S
C246   C281    1.490   .     S
C246   N330    1.380   .     A
C246   C727    1.436   .     S
C247   C282    1.487   .     S
C247   N331    1.379   .     A
C247   C1206   1.436   1_554 S
C248   C283    1.487   .     S
C248   C725    1.436   .     S
C248   N90     1.379   1_565 S
C249   C284    1.450   .     S
C249   C260    1.396   .     A
C249   C268    1.418   .     A
C250   C267    1.408   .     A
C250   C286    1.446   .     S
C250   C261    1.392   .     A
C251   C258    1.396   .     A
C251   C287    1.453   .     S
C251   C267    1.413   .     A
C252   C269    1.477   .     S
C252   O354    1.305   .     A
C252   O348    1.310   .     A
C253   C268    1.412   .     A
C253   C259    1.392   .     A
C253   C288    1.452   .     S
C254   C289    1.453   .     S
C254   C270    1.413   .     A
C254   C265    1.396   .     A
C255   C290    1.452   .     S
C255   C269    1.412   .     A
C255   C266    1.392   .     A
C256   C269    1.418   .     A
C256   C291    1.450   .     S
C256   C262    1.396   .     A
C257   C270    1.408   .     A
C257   C292    1.446   .     S
C257   C264    1.392   .     A
C258   C293    1.450   .     S
C258   C272    1.418   .     A
C259   C271    1.408   .     A
C259   C294    1.446   .     S
C260   C295    1.453   .     S
C260   C271    1.413   .     A
C261   C272    1.412   .     A
C261   C297    1.452   .     S
C262   C275    1.413   .     A
C262   C298    1.453   .     S
C263   O359    1.310   .     A
C263   O356    1.305   .     A
C263   C268    1.477   .     S
C264   C273    1.412   .     A
C264   C299    1.452   .     S
C265   C300    1.450   .     S
C265   C273    1.418   .     A
C266   C301    1.446   .     S
C266   C275    1.408   .     A
C267   C274    1.476   .     S
C271   C303    1.476   .     S
C272   C302    1.477   .     S
C273   C296    1.477   .     S
C274   O358    1.305   .     A
C274   O357    1.310   .     A
C275   C285    1.476   .     S
C276   O345    1.221   .     D
C276   C304    1.490   .     S
C276   H429    1.072   1_455 S
C277   O346    1.221   .     D
C277   H430    1.072   1_455 S
C278   O347    1.221   .     D
C278   H431    1.073   .     S
C279   O349    1.221   .     D
C279   H432    1.073   .     S
C280   H313    1.072   .     S
C280   O350    1.221   .     D
C281   H314    1.072   .     S
C281   O351    1.221   .     D
C282   H315    1.073   .     S
C282   O352    1.221   .     D
C283   H316    1.073   .     S
C283   O353    1.221   .     D
C284   N332    1.156   .     T
C285   O360    1.305   .     A
C285   O340    1.310   .     A
C286   N333    1.156   .     T
C287   N334    1.156   .     T
C288   N335    1.157   .     T
C289   N336    1.156   .     T
C290   N318    1.157   .     T
C291   N319    1.156   .     T
C292   N320    1.156   .     T
C293   N321    1.156   .     T
C294   N322    1.156   .     T
C295   N323    1.156   .     T
C296   O338    1.310   .     A
C296   O339    1.305   .     A
C297   N324    1.157   .     T
C298   N325    1.156   .     T
C299   N326    1.157   .     T
C300   N327    1.156   .     T
C301   N329    1.156   .     T
C302   O344    1.310   .     A
C302   O341    1.305   .     A
C303   O342    1.310   .     A
C303   O343    1.305   .     A
C304   N328    1.380   .     A
C304   C1324   1.436   1_454 S
Cu305  O337    1.979   .     S
Cu305  O357    1.985   .     S
Cu305  Cu306   2.714   .     S
Cu305  N317    2.040   .     S
Cu305  O474    1.985   1_455 S
Cu305  O479    1.979   1_455 S
Cu306  O476    1.985   1_455 S
Cu306  O468    1.979   1_455 S
Cu306  N328    2.040   .     S
Cu306  O355    1.985   .     S
Cu306  O358    1.979   .     S
Cu307  O339    1.985   .     S
Cu307  Cu308   2.714   .     S
Cu307  N330    2.040   .     S
Cu307  O342    1.985   .     S
Cu308  N331    2.040   .     S
Cu308  O343    1.979   .     S
Cu308  O338    1.979   .     S
H309   C396    1.072   .     S
H310   C397    1.072   .     S
H311   C398    1.073   1_455 S
H312   C399    1.073   1_455 S
N317   C364    1.379   1_455 A
N328   C363    1.379   1_455 S
O340   Cu68    1.985   1_565 S
O341   Cu68    1.985   1_565 S
O344   Cu67    1.979   1_565 S
O348   Cu426   1.979   .     S
O354   Cu425   1.985   .     S
O356   Cu426   1.985   .     S
O359   Cu425   1.979   .     S
O360   Cu67    1.979   1_565 S
C361   O457    1.305   .     A
C361   C390    1.476   .     S
C361   O475    1.309   .     A
C362   C397    1.490   .     S
C362   C723    1.436   .     S
C362   N437    1.380   .     S
C363   C398    1.487   .     S
C363   C1202   1.436   1_654 S
C363   N328    1.379   1_655 S
C364   C399    1.487   .     S
C364   N317    1.379   1_655 A
C364   C784    1.436   1_655 S
C365   C400    1.490   .     S
C365   C1328   1.436   1_554 S
C365   N211    1.380   1_565 S
C366   C401    1.490   .     S
C366   N450    1.380   .     A
C366   C847    1.436   .     S
C367   C402    1.487   .     S
C367   N451    1.379   .     A
C367   C1326   1.436   1_554 S
C368   C403    1.487   .     S
C368   C845    1.436   .     S
C368   N210    1.379   1_565 S
C369   C404    1.450   .     S
C369   C380    1.396   .     A
C369   C388    1.418   .     A
C370   C387    1.408   .     A
C370   C406    1.446   .     S
C370   C381    1.392   .     A
C371   C378    1.396   .     A
C371   C407    1.453   .     S
C371   C387    1.413   .     A
C372   C389    1.477   .     S
C372   O474    1.305   .     A
C372   O468    1.310   .     A
C373   C388    1.412   .     A
C373   C379    1.392   .     A
C373   C408    1.452   .     S
C374   C409    1.453   .     S
C374   C390    1.413   .     A
C374   C385    1.396   .     A
C375   C410    1.452   .     S
C375   C389    1.412   .     A
C375   C386    1.392   .     A
C376   C389    1.418   .     A
C376   C411    1.450   .     S
C376   C382    1.396   .     A
C377   C390    1.408   .     A
C377   C412    1.446   .     S
C377   C384    1.392   .     A
C378   C413    1.450   .     S
C378   C392    1.418   .     A
C379   C391    1.408   .     A
C379   C414    1.446   .     S
C380   C415    1.453   .     S
C380   C391    1.413   .     A
C381   C392    1.412   .     A
C381   C417    1.452   .     S
C382   C395    1.413   .     A
C382   C418    1.453   .     S
C383   O479    1.310   .     A
C383   O476    1.305   .     A
C383   C388    1.477   .     S
C384   C393    1.412   .     A
C384   C419    1.452   .     S
C385   C420    1.450   .     S
C385   C393    1.418   .     A
C386   C421    1.446   .     S
C386   C395    1.408   .     A
C387   C394    1.476   .     S
C391   C423    1.476   .     S
C392   C422    1.477   .     S
C393   C416    1.477   .     S
C394   O478    1.305   .     A
C394   O477    1.310   .     A
C395   C405    1.476   .     S
C396   O465    1.221   .     D
C396   C424    1.490   .     S
C397   O466    1.221   .     D
C398   O467    1.221   .     D
C398   H311    1.073   1_655 S
C399   O469    1.221   .     D
C399   H312    1.073   1_655 S
C400   H433    1.072   .     S
C400   O470    1.221   .     D
C401   H434    1.072   .     S
C401   O471    1.221   .     D
C402   H435    1.073   .     S
C402   O472    1.221   .     D
C403   H436    1.073   .     S
C403   O473    1.221   .     D
C404   N452    1.156   .     T
C405   O480    1.305   .     A
C405   O460    1.310   .     A
C406   N453    1.156   .     T
C407   N454    1.156   .     T
C408   N455    1.157   .     T
C409   N456    1.156   .     T
C410   N438    1.157   .     T
C411   N439    1.156   .     T
C412   N440    1.156   .     T
C413   N441    1.156   .     T
C414   N442    1.156   .     T
C415   N443    1.156   .     T
C416   O458    1.310   .     A
C416   O459    1.305   .     A
C417   N444    1.157   .     T
C418   N445    1.156   .     T
C419   N446    1.157   .     T
C420   N447    1.156   .     T
C421   N449    1.156   .     T
C422   O464    1.310   .     A
C422   O461    1.305   .     A
C423   O462    1.310   .     A
C423   O463    1.305   .     A
C424   N448    1.380   .     A
C424   C1204   1.436   1_554 S
Cu425  O457    1.979   .     S
Cu425  O477    1.985   .     S
Cu425  Cu426   2.714   .     S
Cu425  N437    2.040   .     S
Cu426  N448    2.040   .     S
Cu426  O475    1.985   .     S
Cu426  O478    1.979   .     S
Cu427  O459    1.985   .     S
Cu427  Cu428   2.714   .     S
Cu427  N450    2.040   .     S
Cu427  O462    1.985   .     S
Cu428  N451    2.040   .     S
Cu428  O463    1.979   .     S
Cu428  O458    1.979   .     S
H429   C276    1.072   1_655 S
H430   C277    1.072   1_655 S
O460   Cu188   1.985   1_565 S
O461   Cu188   1.985   1_565 S
O464   Cu187   1.979   1_565 S
O468   Cu306   1.979   1_655 S
O474   Cu305   1.985   1_655 S
O476   Cu306   1.985   1_655 S
O479   Cu305   1.979   1_655 S
O480   Cu187   1.979   1_565 S
C481   O577    1.305   .     A
C481   C510    1.476   .     S
C481   O595    1.309   .     A
C482   C517    1.490   .     S
C482   C1083   1.436   1_455 S
C482   N557    1.380   .     S
C483   C518    1.487   .     S
C483   N688    1.379   .     S
C484   C519    1.487   .     S
C484   N677    1.379   .     A
C484   C1144   1.436   .     S
C485   C520    1.490   .     S
C485   N811    1.380   .     S
C486   C521    1.490   .     S
C486   N570    1.380   .     A
C486   C967    1.436   .     S
C487   C522    1.487   .     S
C487   N571    1.379   .     A
C488   C523    1.487   .     S
C488   C965    1.436   .     S
C488   N810    1.379   .     S
C489   C524    1.450   .     S
C489   C500    1.396   .     A
C489   C508    1.418   .     A
C490   C507    1.408   .     A
C490   C526    1.446   .     S
C490   C501    1.392   .     A
C491   C498    1.396   .     A
C491   C527    1.453   .     S
C491   C507    1.413   .     A
C492   C509    1.477   .     S
C492   O594    1.305   .     A
C492   O588    1.310   .     A
C493   C508    1.412   .     A
C493   C499    1.392   .     A
C493   C528    1.452   .     S
C494   C529    1.453   .     S
C494   C510    1.413   .     A
C494   C505    1.396   .     A
C495   C530    1.452   .     S
C495   C509    1.412   .     A
C495   C506    1.392   .     A
C496   C509    1.418   .     A
C496   C531    1.450   .     S
C496   C502    1.396   .     A
C497   C510    1.408   .     A
C497   C532    1.446   .     S
C497   C504    1.392   .     A
C498   C533    1.450   .     S
C498   C512    1.418   .     A
C499   C511    1.408   .     A
C499   C534    1.446   .     S
C500   C535    1.453   .     S
C500   C511    1.413   .     A
C501   C512    1.412   .     A
C501   C537    1.452   .     S
C502   C515    1.413   .     A
C502   C538    1.453   .     S
C503   O599    1.310   .     A
C503   O596    1.305   .     A
C503   C508    1.477   .     S
C504   C513    1.412   .     A
C504   C539    1.452   .     S
C505   C540    1.450   .     S
C505   C513    1.418   .     A
C506   C541    1.446   .     S
C506   C515    1.408   .     A
C507   C514    1.476   .     S
C511   C543    1.476   .     S
C512   C542    1.477   .     S
C513   C536    1.477   .     S
C514   O598    1.305   .     A
C514   O597    1.310   .     A
C515   C525    1.476   .     S
C516   O585    1.221   .     D
C516   C544    1.490   .     S
C516   H669    1.072   1_455 S
C517   O586    1.221   .     D
C517   H670    1.072   1_455 S
C518   O587    1.221   .     D
C518   H671    1.073   .     S
C519   O589    1.221   .     D
C519   H672    1.073   .     S
C520   H553    1.072   .     S
C520   O590    1.221   .     D
C521   H554    1.072   .     S
C521   O591    1.221   .     D
C522   H555    1.073   .     S
C522   O592    1.221   .     D
C523   H556    1.073   .     S
C523   O593    1.221   .     D
C524   N572    1.156   .     T
C525   O600    1.305   .     A
C525   O580    1.310   .     A
C526   N573    1.156   .     T
C527   N574    1.156   .     T
C528   N575    1.157   .     T
C529   N576    1.156   .     T
C530   N558    1.157   .     T
C531   N559    1.156   .     T
C532   N560    1.156   .     T
C533   N561    1.156   .     T
C534   N562    1.156   .     T
C535   N563    1.156   .     T
C536   O578    1.310   .     A
C536   O579    1.305   .     A
C537   N564    1.157   .     T
C538   N565    1.156   .     T
C539   N566    1.157   .     T
C540   N567    1.156   .     T
C541   N569    1.156   .     T
C542   O584    1.310   .     A
C542   O581    1.305   .     A
C543   O582    1.310   .     A
C543   O583    1.305   .     A
C544   N568    1.380   .     A
C544   C124    1.436   1_455 S
Cu545  O577    1.979   .     S
Cu545  O597    1.985   .     S
Cu545  Cu546   2.714   .     S
Cu545  N557    2.040   .     S
Cu545  O714    1.985   1_455 S
Cu545  O719    1.979   1_455 S
Cu546  O716    1.985   1_455 S
Cu546  O708    1.979   1_455 S
Cu546  N568    2.040   .     S
Cu546  O595    1.985   .     S
Cu546  O598    1.979   .     S
Cu547  O579    1.985   .     S
Cu547  Cu548   2.714   .     S
Cu547  N570    2.040   .     S
Cu547  O582    1.985   .     S
Cu547  O824    1.979   1_545 S
Cu547  O840    1.979   1_545 S
Cu548  N571    2.040   .     S
Cu548  O583    1.979   .     S
Cu548  O578    1.979   .     S
Cu548  O820    1.985   1_545 S
Cu548  O821    1.985   1_545 S
H549   C636    1.072   .     S
H550   C637    1.072   .     S
H551   C638    1.073   1_455 S
H552   C639    1.073   1_455 S
N557   C604    1.379   1_455 A
N568   C603    1.379   1_455 S
N570   C728    1.379   1_545 S
N571   C725    1.380   1_545 S
O580   Cu788   1.985   .     S
O581   Cu788   1.985   .     S
O584   Cu787   1.979   .     S
O588   Cu666   1.979   .     S
O594   Cu665   1.985   .     S
O596   Cu666   1.985   .     S
O599   Cu665   1.979   .     S
O600   Cu787   1.979   .     S
C601   O697    1.305   .     A
C601   C630    1.476   .     S
C601   O715    1.309   .     A
C602   C637    1.490   .     S
C602   C963    1.436   .     S
C602   N677    1.380   .     S
C603   C638    1.487   .     S
C603   C2      1.436   1_655 S
C603   N568    1.379   1_655 S
C604   C639    1.487   .     S
C604   N557    1.379   1_655 A
C604   C1024   1.436   1_655 S
C605   C640    1.490   .     S
C605   N931    1.380   .     S
C606   C641    1.490   .     S
C606   N690    1.380   .     A
C606   C1087   1.436   .     S
C607   C642    1.487   .     S
C607   N691    1.379   .     A
C608   C643    1.487   .     S
C608   C1085   1.436   .     S
C608   N930    1.379   .     S
C609   C644    1.450   .     S
C609   C620    1.396   .     A
C609   C628    1.418   .     A
C610   C627    1.408   .     A
C610   C646    1.446   .     S
C610   C621    1.392   .     A
C611   C618    1.396   .     A
C611   C647    1.453   .     S
C611   C627    1.413   .     A
C612   C629    1.477   .     S
C612   O714    1.305   .     A
C612   O708    1.310   .     A
C613   C628    1.412   .     A
C613   C619    1.392   .     A
C613   C648    1.452   .     S
C614   C649    1.453   .     S
C614   C630    1.413   .     A
C614   C625    1.396   .     A
C615   C650    1.452   .     S
C615   C629    1.412   .     A
C615   C626    1.392   .     A
C616   C629    1.418   .     A
C616   C651    1.450   .     S
C616   C622    1.396   .     A
C617   C630    1.408   .     A
C617   C652    1.446   .     S
C617   C624    1.392   .     A
C618   C653    1.450   .     S
C618   C632    1.418   .     A
C619   C631    1.408   .     A
C619   C654    1.446   .     S
C620   C655    1.453   .     S
C620   C631    1.413   .     A
C621   C632    1.412   .     A
C621   C657    1.452   .     S
C622   C635    1.413   .     A
C622   C658    1.453   .     S
C623   O719    1.310   .     A
C623   O716    1.305   .     A
C623   C628    1.477   .     S
C624   C633    1.412   .     A
C624   C659    1.452   .     S
C625   C660    1.450   .     S
C625   C633    1.418   .     A
C626   C661    1.446   .     S
C626   C635    1.408   .     A
C627   C634    1.476   .     S
C631   C663    1.476   .     S
C632   C662    1.477   .     S
C633   C656    1.477   .     S
C634   O718    1.305   .     A
C634   O717    1.310   .     A
C635   C645    1.476   .     S
C636   O705    1.221   .     D
C636   C664    1.490   .     S
C637   O706    1.221   .     D
C638   O707    1.221   .     D
C638   H551    1.073   1_655 S
C639   O709    1.221   .     D
C639   H552    1.073   1_655 S
C640   H673    1.072   .     S
C640   O710    1.221   .     D
C641   H674    1.072   .     S
C641   O711    1.221   .     D
C642   H675    1.073   .     S
C642   O712    1.221   .     D
C643   H676    1.073   .     S
C643   O713    1.221   .     D
C644   N692    1.156   .     T
C645   O720    1.305   .     A
C645   O700    1.310   .     A
C646   N693    1.156   .     T
C647   N694    1.156   .     T
C648   N695    1.157   .     T
C649   N696    1.156   .     T
C650   N678    1.157   .     T
C651   N679    1.156   .     T
C652   N680    1.156   .     T
C653   N681    1.156   .     T
C654   N682    1.156   .     T
C655   N683    1.156   .     T
C656   O698    1.310   .     A
C656   O699    1.305   .     A
C657   N684    1.157   .     T
C658   N685    1.156   .     T
C659   N686    1.157   .     T
C660   N687    1.156   .     T
C661   N689    1.156   .     T
C662   O704    1.310   .     A
C662   O701    1.305   .     A
C663   O702    1.310   .     A
C663   O703    1.305   .     A
C664   N688    1.380   .     A
Cu665  O697    1.979   .     S
Cu665  O717    1.985   .     S
Cu665  Cu666   2.714   .     S
Cu665  N677    2.040   .     S
Cu666  N688    2.040   .     S
Cu666  O715    1.985   .     S
Cu666  O718    1.979   .     S
Cu667  O699    1.985   .     S
Cu667  Cu668   2.714   .     S
Cu667  N690    2.040   .     S
Cu667  O702    1.985   .     S
Cu667  O944    1.979   1_545 S
Cu667  O960    1.979   1_545 S
Cu668  N691    2.040   .     S
Cu668  O703    1.979   .     S
Cu668  O698    1.979   .     S
Cu668  O940    1.985   1_545 S
Cu668  O941    1.985   1_545 S
H669   C516    1.072   1_655 S
H670   C517    1.072   1_655 S
N690   C848    1.379   1_545 S
N691   C845    1.380   1_545 S
O700   Cu908   1.985   .     S
O701   Cu908   1.985   .     S
O704   Cu907   1.979   .     S
O708   Cu546   1.979   1_655 S
O714   Cu545   1.985   1_655 S
O716   Cu546   1.985   1_655 S
O719   Cu545   1.979   1_655 S
O720   Cu907   1.979   .     S
C721   O817    1.305   .     A
C721   C750    1.476   .     S
C721   O835    1.309   .     A
C722   C757    1.490   .     S
C722   C1323   1.436   1_455 S
C722   N797    1.380   .     S
C723   C758    1.487   .     S
C723   N928    1.379   .     S
C724   C759    1.487   .     S
C724   N917    1.379   .     A
C724   C1384   1.436   .     S
C725   C760    1.490   .     S
C725   N571    1.380   1_565 S
C726   C761    1.490   .     S
C726   N810    1.380   .     A
C726   C1207   1.436   .     S
C727   C762    1.487   .     S
C727   N811    1.379   .     A
C728   C763    1.487   .     S
C728   C1205   1.436   .     S
C728   N570    1.379   1_565 S
C729   C764    1.450   .     S
C729   C740    1.396   .     A
C729   C748    1.418   .     A
C730   C747    1.408   .     A
C730   C766    1.446   .     S
C730   C741    1.392   .     A
C731   C738    1.396   .     A
C731   C767    1.453   .     S
C731   C747    1.413   .     A
C732   C749    1.477   .     S
C732   O834    1.305   .     A
C732   O828    1.310   .     A
C733   C748    1.412   .     A
C733   C739    1.392   .     A
C733   C768    1.452   .     S
C734   C769    1.453   .     S
C734   C750    1.413   .     A
C734   C745    1.396   .     A
C735   C770    1.452   .     S
C735   C749    1.412   .     A
C735   C746    1.392   .     A
C736   C749    1.418   .     A
C736   C771    1.450   .     S
C736   C742    1.396   .     A
C737   C750    1.408   .     A
C737   C772    1.446   .     S
C737   C744    1.392   .     A
C738   C773    1.450   .     S
C738   C752    1.418   .     A
C739   C751    1.408   .     A
C739   C774    1.446   .     S
C740   C775    1.453   .     S
C740   C751    1.413   .     A
C741   C752    1.412   .     A
C741   C777    1.452   .     S
C742   C755    1.413   .     A
C742   C778    1.453   .     S
C743   O839    1.310   .     A
C743   O836    1.305   .     A
C743   C748    1.477   .     S
C744   C753    1.412   .     A
C744   C779    1.452   .     S
C745   C780    1.450   .     S
C745   C753    1.418   .     A
C746   C781    1.446   .     S
C746   C755    1.408   .     A
C747   C754    1.476   .     S
C751   C783    1.476   .     S
C752   C782    1.477   .     S
C753   C776    1.477   .     S
C754   O838    1.305   .     A
C754   O837    1.310   .     A
C755   C765    1.476   .     S
C756   O825    1.221   .     D
C756   C784    1.490   .     S
C756   H909    1.072   1_455 S
C757   O826    1.221   .     D
C757   H910    1.072   1_455 S
C758   O827    1.221   .     D
C758   H911    1.073   .     S
C759   O829    1.221   .     D
C759   H912    1.073   .     S
C760   H793    1.072   .     S
C760   O830    1.221   .     D
C761   H794    1.072   .     S
C761   O831    1.221   .     D
C762   H795    1.073   .     S
C762   O832    1.221   .     D
C763   H796    1.073   .     S
C763   O833    1.221   .     D
C764   N812    1.156   .     T
C765   O840    1.305   .     A
C765   O820    1.310   .     A
C766   N813    1.156   .     T
C767   N814    1.156   .     T
C768   N815    1.157   .     T
C769   N816    1.156   .     T
C770   N798    1.157   .     T
C771   N799    1.156   .     T
C772   N800    1.156   .     T
C773   N801    1.156   .     T
C774   N802    1.156   .     T
C775   N803    1.156   .     T
C776   O818    1.310   .     A
C776   O819    1.305   .     A
C777   N804    1.157   .     T
C778   N805    1.156   .     T
C779   N806    1.157   .     T
C780   N807    1.156   .     T
C781   N809    1.156   .     T
C782   O824    1.310   .     A
C782   O821    1.305   .     A
C783   O822    1.310   .     A
C783   O823    1.305   .     A
C784   N808    1.380   .     A
C784   C364    1.436   1_455 S
Cu785  O817    1.979   .     S
Cu785  O837    1.985   .     S
Cu785  Cu786   2.714   .     S
Cu785  N797    2.040   .     S
Cu785  O954    1.985   1_455 S
Cu785  O959    1.979   1_455 S
Cu786  O956    1.985   1_455 S
Cu786  O948    1.979   1_455 S
Cu786  N808    2.040   .     S
Cu786  O835    1.985   .     S
Cu786  O838    1.979   .     S
Cu787  O819    1.985   .     S
Cu787  Cu788   2.714   .     S
Cu787  N810    2.040   .     S
Cu787  O822    1.985   .     S
Cu788  N811    2.040   .     S
Cu788  O823    1.979   .     S
Cu788  O818    1.979   .     S
H789   C876    1.072   .     S
H790   C877    1.072   .     S
H791   C878    1.073   1_455 S
H792   C879    1.073   1_455 S
N797   C844    1.379   1_455 A
N808   C843    1.379   1_455 S
O820   Cu548   1.985   1_565 S
O821   Cu548   1.985   1_565 S
O824   Cu547   1.979   1_565 S
O828   Cu906   1.979   .     S
O834   Cu905   1.985   .     S
O836   Cu906   1.985   .     S
O839   Cu905   1.979   .     S
O840   Cu547   1.979   1_565 S
C841   O937    1.305   .     A
C841   C870    1.476   .     S
C841   O955    1.309   .     A
C842   C877    1.490   .     S
C842   C1203   1.436   .     S
C842   N917    1.380   .     S
C843   C878    1.487   .     S
C843   C242    1.436   1_655 S
C843   N808    1.379   1_655 S
C844   C879    1.487   .     S
C844   N797    1.379   1_655 A
C844   C1264   1.436   1_655 S
C845   C880    1.490   .     S
C845   N691    1.380   1_565 S
C846   C881    1.490   .     S
C846   N930    1.380   .     A
C846   C1327   1.436   .     S
C847   C882    1.487   .     S
C847   N931    1.379   .     A
C848   C883    1.487   .     S
C848   C1325   1.436   .     S
C848   N690    1.379   1_565 S
C849   C884    1.450   .     S
C849   C860    1.396   .     A
C849   C868    1.418   .     A
C850   C867    1.408   .     A
C850   C886    1.446   .     S
C850   C861    1.392   .     A
C851   C858    1.396   .     A
C851   C887    1.453   .     S
C851   C867    1.413   .     A
C852   C869    1.477   .     S
C852   O954    1.305   .     A
C852   O948    1.310   .     A
C853   C868    1.412   .     A
C853   C859    1.392   .     A
C853   C888    1.452   .     S
C854   C889    1.453   .     S
C854   C870    1.413   .     A
C854   C865    1.396   .     A
C855   C890    1.452   .     S
C855   C869    1.412   .     A
C855   C866    1.392   .     A
C856   C869    1.418   .     A
C856   C891    1.450   .     S
C856   C862    1.396   .     A
C857   C870    1.408   .     A
C857   C892    1.446   .     S
C857   C864    1.392   .     A
C858   C893    1.450   .     S
C858   C872    1.418   .     A
C859   C871    1.408   .     A
C859   C894    1.446   .     S
C860   C895    1.453   .     S
C860   C871    1.413   .     A
C861   C872    1.412   .     A
C861   C897    1.452   .     S
C862   C875    1.413   .     A
C862   C898    1.453   .     S
C863   O959    1.310   .     A
C863   O956    1.305   .     A
C863   C868    1.477   .     S
C864   C873    1.412   .     A
C864   C899    1.452   .     S
C865   C900    1.450   .     S
C865   C873    1.418   .     A
C866   C901    1.446   .     S
C866   C875    1.408   .     A
C867   C874    1.476   .     S
C871   C903    1.476   .     S
C872   C902    1.477   .     S
C873   C896    1.477   .     S
C874   O958    1.305   .     A
C874   O957    1.310   .     A
C875   C885    1.476   .     S
C876   O945    1.221   .     D
C876   C904    1.490   .     S
C877   O946    1.221   .     D
C878   O947    1.221   .     D
C878   H791    1.073   1_655 S
C879   O949    1.221   .     D
C879   H792    1.073   1_655 S
C880   H913    1.072   .     S
C880   O950    1.221   .     D
C881   H914    1.072   .     S
C881   O951    1.221   .     D
C882   H915    1.073   .     S
C882   O952    1.221   .     D
C883   H916    1.073   .     S
C883   O953    1.221   .     D
C884   N932    1.156   .     T
C885   O960    1.305   .     A
C885   O940    1.310   .     A
C886   N933    1.156   .     T
C887   N934    1.156   .     T
C888   N935    1.157   .     T
C889   N936    1.156   .     T
C890   N918    1.157   .     T
C891   N919    1.156   .     T
C892   N920    1.156   .     T
C893   N921    1.156   .     T
C894   N922    1.156   .     T
C895   N923    1.156   .     T
C896   O938    1.310   .     A
C896   O939    1.305   .     A
C897   N924    1.157   .     T
C898   N925    1.156   .     T
C899   N926    1.157   .     T
C900   N927    1.156   .     T
C901   N929    1.156   .     T
C902   O944    1.310   .     A
C902   O941    1.305   .     A
C903   O942    1.310   .     A
C903   O943    1.305   .     A
C904   N928    1.380   .     A
Cu905  O937    1.979   .     S
Cu905  O957    1.985   .     S
Cu905  Cu906   2.714   .     S
Cu905  N917    2.040   .     S
Cu906  N928    2.040   .     S
Cu906  O955    1.985   .     S
Cu906  O958    1.979   .     S
Cu907  O939    1.985   .     S
Cu907  Cu908   2.714   .     S
Cu907  N930    2.040   .     S
Cu907  O942    1.985   .     S
Cu908  N931    2.040   .     S
Cu908  O943    1.979   .     S
Cu908  O938    1.979   .     S
H909   C756    1.072   1_655 S
H910   C757    1.072   1_655 S
O940   Cu668   1.985   1_565 S
O941   Cu668   1.985   1_565 S
O944   Cu667   1.979   1_565 S
O948   Cu786   1.979   1_655 S
O954   Cu785   1.985   1_655 S
O956   Cu786   1.985   1_655 S
O959   Cu785   1.979   1_655 S
O960   Cu667   1.979   1_565 S
C961   O1057   1.305   .     A
C961   C990    1.476   .     S
C961   O1075   1.309   .     A
C962   C997    1.490   .     S
C962   C123    1.436   1_456 S
C962   N1037   1.380   .     S
C963   C998    1.487   .     S
C963   N1168   1.379   .     S
C964   C999    1.487   .     S
C964   N1157   1.379   .     A
C964   C184    1.436   1_556 S
C965   C1000   1.490   .     S
C965   N1291   1.380   .     S
C966   C1001   1.490   .     S
C966   N1050   1.380   .     A
C966   C7      1.436   1_556 S
C967   C1002   1.487   .     S
C967   N1051   1.379   .     A
C968   C1003   1.487   .     S
C968   C5      1.436   1_556 S
C968   N1290   1.379   .     S
C969   C1004   1.450   .     S
C969   C980    1.396   .     A
C969   C988    1.418   .     A
C970   C987    1.408   .     A
C970   C1006   1.446   .     S
C970   C981    1.392   .     A
C971   C978    1.396   .     A
C971   C1007   1.453   .     S
C971   C987    1.413   .     A
C972   C989    1.477   .     S
C972   O1074   1.305   .     A
C972   O1068   1.310   .     A
C973   C988    1.412   .     A
C973   C979    1.392   .     A
C973   C1008   1.452   .     S
C974   C1009   1.453   .     S
C974   C990    1.413   .     A
C974   C985    1.396   .     A
C975   C1010   1.452   .     S
C975   C989    1.412   .     A
C975   C986    1.392   .     A
C976   C989    1.418   .     A
C976   C1011   1.450   .     S
C976   C982    1.396   .     A
C977   C990    1.408   .     A
C977   C1012   1.446   .     S
C977   C984    1.392   .     A
C978   C1013   1.450   .     S
C978   C992    1.418   .     A
C979   C991    1.408   .     A
C979   C1014   1.446   .     S
C980   C1015   1.453   .     S
C980   C991    1.413   .     A
C981   C992    1.412   .     A
C981   C1017   1.452   .     S
C982   C995    1.413   .     A
C982   C1018   1.453   .     S
C983   O1079   1.310   .     A
C983   O1076   1.305   .     A
C983   C988    1.477   .     S
C984   C993    1.412   .     A
C984   C1019   1.452   .     S
C985   C1020   1.450   .     S
C985   C993    1.418   .     A
C986   C1021   1.446   .     S
C986   C995    1.408   .     A
C987   C994    1.476   .     S
C991   C1023   1.476   .     S
C992   C1022   1.477   .     S
C993   C1016   1.477   .     S
C994   O1078   1.305   .     A
C994   O1077   1.310   .     A
C995   C1005   1.476   .     S
C996   O1065   1.221   .     D
C996   C1024   1.490   .     S
C996   H1149   1.072   1_455 S
C997   O1066   1.221   .     D
C997   H1150   1.072   1_455 S
C998   O1067   1.221   .     D
C998   H1151   1.073   .     S
C999   O1069   1.221   .     D
C999   H1152   1.073   .     S
C1000  H1033   1.072   .     S
C1000  O1070   1.221   .     D
C1001  H1034   1.072   .     S
C1001  O1071   1.221   .     D
C1002  H1035   1.073   .     S
C1002  O1072   1.221   .     D
C1003  H1036   1.073   .     S
C1003  O1073   1.221   .     D
C1004  N1052   1.156   .     T
C1005  O1080   1.305   .     A
C1005  O1060   1.310   .     A
C1006  N1053   1.156   .     T
C1007  N1054   1.156   .     T
C1008  N1055   1.157   .     T
C1009  N1056   1.156   .     T
C1010  N1038   1.157   .     T
C1011  N1039   1.156   .     T
C1012  N1040   1.156   .     T
C1013  N1041   1.156   .     T
C1014  N1042   1.156   .     T
C1015  N1043   1.156   .     T
C1016  O1058   1.310   .     A
C1016  O1059   1.305   .     A
C1017  N1044   1.157   .     T
C1018  N1045   1.156   .     T
C1019  N1046   1.157   .     T
C1020  N1047   1.156   .     T
C1021  N1049   1.156   .     T
C1022  O1064   1.310   .     A
C1022  O1061   1.305   .     A
C1023  O1062   1.310   .     A
C1023  O1063   1.305   .     A
C1024  N1048   1.380   .     A
C1024  C604    1.436   1_455 S
Cu1025 O1057   1.979   .     S
Cu1025 O1077   1.985   .     S
Cu1025 Cu1026  2.714   .     S
Cu1025 N1037   2.040   .     S
Cu1025 O1194   1.985   1_455 S
Cu1025 O1199   1.979   1_455 S
Cu1026 O1196   1.985   1_455 S
Cu1026 O1188   1.979   1_455 S
Cu1026 N1048   2.040   .     S
Cu1026 O1075   1.985   .     S
Cu1026 O1078   1.979   .     S
Cu1027 O1059   1.985   .     S
Cu1027 Cu1028  2.714   .     S
Cu1027 N1050   2.040   .     S
Cu1027 O1062   1.985   .     S
Cu1027 O1304   1.979   1_545 S
Cu1027 O1320   1.979   1_545 S
Cu1028 N1051   2.040   .     S
Cu1028 O1063   1.979   .     S
Cu1028 O1058   1.979   .     S
Cu1028 O1300   1.985   1_545 S
Cu1028 O1301   1.985   1_545 S
H1029  C1116   1.072   .     S
H1030  C1117   1.072   .     S
H1031  C1118   1.073   1_455 S
H1032  C1119   1.073   1_455 S
N1037  C1084   1.379   1_455 A
N1048  C1083   1.379   1_455 S
N1050  C1208   1.379   1_545 S
N1051  C1205   1.380   1_545 S
O1060  Cu1268  1.985   .     S
O1061  Cu1268  1.985   .     S
O1064  Cu1267  1.979   .     S
O1068  Cu1146  1.979   .     S
O1074  Cu1145  1.985   .     S
O1076  Cu1146  1.985   .     S
O1079  Cu1145  1.979   .     S
O1080  Cu1267  1.979   .     S
C1081  O1177   1.305   .     A
C1081  C1110   1.476   .     S
C1081  O1195   1.309   .     A
C1082  C1117   1.490   .     S
C1082  C3      1.436   1_556 S
C1082  N1157   1.380   .     S
C1083  C1118   1.487   .     S
C1083  C482    1.436   1_655 S
C1083  N1048   1.379   1_655 S
C1084  C1119   1.487   .     S
C1084  N1037   1.379   1_655 A
C1084  C64     1.436   1_656 S
C1085  C1120   1.490   .     S
C1085  N1411   1.380   .     S
C1086  C1121   1.490   .     S
C1086  N1170   1.380   .     A
C1086  C127    1.436   1_556 S
C1087  C1122   1.487   .     S
C1087  N1171   1.379   .     A
C1088  C1123   1.487   .     S
C1088  C125    1.436   1_556 S
C1088  N1410   1.379   .     S
C1089  C1124   1.450   .     S
C1089  C1100   1.396   .     A
C1089  C1108   1.418   .     A
C1090  C1107   1.408   .     A
C1090  C1126   1.446   .     S
C1090  C1101   1.392   .     A
C1091  C1098   1.396   .     A
C1091  C1127   1.453   .     S
C1091  C1107   1.413   .     A
C1092  C1109   1.477   .     S
C1092  O1194   1.305   .     A
C1092  O1188   1.310   .     A
C1093  C1108   1.412   .     A
C1093  C1099   1.392   .     A
C1093  C1128   1.452   .     S
C1094  C1129   1.453   .     S
C1094  C1110   1.413   .     A
C1094  C1105   1.396   .     A
C1095  C1130   1.452   .     S
C1095  C1109   1.412   .     A
C1095  C1106   1.392   .     A
C1096  C1109   1.418   .     A
C1096  C1131   1.450   .     S
C1096  C1102   1.396   .     A
C1097  C1110   1.408   .     A
C1097  C1132   1.446   .     S
C1097  C1104   1.392   .     A
C1098  C1133   1.450   .     S
C1098  C1112   1.418   .     A
C1099  C1111   1.408   .     A
C1099  C1134   1.446   .     S
C1100  C1135   1.453   .     S
C1100  C1111   1.413   .     A
C1101  C1112   1.412   .     A
C1101  C1137   1.452   .     S
C1102  C1115   1.413   .     A
C1102  C1138   1.453   .     S
C1103  O1199   1.310   .     A
C1103  O1196   1.305   .     A
C1103  C1108   1.477   .     S
C1104  C1113   1.412   .     A
C1104  C1139   1.452   .     S
C1105  C1140   1.450   .     S
C1105  C1113   1.418   .     A
C1106  C1141   1.446   .     S
C1106  C1115   1.408   .     A
C1107  C1114   1.476   .     S
C1111  C1143   1.476   .     S
C1112  C1142   1.477   .     S
C1113  C1136   1.477   .     S
C1114  O1198   1.305   .     A
C1114  O1197   1.310   .     A
C1115  C1125   1.476   .     S
C1116  O1185   1.221   .     D
C1116  C1144   1.490   .     S
C1117  O1186   1.221   .     D
C1118  O1187   1.221   .     D
C1118  H1031   1.073   1_655 S
C1119  O1189   1.221   .     D
C1119  H1032   1.073   1_655 S
C1120  H1153   1.072   .     S
C1120  O1190   1.221   .     D
C1121  H1154   1.072   .     S
C1121  O1191   1.221   .     D
C1122  H1155   1.073   .     S
C1122  O1192   1.221   .     D
C1123  H1156   1.073   .     S
C1123  O1193   1.221   .     D
C1124  N1172   1.156   .     T
C1125  O1200   1.305   .     A
C1125  O1180   1.310   .     A
C1126  N1173   1.156   .     T
C1127  N1174   1.156   .     T
C1128  N1175   1.157   .     T
C1129  N1176   1.156   .     T
C1130  N1158   1.157   .     T
C1131  N1159   1.156   .     T
C1132  N1160   1.156   .     T
C1133  N1161   1.156   .     T
C1134  N1162   1.156   .     T
C1135  N1163   1.156   .     T
C1136  O1178   1.310   .     A
C1136  O1179   1.305   .     A
C1137  N1164   1.157   .     T
C1138  N1165   1.156   .     T
C1139  N1166   1.157   .     T
C1140  N1167   1.156   .     T
C1141  N1169   1.156   .     T
C1142  O1184   1.310   .     A
C1142  O1181   1.305   .     A
C1143  O1182   1.310   .     A
C1143  O1183   1.305   .     A
C1144  N1168   1.380   .     A
Cu1145 O1177   1.979   .     S
Cu1145 O1197   1.985   .     S
Cu1145 Cu1146  2.714   .     S
Cu1145 N1157   2.040   .     S
Cu1146 N1168   2.040   .     S
Cu1146 O1195   1.985   .     S
Cu1146 O1198   1.979   .     S
Cu1147 O1179   1.985   .     S
Cu1147 Cu1148  2.714   .     S
Cu1147 N1170   2.040   .     S
Cu1147 O1182   1.985   .     S
Cu1147 O1424   1.979   1_545 S
Cu1147 O1440   1.979   1_545 S
Cu1148 N1171   2.040   .     S
Cu1148 O1183   1.979   .     S
Cu1148 O1178   1.979   .     S
Cu1148 O1420   1.985   1_545 S
Cu1148 O1421   1.985   1_545 S
H1149  C996    1.072   1_655 S
H1150  C997    1.072   1_655 S
N1170  C1328   1.379   1_545 S
N1171  C1325   1.380   1_545 S
O1180  Cu1388  1.985   .     S
O1181  Cu1388  1.985   .     S
O1184  Cu1387  1.979   .     S
O1188  Cu1026  1.979   1_655 S
O1194  Cu1025  1.985   1_655 S
O1196  Cu1026  1.985   1_655 S
O1199  Cu1025  1.979   1_655 S
O1200  Cu1387  1.979   .     S
C1201  O1297   1.305   .     A
C1201  C1230   1.476   .     S
C1201  O1315   1.309   .     A
C1202  C1237   1.490   .     S
C1202  C363    1.436   1_456 S
C1202  N1277   1.380   .     S
C1203  C1238   1.487   .     S
C1203  N1408   1.379   .     S
C1204  C1239   1.487   .     S
C1204  N1397   1.379   .     A
C1204  C424    1.436   1_556 S
C1205  C1240   1.490   .     S
C1205  N1051   1.380   1_565 S
C1206  C1241   1.490   .     S
C1206  N1290   1.380   .     A
C1206  C247    1.436   1_556 S
C1207  C1242   1.487   .     S
C1207  N1291   1.379   .     A
C1208  C1243   1.487   .     S
C1208  C245    1.436   1_556 S
C1208  N1050   1.379   1_565 S
C1209  C1244   1.450   .     S
C1209  C1220   1.396   .     A
C1209  C1228   1.418   .     A
C1210  C1227   1.408   .     A
C1210  C1246   1.446   .     S
C1210  C1221   1.392   .     A
C1211  C1218   1.396   .     A
C1211  C1247   1.453   .     S
C1211  C1227   1.413   .     A
C1212  C1229   1.477   .     S
C1212  O1314   1.305   .     A
C1212  O1308   1.310   .     A
C1213  C1228   1.412   .     A
C1213  C1219   1.392   .     A
C1213  C1248   1.452   .     S
C1214  C1249   1.453   .     S
C1214  C1230   1.413   .     A
C1214  C1225   1.396   .     A
C1215  C1250   1.452   .     S
C1215  C1229   1.412   .     A
C1215  C1226   1.392   .     A
C1216  C1229   1.418   .     A
C1216  C1251   1.450   .     S
C1216  C1222   1.396   .     A
C1217  C1230   1.408   .     A
C1217  C1252   1.446   .     S
C1217  C1224   1.392   .     A
C1218  C1253   1.450   .     S
C1218  C1232   1.418   .     A
C1219  C1231   1.408   .     A
C1219  C1254   1.446   .     S
C1220  C1255   1.453   .     S
C1220  C1231   1.413   .     A
C1221  C1232   1.412   .     A
C1221  C1257   1.452   .     S
C1222  C1235   1.413   .     A
C1222  C1258   1.453   .     S
C1223  O1319   1.310   .     A
C1223  O1316   1.305   .     A
C1223  C1228   1.477   .     S
C1224  C1233   1.412   .     A
C1224  C1259   1.452   .     S
C1225  C1260   1.450   .     S
C1225  C1233   1.418   .     A
C1226  C1261   1.446   .     S
C1226  C1235   1.408   .     A
C1227  C1234   1.476   .     S
C1231  C1263   1.476   .     S
C1232  C1262   1.477   .     S
C1233  C1256   1.477   .     S
C1234  O1318   1.305   .     A
C1234  O1317   1.310   .     A
C1235  C1245   1.476   .     S
C1236  O1305   1.221   .     D
C1236  C1264   1.490   .     S
C1236  H1389   1.072   1_455 S
C1237  O1306   1.221   .     D
C1237  H1390   1.072   1_455 S
C1238  O1307   1.221   .     D
C1238  H1391   1.073   .     S
C1239  O1309   1.221   .     D
C1239  H1392   1.073   .     S
C1240  H1273   1.072   .     S
C1240  O1310   1.221   .     D
C1241  H1274   1.072   .     S
C1241  O1311   1.221   .     D
C1242  H1275   1.073   .     S
C1242  O1312   1.221   .     D
C1243  H1276   1.073   .     S
C1243  O1313   1.221   .     D
C1244  N1292   1.156   .     T
C1245  O1320   1.305   .     A
C1245  O1300   1.310   .     A
C1246  N1293   1.156   .     T
C1247  N1294   1.156   .     T
C1248  N1295   1.157   .     T
C1249  N1296   1.156   .     T
C1250  N1278   1.157   .     T
C1251  N1279   1.156   .     T
C1252  N1280   1.156   .     T
C1253  N1281   1.156   .     T
C1254  N1282   1.156   .     T
C1255  N1283   1.156   .     T
C1256  O1298   1.310   .     A
C1256  O1299   1.305   .     A
C1257  N1284   1.157   .     T
C1258  N1285   1.156   .     T
C1259  N1286   1.157   .     T
C1260  N1287   1.156   .     T
C1261  N1289   1.156   .     T
C1262  O1304   1.310   .     A
C1262  O1301   1.305   .     A
C1263  O1302   1.310   .     A
C1263  O1303   1.305   .     A
C1264  N1288   1.380   .     A
C1264  C844    1.436   1_455 S
Cu1265 O1297   1.979   .     S
Cu1265 O1317   1.985   .     S
Cu1265 Cu1266  2.714   .     S
Cu1265 N1277   2.040   .     S
Cu1265 O1434   1.985   1_455 S
Cu1265 O1439   1.979   1_455 S
Cu1266 O1436   1.985   1_455 S
Cu1266 O1428   1.979   1_455 S
Cu1266 N1288   2.040   .     S
Cu1266 O1315   1.985   .     S
Cu1266 O1318   1.979   .     S
Cu1267 O1299   1.985   .     S
Cu1267 Cu1268  2.714   .     S
Cu1267 N1290   2.040   .     S
Cu1267 O1302   1.985   .     S
Cu1268 N1291   2.040   .     S
Cu1268 O1303   1.979   .     S
Cu1268 O1298   1.979   .     S
H1269  C1356   1.072   .     S
H1270  C1357   1.072   .     S
H1271  C1358   1.073   1_455 S
H1272  C1359   1.073   1_455 S
N1277  C1324   1.379   1_455 A
N1288  C1323   1.379   1_455 S
O1300  Cu1028  1.985   1_565 S
O1301  Cu1028  1.985   1_565 S
O1304  Cu1027  1.979   1_565 S
O1308  Cu1386  1.979   .     S
O1314  Cu1385  1.985   .     S
O1316  Cu1386  1.985   .     S
O1319  Cu1385  1.979   .     S
O1320  Cu1027  1.979   1_565 S
C1321  O1417   1.305   .     A
C1321  C1350   1.476   .     S
C1321  O1435   1.309   .     A
C1322  C1357   1.490   .     S
C1322  C243    1.436   1_556 S
C1322  N1397   1.380   .     S
C1323  C1358   1.487   .     S
C1323  C722    1.436   1_655 S
C1323  N1288   1.379   1_655 S
C1324  C1359   1.487   .     S
C1324  N1277   1.379   1_655 A
C1324  C304    1.436   1_656 S
C1325  C1360   1.490   .     S
C1325  N1171   1.380   1_565 S
C1326  C1361   1.490   .     S
C1326  N1410   1.380   .     A
C1326  C367    1.436   1_556 S
C1327  C1362   1.487   .     S
C1327  N1411   1.379   .     A
C1328  C1363   1.487   .     S
C1328  C365    1.436   1_556 S
C1328  N1170   1.379   1_565 S
C1329  C1364   1.450   .     S
C1329  C1340   1.396   .     A
C1329  C1348   1.418   .     A
C1330  C1347   1.408   .     A
C1330  C1366   1.446   .     S
C1330  C1341   1.392   .     A
C1331  C1338   1.396   .     A
C1331  C1367   1.453   .     S
C1331  C1347   1.413   .     A
C1332  C1349   1.477   .     S
C1332  O1434   1.305   .     A
C1332  O1428   1.310   .     A
C1333  C1348   1.412   .     A
C1333  C1339   1.392   .     A
C1333  C1368   1.452   .     S
C1334  C1369   1.453   .     S
C1334  C1350   1.413   .     A
C1334  C1345   1.396   .     A
C1335  C1370   1.452   .     S
C1335  C1349   1.412   .     A
C1335  C1346   1.392   .     A
C1336  C1349   1.418   .     A
C1336  C1371   1.450   .     S
C1336  C1342   1.396   .     A
C1337  C1350   1.408   .     A
C1337  C1372   1.446   .     S
C1337  C1344   1.392   .     A
C1338  C1373   1.450   .     S
C1338  C1352   1.418   .     A
C1339  C1351   1.408   .     A
C1339  C1374   1.446   .     S
C1340  C1375   1.453   .     S
C1340  C1351   1.413   .     A
C1341  C1352   1.412   .     A
C1341  C1377   1.452   .     S
C1342  C1355   1.413   .     A
C1342  C1378   1.453   .     S
C1343  O1439   1.310   .     A
C1343  O1436   1.305   .     A
C1343  C1348   1.477   .     S
C1344  C1353   1.412   .     A
C1344  C1379   1.452   .     S
C1345  C1380   1.450   .     S
C1345  C1353   1.418   .     A
C1346  C1381   1.446   .     S
C1346  C1355   1.408   .     A
C1347  C1354   1.476   .     S
C1351  C1383   1.476   .     S
C1352  C1382   1.477   .     S
C1353  C1376   1.477   .     S
C1354  O1438   1.305   .     A
C1354  O1437   1.310   .     A
C1355  C1365   1.476   .     S
C1356  O1425   1.221   .     D
C1356  C1384   1.490   .     S
C1357  O1426   1.221   .     D
C1358  O1427   1.221   .     D
C1358  H1271   1.073   1_655 S
C1359  O1429   1.221   .     D
C1359  H1272   1.073   1_655 S
C1360  H1393   1.072   .     S
C1360  O1430   1.221   .     D
C1361  H1394   1.072   .     S
C1361  O1431   1.221   .     D
C1362  H1395   1.073   .     S
C1362  O1432   1.221   .     D
C1363  H1396   1.073   .     S
C1363  O1433   1.221   .     D
C1364  N1412   1.156   .     T
C1365  O1440   1.305   .     A
C1365  O1420   1.310   .     A
C1366  N1413   1.156   .     T
C1367  N1414   1.156   .     T
C1368  N1415   1.157   .     T
C1369  N1416   1.156   .     T
C1370  N1398   1.157   .     T
C1371  N1399   1.156   .     T
C1372  N1400   1.156   .     T
C1373  N1401   1.156   .     T
C1374  N1402   1.156   .     T
C1375  N1403   1.156   .     T
C1376  O1418   1.310   .     A
C1376  O1419   1.305   .     A
C1377  N1404   1.157   .     T
C1378  N1405   1.156   .     T
C1379  N1406   1.157   .     T
C1380  N1407   1.156   .     T
C1381  N1409   1.156   .     T
C1382  O1424   1.310   .     A
C1382  O1421   1.305   .     A
C1383  O1422   1.310   .     A
C1383  O1423   1.305   .     A
C1384  N1408   1.380   .     A
Cu1385 O1417   1.979   .     S
Cu1385 O1437   1.985   .     S
Cu1385 Cu1386  2.714   .     S
Cu1385 N1397   2.040   .     S
Cu1386 N1408   2.040   .     S
Cu1386 O1435   1.985   .     S
Cu1386 O1438   1.979   .     S
Cu1387 O1419   1.985   .     S
Cu1387 Cu1388  2.714   .     S
Cu1387 N1410   2.040   .     S
Cu1387 O1422   1.985   .     S
Cu1388 N1411   2.040   .     S
Cu1388 O1423   1.979   .     S
Cu1388 O1418   1.979   .     S
H1389  C1236   1.072   1_655 S
H1390  C1237   1.072   1_655 S
O1420  Cu1148  1.985   1_565 S
O1421  Cu1148  1.985   1_565 S
O1424  Cu1147  1.979   1_565 S
O1428  Cu1266  1.979   1_655 S
O1434  Cu1265  1.985   1_655 S
O1436  Cu1266  1.985   1_655 S
O1439  Cu1265  1.979   1_655 S
O1440  Cu1147  1.979   1_565 S
