data_str_m3_o10_o16_pcu_sym.125
_audit_creation_date              2020-01-03
_audit_creation_method            'Materials Studio'
_symmetry_space_group_name_H-M    'P1'
_symmetry_Int_Tables_number       1
_symmetry_cell_setting            triclinic
loop_
_symmetry_equiv_pos_as_xyz
  x,y,z
_cell_length_a                    23.5258
_cell_length_b                    25.6963
_cell_length_c                    24.2036
_cell_angle_alpha                 92.5586
_cell_angle_beta                  101.1765
_cell_angle_gamma                 94.0567
loop_
_atom_site_label
_atom_site_type_symbol
_atom_site_fract_x
_atom_site_fract_y
_atom_site_fract_z
_atom_site_U_iso_or_equiv
_atom_site_adp_type
_atom_site_occupancy
C1     C     0.01486   0.26489   0.24875   0.00000  Uiso   1.00
C2     C     0.05304   0.16799   0.41607   0.00000  Uiso   1.00
C3     C     0.02265   0.31946   0.24817   0.00000  Uiso   1.00
C4     C     0.03531   0.16790   0.35515   0.00000  Uiso   1.00
C5     C     0.31090   0.01392   0.25252   0.00000  Uiso   1.00
C6     C     0.31854   0.06846   0.25149   0.00000  Uiso   1.00
C7     C     0.29749   0.16278   0.14484   0.00000  Uiso   1.00
C8     C     0.27016   0.09616   0.00106   0.00000  Uiso   1.00
C9     C     0.27667   0.15242   0.08492   0.00000  Uiso   1.00
C10    C     0.02445   0.19827   0.45009   0.00000  Uiso   1.00
C11    C     0.04827   0.20841   0.00692   0.00000  Uiso   1.00
C12    C     0.13215   0.16141   0.49497   0.00000  Uiso   1.00
C13    C     0.10222   0.19118   0.02924   0.00000  Uiso   1.00
C14    C     0.10357   0.14451   0.43995   0.00000  Uiso   1.00
C15    C     0.18961   0.14802   0.01332   0.00000  Uiso   1.00
C16    C     0.21396   0.11113   0.48111   0.00000  Uiso   1.00
C17    C     0.18139   0.08907   0.43021   0.00000  Uiso   1.00
C18    C     0.12679   0.10559   0.40972   0.00000  Uiso   1.00
C19    C     0.22391   0.17118   0.06261   0.00000  Uiso   1.00
C20    C     0.30100   0.11582   0.05379   0.00000  Uiso   1.00
H21    H     0.00886   0.10085   0.07117   0.00000  Uiso   1.00
H22    H     0.10267   0.08722   0.37020   0.00000  Uiso   1.00
H23    H     0.06515   0.00323   0.24405   0.00000  Uiso   1.00
H24    H     0.21150   0.23576   0.31879   0.00000  Uiso   1.00
H25    H     0.26842   0.33015   0.25672   0.00000  Uiso   1.00
H26    H     0.15651   0.12475   0.20829   0.00000  Uiso   1.00
H27    H     0.19847   0.05974   0.40577   0.00000  Uiso   1.00
H28    H     0.28903   0.06772   0.47712   0.00000  Uiso   1.00
H29    H     0.20927   0.20244   0.08625   0.00000  Uiso   1.00
H30    H     0.31810   0.21558   0.43236   0.00000  Uiso   1.00
H31    H     0.11876   0.20060   0.07359   0.00000  Uiso   1.00
H32    H     0.02592   0.23133   0.03333   0.00000  Uiso   1.00
N33    N     0.14493   0.15223   0.23543   0.00000  Uiso   1.00
N34    N     0.18840   0.18110   0.26458   0.00000  Uiso   1.00
O35    O     0.29769   0.24629   0.25358   0.00000  Uiso   1.00
O36    O     0.05742   0.23704   0.24424   0.00000  Uiso   1.00
O37    O     0.31490   0.17358   0.33380   0.00000  Uiso   1.00
O38    O     0.07463   0.16433   0.32446   0.00000  Uiso   1.00
O39    O     0.27592   0.09629   0.25577   0.00000  Uiso   1.00
O40    O     0.03565   0.08704   0.24643   0.00000  Uiso   1.00
O41    O     0.25870   0.16901   0.17554   0.00000  Uiso   1.00
O42    O     0.01843   0.15976   0.16620   0.00000  Uiso   1.00
O43    O     0.17398   0.21724   0.29982   0.00000  Uiso   1.00
Zn44   Zn    0.27119   0.17284   0.25624   0.00000  Uiso   1.00
Zn45   Zn    0.06214   0.16049   0.24377   0.00000  Uiso   1.00
C46    C     0.34820   0.26489   0.24875   0.00000  Uiso   1.00
C47    C     0.38637   0.16799   0.41607   0.00000  Uiso   1.00
C48    C     0.35598   0.31946   0.24817   0.00000  Uiso   1.00
C49    C     0.36865   0.16790   0.35515   0.00000  Uiso   1.00
C50    C     0.64423   0.01392   0.25252   0.00000  Uiso   1.00
C51    C     0.65188   0.06846   0.25149   0.00000  Uiso   1.00
C52    C     0.63082   0.16278   0.14484   0.00000  Uiso   1.00
C53    C     0.60350   0.09616   0.00106   0.00000  Uiso   1.00
C54    C     0.61000   0.15242   0.08492   0.00000  Uiso   1.00
C55    C     0.35778   0.19827   0.45009   0.00000  Uiso   1.00
C56    C     0.38161   0.20841   0.00692   0.00000  Uiso   1.00
C57    C     0.46549   0.16141   0.49497   0.00000  Uiso   1.00
C58    C     0.43556   0.19118   0.02924   0.00000  Uiso   1.00
C59    C     0.43690   0.14451   0.43995   0.00000  Uiso   1.00
C60    C     0.52294   0.14802   0.01332   0.00000  Uiso   1.00
C61    C     0.54729   0.11113   0.48111   0.00000  Uiso   1.00
C62    C     0.51472   0.08907   0.43021   0.00000  Uiso   1.00
C63    C     0.46012   0.10559   0.40972   0.00000  Uiso   1.00
C64    C     0.55724   0.17118   0.06261   0.00000  Uiso   1.00
C65    C     0.63433   0.11582   0.05379   0.00000  Uiso   1.00
H66    H     0.34219   0.10085   0.07117   0.00000  Uiso   1.00
H67    H     0.43601   0.08722   0.37020   0.00000  Uiso   1.00
H68    H     0.39848   0.00323   0.24405   0.00000  Uiso   1.00
H69    H     0.54483   0.23576   0.31879   0.00000  Uiso   1.00
H70    H     0.60175   0.33015   0.25672   0.00000  Uiso   1.00
H71    H     0.48985   0.12475   0.20829   0.00000  Uiso   1.00
H72    H     0.53181   0.05974   0.40577   0.00000  Uiso   1.00
H73    H     0.62236   0.06772   0.47712   0.00000  Uiso   1.00
H74    H     0.54261   0.20244   0.08625   0.00000  Uiso   1.00
H75    H     0.65143   0.21558   0.43236   0.00000  Uiso   1.00
H76    H     0.45209   0.20060   0.07359   0.00000  Uiso   1.00
H77    H     0.35926   0.23133   0.03333   0.00000  Uiso   1.00
N78    N     0.47827   0.15223   0.23543   0.00000  Uiso   1.00
N79    N     0.52173   0.18110   0.26458   0.00000  Uiso   1.00
O80    O     0.63102   0.24629   0.25358   0.00000  Uiso   1.00
O81    O     0.39075   0.23704   0.24424   0.00000  Uiso   1.00
O82    O     0.64823   0.17358   0.33380   0.00000  Uiso   1.00
O83    O     0.40796   0.16433   0.32446   0.00000  Uiso   1.00
O84    O     0.60925   0.09629   0.25577   0.00000  Uiso   1.00
O85    O     0.36898   0.08704   0.24643   0.00000  Uiso   1.00
O86    O     0.59204   0.16901   0.17554   0.00000  Uiso   1.00
O87    O     0.35177   0.15976   0.16620   0.00000  Uiso   1.00
O88    O     0.50731   0.21724   0.29982   0.00000  Uiso   1.00
Zn89   Zn    0.60453   0.17284   0.25624   0.00000  Uiso   1.00
Zn90   Zn    0.39547   0.16049   0.24377   0.00000  Uiso   1.00
C91    C     0.68153   0.26489   0.24875   0.00000  Uiso   1.00
C92    C     0.71971   0.16799   0.41607   0.00000  Uiso   1.00
C93    C     0.68931   0.31946   0.24817   0.00000  Uiso   1.00
C94    C     0.70198   0.16790   0.35515   0.00000  Uiso   1.00
C95    C     0.97756   0.01392   0.25252   0.00000  Uiso   1.00
C96    C     0.98521   0.06846   0.25149   0.00000  Uiso   1.00
C97    C     0.96415   0.16278   0.14484   0.00000  Uiso   1.00
C98    C     0.93683   0.09616   0.00106   0.00000  Uiso   1.00
C99    C     0.94334   0.15242   0.08492   0.00000  Uiso   1.00
C100   C     0.69111   0.19827   0.45009   0.00000  Uiso   1.00
C101   C     0.71494   0.20841   0.00692   0.00000  Uiso   1.00
C102   C     0.79882   0.16141   0.49497   0.00000  Uiso   1.00
C103   C     0.76889   0.19118   0.02924   0.00000  Uiso   1.00
C104   C     0.77023   0.14451   0.43995   0.00000  Uiso   1.00
C105   C     0.85627   0.14802   0.01332   0.00000  Uiso   1.00
C106   C     0.88063   0.11113   0.48111   0.00000  Uiso   1.00
C107   C     0.84805   0.08907   0.43021   0.00000  Uiso   1.00
C108   C     0.79346   0.10559   0.40972   0.00000  Uiso   1.00
C109   C     0.89057   0.17118   0.06261   0.00000  Uiso   1.00
C110   C     0.96766   0.11582   0.05379   0.00000  Uiso   1.00
H111   H     0.67552   0.10085   0.07117   0.00000  Uiso   1.00
H112   H     0.76934   0.08722   0.37020   0.00000  Uiso   1.00
H113   H     0.73182   0.00323   0.24405   0.00000  Uiso   1.00
H114   H     0.87817   0.23576   0.31879   0.00000  Uiso   1.00
H115   H     0.93508   0.33015   0.25672   0.00000  Uiso   1.00
H116   H     0.82318   0.12475   0.20829   0.00000  Uiso   1.00
H117   H     0.86514   0.05974   0.40577   0.00000  Uiso   1.00
H118   H     0.95570   0.06772   0.47712   0.00000  Uiso   1.00
H119   H     0.87594   0.20244   0.08625   0.00000  Uiso   1.00
H120   H     0.98476   0.21558   0.43236   0.00000  Uiso   1.00
H121   H     0.78543   0.20060   0.07359   0.00000  Uiso   1.00
H122   H     0.69259   0.23133   0.03333   0.00000  Uiso   1.00
N123   N     0.81160   0.15223   0.23543   0.00000  Uiso   1.00
N124   N     0.85507   0.18110   0.26458   0.00000  Uiso   1.00
O125   O     0.96435   0.24629   0.25358   0.00000  Uiso   1.00
O126   O     0.72408   0.23704   0.24424   0.00000  Uiso   1.00
O127   O     0.98157   0.17358   0.33380   0.00000  Uiso   1.00
O128   O     0.74130   0.16433   0.32446   0.00000  Uiso   1.00
O129   O     0.94258   0.09629   0.25577   0.00000  Uiso   1.00
O130   O     0.70231   0.08704   0.24643   0.00000  Uiso   1.00
O131   O     0.92537   0.16901   0.17554   0.00000  Uiso   1.00
O132   O     0.68510   0.15976   0.16620   0.00000  Uiso   1.00
O133   O     0.84065   0.21724   0.29982   0.00000  Uiso   1.00
Zn134  Zn    0.93786   0.17284   0.25624   0.00000  Uiso   1.00
Zn135  Zn    0.72881   0.16049   0.24377   0.00000  Uiso   1.00
C136   C     0.01486   0.59822   0.24875   0.00000  Uiso   1.00
C137   C     0.05304   0.50133   0.41607   0.00000  Uiso   1.00
C138   C     0.02265   0.65279   0.24817   0.00000  Uiso   1.00
C139   C     0.03531   0.50123   0.35515   0.00000  Uiso   1.00
C140   C     0.31090   0.34725   0.25252   0.00000  Uiso   1.00
C141   C     0.31854   0.40179   0.25149   0.00000  Uiso   1.00
C142   C     0.29749   0.49611   0.14484   0.00000  Uiso   1.00
C143   C     0.27016   0.42949   0.00106   0.00000  Uiso   1.00
C144   C     0.27667   0.48575   0.08492   0.00000  Uiso   1.00
C145   C     0.02445   0.53161   0.45009   0.00000  Uiso   1.00
C146   C     0.04827   0.54174   0.00692   0.00000  Uiso   1.00
C147   C     0.13215   0.49474   0.49497   0.00000  Uiso   1.00
C148   C     0.10222   0.52452   0.02924   0.00000  Uiso   1.00
C149   C     0.10357   0.47784   0.43995   0.00000  Uiso   1.00
C150   C     0.18961   0.48135   0.01332   0.00000  Uiso   1.00
C151   C     0.21396   0.44446   0.48111   0.00000  Uiso   1.00
C152   C     0.18139   0.42241   0.43021   0.00000  Uiso   1.00
C153   C     0.12679   0.43893   0.40972   0.00000  Uiso   1.00
C154   C     0.22391   0.50452   0.06261   0.00000  Uiso   1.00
C155   C     0.30100   0.44915   0.05379   0.00000  Uiso   1.00
H156   H     0.00886   0.43418   0.07117   0.00000  Uiso   1.00
H157   H     0.10267   0.42055   0.37020   0.00000  Uiso   1.00
H158   H     0.06515   0.33656   0.24405   0.00000  Uiso   1.00
H159   H     0.21150   0.56909   0.31879   0.00000  Uiso   1.00
H160   H     0.26842   0.66349   0.25672   0.00000  Uiso   1.00
H161   H     0.15651   0.45808   0.20829   0.00000  Uiso   1.00
H162   H     0.19847   0.39307   0.40577   0.00000  Uiso   1.00
H163   H     0.28903   0.40105   0.47712   0.00000  Uiso   1.00
H164   H     0.20927   0.53577   0.08625   0.00000  Uiso   1.00
H165   H     0.31810   0.54891   0.43236   0.00000  Uiso   1.00
H166   H     0.11876   0.53393   0.07359   0.00000  Uiso   1.00
H167   H     0.02592   0.56466   0.03333   0.00000  Uiso   1.00
N168   N     0.14493   0.48556   0.23543   0.00000  Uiso   1.00
N169   N     0.18840   0.51444   0.26458   0.00000  Uiso   1.00
O170   O     0.29769   0.57963   0.25358   0.00000  Uiso   1.00
O171   O     0.05742   0.57038   0.24424   0.00000  Uiso   1.00
O172   O     0.31490   0.50691   0.33380   0.00000  Uiso   1.00
O173   O     0.07463   0.49766   0.32446   0.00000  Uiso   1.00
O174   O     0.27592   0.42962   0.25577   0.00000  Uiso   1.00
O175   O     0.03565   0.42037   0.24643   0.00000  Uiso   1.00
O176   O     0.25870   0.50234   0.17554   0.00000  Uiso   1.00
O177   O     0.01843   0.49309   0.16620   0.00000  Uiso   1.00
O178   O     0.17398   0.55057   0.29982   0.00000  Uiso   1.00
Zn179  Zn    0.27119   0.50618   0.25624   0.00000  Uiso   1.00
Zn180  Zn    0.06214   0.49382   0.24377   0.00000  Uiso   1.00
C181   C     0.34820   0.59822   0.24875   0.00000  Uiso   1.00
C182   C     0.38637   0.50133   0.41607   0.00000  Uiso   1.00
C183   C     0.35598   0.65279   0.24817   0.00000  Uiso   1.00
C184   C     0.36865   0.50123   0.35515   0.00000  Uiso   1.00
C185   C     0.64423   0.34725   0.25252   0.00000  Uiso   1.00
C186   C     0.65188   0.40179   0.25149   0.00000  Uiso   1.00
C187   C     0.63082   0.49611   0.14484   0.00000  Uiso   1.00
C188   C     0.60350   0.42949   0.00106   0.00000  Uiso   1.00
C189   C     0.61000   0.48575   0.08492   0.00000  Uiso   1.00
C190   C     0.35778   0.53161   0.45009   0.00000  Uiso   1.00
C191   C     0.38161   0.54174   0.00692   0.00000  Uiso   1.00
C192   C     0.46549   0.49474   0.49497   0.00000  Uiso   1.00
C193   C     0.43556   0.52452   0.02924   0.00000  Uiso   1.00
C194   C     0.43690   0.47784   0.43995   0.00000  Uiso   1.00
C195   C     0.52294   0.48135   0.01332   0.00000  Uiso   1.00
C196   C     0.54729   0.44446   0.48111   0.00000  Uiso   1.00
C197   C     0.51472   0.42241   0.43021   0.00000  Uiso   1.00
C198   C     0.46012   0.43893   0.40972   0.00000  Uiso   1.00
C199   C     0.55724   0.50452   0.06261   0.00000  Uiso   1.00
C200   C     0.63433   0.44915   0.05379   0.00000  Uiso   1.00
H201   H     0.34219   0.43418   0.07117   0.00000  Uiso   1.00
H202   H     0.43601   0.42055   0.37020   0.00000  Uiso   1.00
H203   H     0.39848   0.33656   0.24405   0.00000  Uiso   1.00
H204   H     0.54483   0.56909   0.31879   0.00000  Uiso   1.00
H205   H     0.60175   0.66349   0.25672   0.00000  Uiso   1.00
H206   H     0.48985   0.45808   0.20829   0.00000  Uiso   1.00
H207   H     0.53181   0.39307   0.40577   0.00000  Uiso   1.00
H208   H     0.62236   0.40105   0.47712   0.00000  Uiso   1.00
H209   H     0.54261   0.53577   0.08625   0.00000  Uiso   1.00
H210   H     0.65143   0.54891   0.43236   0.00000  Uiso   1.00
H211   H     0.45209   0.53393   0.07359   0.00000  Uiso   1.00
H212   H     0.35926   0.56466   0.03333   0.00000  Uiso   1.00
N213   N     0.47827   0.48556   0.23543   0.00000  Uiso   1.00
N214   N     0.52173   0.51444   0.26458   0.00000  Uiso   1.00
O215   O     0.63102   0.57963   0.25358   0.00000  Uiso   1.00
O216   O     0.39075   0.57038   0.24424   0.00000  Uiso   1.00
O217   O     0.64823   0.50691   0.33380   0.00000  Uiso   1.00
O218   O     0.40796   0.49766   0.32446   0.00000  Uiso   1.00
O219   O     0.60925   0.42962   0.25577   0.00000  Uiso   1.00
O220   O     0.36898   0.42037   0.24643   0.00000  Uiso   1.00
O221   O     0.59204   0.50234   0.17554   0.00000  Uiso   1.00
O222   O     0.35177   0.49309   0.16620   0.00000  Uiso   1.00
O223   O     0.50731   0.55057   0.29982   0.00000  Uiso   1.00
Zn224  Zn    0.60453   0.50618   0.25624   0.00000  Uiso   1.00
Zn225  Zn    0.39547   0.49382   0.24377   0.00000  Uiso   1.00
C226   C     0.68153   0.59822   0.24875   0.00000  Uiso   1.00
C227   C     0.71971   0.50133   0.41607   0.00000  Uiso   1.00
C228   C     0.68931   0.65279   0.24817   0.00000  Uiso   1.00
C229   C     0.70198   0.50123   0.35515   0.00000  Uiso   1.00
C230   C     0.97756   0.34725   0.25252   0.00000  Uiso   1.00
C231   C     0.98521   0.40179   0.25149   0.00000  Uiso   1.00
C232   C     0.96415   0.49611   0.14484   0.00000  Uiso   1.00
C233   C     0.93683   0.42949   0.00106   0.00000  Uiso   1.00
C234   C     0.94334   0.48575   0.08492   0.00000  Uiso   1.00
C235   C     0.69111   0.53161   0.45009   0.00000  Uiso   1.00
C236   C     0.71494   0.54174   0.00692   0.00000  Uiso   1.00
C237   C     0.79882   0.49474   0.49497   0.00000  Uiso   1.00
C238   C     0.76889   0.52452   0.02924   0.00000  Uiso   1.00
C239   C     0.77023   0.47784   0.43995   0.00000  Uiso   1.00
C240   C     0.85627   0.48135   0.01332   0.00000  Uiso   1.00
C241   C     0.88063   0.44446   0.48111   0.00000  Uiso   1.00
C242   C     0.84805   0.42241   0.43021   0.00000  Uiso   1.00
C243   C     0.79346   0.43893   0.40972   0.00000  Uiso   1.00
C244   C     0.89057   0.50452   0.06261   0.00000  Uiso   1.00
C245   C     0.96766   0.44915   0.05379   0.00000  Uiso   1.00
H246   H     0.67552   0.43418   0.07117   0.00000  Uiso   1.00
H247   H     0.76934   0.42055   0.37020   0.00000  Uiso   1.00
H248   H     0.73182   0.33656   0.24405   0.00000  Uiso   1.00
H249   H     0.87817   0.56909   0.31879   0.00000  Uiso   1.00
H250   H     0.93508   0.66349   0.25672   0.00000  Uiso   1.00
H251   H     0.82318   0.45808   0.20829   0.00000  Uiso   1.00
H252   H     0.86514   0.39307   0.40577   0.00000  Uiso   1.00
H253   H     0.95570   0.40105   0.47712   0.00000  Uiso   1.00
H254   H     0.87594   0.53577   0.08625   0.00000  Uiso   1.00
H255   H     0.98476   0.54891   0.43236   0.00000  Uiso   1.00
H256   H     0.78543   0.53393   0.07359   0.00000  Uiso   1.00
H257   H     0.69259   0.56466   0.03333   0.00000  Uiso   1.00
N258   N     0.81160   0.48556   0.23543   0.00000  Uiso   1.00
N259   N     0.85507   0.51444   0.26458   0.00000  Uiso   1.00
O260   O     0.96435   0.57963   0.25358   0.00000  Uiso   1.00
O261   O     0.72408   0.57038   0.24424   0.00000  Uiso   1.00
O262   O     0.98157   0.50691   0.33380   0.00000  Uiso   1.00
O263   O     0.74130   0.49766   0.32446   0.00000  Uiso   1.00
O264   O     0.94258   0.42962   0.25577   0.00000  Uiso   1.00
O265   O     0.70231   0.42037   0.24643   0.00000  Uiso   1.00
O266   O     0.92537   0.50234   0.17554   0.00000  Uiso   1.00
O267   O     0.68510   0.49309   0.16620   0.00000  Uiso   1.00
O268   O     0.84065   0.55057   0.29982   0.00000  Uiso   1.00
Zn269  Zn    0.93786   0.50618   0.25624   0.00000  Uiso   1.00
Zn270  Zn    0.72881   0.49382   0.24377   0.00000  Uiso   1.00
C271   C     0.01486   0.93155   0.24875   0.00000  Uiso   1.00
C272   C     0.05304   0.83466   0.41607   0.00000  Uiso   1.00
C273   C     0.02265   0.98613   0.24817   0.00000  Uiso   1.00
C274   C     0.03531   0.83456   0.35515   0.00000  Uiso   1.00
C275   C     0.31090   0.68058   0.25252   0.00000  Uiso   1.00
C276   C     0.31854   0.73512   0.25149   0.00000  Uiso   1.00
C277   C     0.29749   0.82945   0.14484   0.00000  Uiso   1.00
C278   C     0.27016   0.76282   0.00106   0.00000  Uiso   1.00
C279   C     0.27667   0.81908   0.08492   0.00000  Uiso   1.00
C280   C     0.02445   0.86494   0.45009   0.00000  Uiso   1.00
C281   C     0.04827   0.87508   0.00692   0.00000  Uiso   1.00
C282   C     0.13215   0.82807   0.49497   0.00000  Uiso   1.00
C283   C     0.10222   0.85785   0.02924   0.00000  Uiso   1.00
C284   C     0.10357   0.81118   0.43995   0.00000  Uiso   1.00
C285   C     0.18961   0.81468   0.01332   0.00000  Uiso   1.00
C286   C     0.21396   0.77779   0.48111   0.00000  Uiso   1.00
C287   C     0.18139   0.75574   0.43021   0.00000  Uiso   1.00
C288   C     0.12679   0.77226   0.40972   0.00000  Uiso   1.00
C289   C     0.22391   0.83785   0.06261   0.00000  Uiso   1.00
C290   C     0.30100   0.78248   0.05379   0.00000  Uiso   1.00
H291   H     0.00886   0.76752   0.07117   0.00000  Uiso   1.00
H292   H     0.10267   0.75389   0.37020   0.00000  Uiso   1.00
H293   H     0.06515   0.66990   0.24405   0.00000  Uiso   1.00
H294   H     0.21150   0.90242   0.31879   0.00000  Uiso   1.00
H295   H     0.26842   0.99682   0.25672   0.00000  Uiso   1.00
H296   H     0.15651   0.79141   0.20829   0.00000  Uiso   1.00
H297   H     0.19847   0.72641   0.40577   0.00000  Uiso   1.00
H298   H     0.28903   0.73438   0.47712   0.00000  Uiso   1.00
H299   H     0.20927   0.86910   0.08625   0.00000  Uiso   1.00
H300   H     0.31810   0.88224   0.43236   0.00000  Uiso   1.00
H301   H     0.11876   0.86726   0.07359   0.00000  Uiso   1.00
H302   H     0.02592   0.89800   0.03333   0.00000  Uiso   1.00
N303   N     0.14493   0.81890   0.23543   0.00000  Uiso   1.00
N304   N     0.18840   0.84777   0.26458   0.00000  Uiso   1.00
O305   O     0.29769   0.91296   0.25358   0.00000  Uiso   1.00
O306   O     0.05742   0.90371   0.24424   0.00000  Uiso   1.00
O307   O     0.31490   0.84024   0.33380   0.00000  Uiso   1.00
O308   O     0.07463   0.83099   0.32446   0.00000  Uiso   1.00
O309   O     0.27592   0.76296   0.25577   0.00000  Uiso   1.00
O310   O     0.03565   0.75371   0.24643   0.00000  Uiso   1.00
O311   O     0.25870   0.83567   0.17554   0.00000  Uiso   1.00
O312   O     0.01843   0.82642   0.16620   0.00000  Uiso   1.00
O313   O     0.17398   0.88390   0.29982   0.00000  Uiso   1.00
Zn314  Zn    0.27119   0.83951   0.25624   0.00000  Uiso   1.00
Zn315  Zn    0.06214   0.82716   0.24377   0.00000  Uiso   1.00
C316   C     0.34820   0.93155   0.24875   0.00000  Uiso   1.00
C317   C     0.38637   0.83466   0.41607   0.00000  Uiso   1.00
C318   C     0.35598   0.98613   0.24817   0.00000  Uiso   1.00
C319   C     0.36865   0.83456   0.35515   0.00000  Uiso   1.00
C320   C     0.64423   0.68058   0.25252   0.00000  Uiso   1.00
C321   C     0.65188   0.73512   0.25149   0.00000  Uiso   1.00
C322   C     0.63082   0.82945   0.14484   0.00000  Uiso   1.00
C323   C     0.60350   0.76282   0.00106   0.00000  Uiso   1.00
C324   C     0.61000   0.81908   0.08492   0.00000  Uiso   1.00
C325   C     0.35778   0.86494   0.45009   0.00000  Uiso   1.00
C326   C     0.38161   0.87508   0.00692   0.00000  Uiso   1.00
C327   C     0.46549   0.82807   0.49497   0.00000  Uiso   1.00
C328   C     0.43556   0.85785   0.02924   0.00000  Uiso   1.00
C329   C     0.43690   0.81118   0.43995   0.00000  Uiso   1.00
C330   C     0.52294   0.81468   0.01332   0.00000  Uiso   1.00
C331   C     0.54729   0.77779   0.48111   0.00000  Uiso   1.00
C332   C     0.51472   0.75574   0.43021   0.00000  Uiso   1.00
C333   C     0.46012   0.77226   0.40972   0.00000  Uiso   1.00
C334   C     0.55724   0.83785   0.06261   0.00000  Uiso   1.00
C335   C     0.63433   0.78248   0.05379   0.00000  Uiso   1.00
H336   H     0.34219   0.76752   0.07117   0.00000  Uiso   1.00
H337   H     0.43601   0.75389   0.37020   0.00000  Uiso   1.00
H338   H     0.39848   0.66990   0.24405   0.00000  Uiso   1.00
H339   H     0.54483   0.90242   0.31879   0.00000  Uiso   1.00
H340   H     0.60175   0.99682   0.25672   0.00000  Uiso   1.00
H341   H     0.48985   0.79141   0.20829   0.00000  Uiso   1.00
H342   H     0.53181   0.72641   0.40577   0.00000  Uiso   1.00
H343   H     0.62236   0.73438   0.47712   0.00000  Uiso   1.00
H344   H     0.54261   0.86910   0.08625   0.00000  Uiso   1.00
H345   H     0.65143   0.88224   0.43236   0.00000  Uiso   1.00
H346   H     0.45209   0.86726   0.07359   0.00000  Uiso   1.00
H347   H     0.35926   0.89800   0.03333   0.00000  Uiso   1.00
N348   N     0.47827   0.81890   0.23543   0.00000  Uiso   1.00
N349   N     0.52173   0.84777   0.26458   0.00000  Uiso   1.00
O350   O     0.63102   0.91296   0.25358   0.00000  Uiso   1.00
O351   O     0.39075   0.90371   0.24424   0.00000  Uiso   1.00
O352   O     0.64823   0.84024   0.33380   0.00000  Uiso   1.00
O353   O     0.40796   0.83099   0.32446   0.00000  Uiso   1.00
O354   O     0.60925   0.76296   0.25577   0.00000  Uiso   1.00
O355   O     0.36898   0.75371   0.24643   0.00000  Uiso   1.00
O356   O     0.59204   0.83567   0.17554   0.00000  Uiso   1.00
O357   O     0.35177   0.82642   0.16620   0.00000  Uiso   1.00
O358   O     0.50731   0.88390   0.29982   0.00000  Uiso   1.00
Zn359  Zn    0.60453   0.83951   0.25624   0.00000  Uiso   1.00
Zn360  Zn    0.39547   0.82716   0.24377   0.00000  Uiso   1.00
C361   C     0.68153   0.93155   0.24875   0.00000  Uiso   1.00
C362   C     0.71971   0.83466   0.41607   0.00000  Uiso   1.00
C363   C     0.68931   0.98613   0.24817   0.00000  Uiso   1.00
C364   C     0.70198   0.83456   0.35515   0.00000  Uiso   1.00
C365   C     0.97756   0.68058   0.25252   0.00000  Uiso   1.00
C366   C     0.98521   0.73512   0.25149   0.00000  Uiso   1.00
C367   C     0.96415   0.82945   0.14484   0.00000  Uiso   1.00
C368   C     0.93683   0.76282   0.00106   0.00000  Uiso   1.00
C369   C     0.94334   0.81908   0.08492   0.00000  Uiso   1.00
C370   C     0.69111   0.86494   0.45009   0.00000  Uiso   1.00
C371   C     0.71494   0.87508   0.00692   0.00000  Uiso   1.00
C372   C     0.79882   0.82807   0.49497   0.00000  Uiso   1.00
C373   C     0.76889   0.85785   0.02924   0.00000  Uiso   1.00
C374   C     0.77023   0.81118   0.43995   0.00000  Uiso   1.00
C375   C     0.85627   0.81468   0.01332   0.00000  Uiso   1.00
C376   C     0.88063   0.77779   0.48111   0.00000  Uiso   1.00
C377   C     0.84805   0.75574   0.43021   0.00000  Uiso   1.00
C378   C     0.79346   0.77226   0.40972   0.00000  Uiso   1.00
C379   C     0.89057   0.83785   0.06261   0.00000  Uiso   1.00
C380   C     0.96766   0.78248   0.05379   0.00000  Uiso   1.00
H381   H     0.67552   0.76752   0.07117   0.00000  Uiso   1.00
H382   H     0.76934   0.75389   0.37020   0.00000  Uiso   1.00
H383   H     0.73182   0.66990   0.24405   0.00000  Uiso   1.00
H384   H     0.87817   0.90242   0.31879   0.00000  Uiso   1.00
H385   H     0.93508   0.99682   0.25672   0.00000  Uiso   1.00
H386   H     0.82318   0.79141   0.20829   0.00000  Uiso   1.00
H387   H     0.86514   0.72641   0.40577   0.00000  Uiso   1.00
H388   H     0.95570   0.73438   0.47712   0.00000  Uiso   1.00
H389   H     0.87594   0.86910   0.08625   0.00000  Uiso   1.00
H390   H     0.98476   0.88224   0.43236   0.00000  Uiso   1.00
H391   H     0.78543   0.86726   0.07359   0.00000  Uiso   1.00
H392   H     0.69259   0.89800   0.03333   0.00000  Uiso   1.00
N393   N     0.81160   0.81890   0.23543   0.00000  Uiso   1.00
N394   N     0.85507   0.84777   0.26458   0.00000  Uiso   1.00
O395   O     0.96435   0.91296   0.25358   0.00000  Uiso   1.00
O396   O     0.72408   0.90371   0.24424   0.00000  Uiso   1.00
O397   O     0.98157   0.84024   0.33380   0.00000  Uiso   1.00
O398   O     0.74130   0.83099   0.32446   0.00000  Uiso   1.00
O399   O     0.94258   0.76296   0.25577   0.00000  Uiso   1.00
O400   O     0.70231   0.75371   0.24643   0.00000  Uiso   1.00
O401   O     0.92537   0.83567   0.17554   0.00000  Uiso   1.00
O402   O     0.68510   0.82642   0.16620   0.00000  Uiso   1.00
O403   O     0.84065   0.88390   0.29982   0.00000  Uiso   1.00
Zn404  Zn    0.93786   0.83951   0.25624   0.00000  Uiso   1.00
Zn405  Zn    0.72881   0.82716   0.24377   0.00000  Uiso   1.00
C406   C     0.01486   0.26489   0.74875   0.00000  Uiso   1.00
C407   C     0.05304   0.16799   0.91607   0.00000  Uiso   1.00
C408   C     0.02265   0.31946   0.74817   0.00000  Uiso   1.00
C409   C     0.03531   0.16790   0.85515   0.00000  Uiso   1.00
C410   C     0.31090   0.01392   0.75252   0.00000  Uiso   1.00
C411   C     0.31854   0.06846   0.75149   0.00000  Uiso   1.00
C412   C     0.29749   0.16278   0.64484   0.00000  Uiso   1.00
C413   C     0.27016   0.09616   0.50106   0.00000  Uiso   1.00
C414   C     0.27667   0.15242   0.58492   0.00000  Uiso   1.00
C415   C     0.02445   0.19827   0.95009   0.00000  Uiso   1.00
C416   C     0.04827   0.20841   0.50692   0.00000  Uiso   1.00
C417   C     0.13215   0.16141   0.99497   0.00000  Uiso   1.00
C418   C     0.10222   0.19118   0.52924   0.00000  Uiso   1.00
C419   C     0.10357   0.14451   0.93995   0.00000  Uiso   1.00
C420   C     0.18961   0.14802   0.51332   0.00000  Uiso   1.00
C421   C     0.21396   0.11113   0.98111   0.00000  Uiso   1.00
C422   C     0.18139   0.08907   0.93021   0.00000  Uiso   1.00
C423   C     0.12679   0.10559   0.90972   0.00000  Uiso   1.00
C424   C     0.22391   0.17118   0.56261   0.00000  Uiso   1.00
C425   C     0.30100   0.11582   0.55379   0.00000  Uiso   1.00
H426   H     0.00886   0.10085   0.57117   0.00000  Uiso   1.00
H427   H     0.10267   0.08722   0.87020   0.00000  Uiso   1.00
H428   H     0.06515   0.00323   0.74405   0.00000  Uiso   1.00
H429   H     0.21150   0.23576   0.81879   0.00000  Uiso   1.00
H430   H     0.26842   0.33015   0.75672   0.00000  Uiso   1.00
H431   H     0.15651   0.12475   0.70829   0.00000  Uiso   1.00
H432   H     0.19847   0.05974   0.90577   0.00000  Uiso   1.00
H433   H     0.28903   0.06772   0.97712   0.00000  Uiso   1.00
H434   H     0.20927   0.20244   0.58625   0.00000  Uiso   1.00
H435   H     0.31810   0.21558   0.93236   0.00000  Uiso   1.00
H436   H     0.11876   0.20060   0.57359   0.00000  Uiso   1.00
H437   H     0.02592   0.23133   0.53333   0.00000  Uiso   1.00
N438   N     0.14493   0.15223   0.73543   0.00000  Uiso   1.00
N439   N     0.18840   0.18110   0.76458   0.00000  Uiso   1.00
O440   O     0.29769   0.24629   0.75358   0.00000  Uiso   1.00
O441   O     0.05742   0.23704   0.74424   0.00000  Uiso   1.00
O442   O     0.31490   0.17358   0.83380   0.00000  Uiso   1.00
O443   O     0.07463   0.16433   0.82446   0.00000  Uiso   1.00
O444   O     0.27592   0.09629   0.75577   0.00000  Uiso   1.00
O445   O     0.03565   0.08704   0.74643   0.00000  Uiso   1.00
O446   O     0.25870   0.16901   0.67554   0.00000  Uiso   1.00
O447   O     0.01843   0.15976   0.66620   0.00000  Uiso   1.00
O448   O     0.17398   0.21724   0.79982   0.00000  Uiso   1.00
Zn449  Zn    0.27119   0.17284   0.75624   0.00000  Uiso   1.00
Zn450  Zn    0.06214   0.16049   0.74377   0.00000  Uiso   1.00
C451   C     0.34820   0.26489   0.74875   0.00000  Uiso   1.00
C452   C     0.38637   0.16799   0.91607   0.00000  Uiso   1.00
C453   C     0.35598   0.31946   0.74817   0.00000  Uiso   1.00
C454   C     0.36865   0.16790   0.85515   0.00000  Uiso   1.00
C455   C     0.64423   0.01392   0.75252   0.00000  Uiso   1.00
C456   C     0.65188   0.06846   0.75149   0.00000  Uiso   1.00
C457   C     0.63082   0.16278   0.64484   0.00000  Uiso   1.00
C458   C     0.60350   0.09616   0.50106   0.00000  Uiso   1.00
C459   C     0.61000   0.15242   0.58492   0.00000  Uiso   1.00
C460   C     0.35778   0.19827   0.95009   0.00000  Uiso   1.00
C461   C     0.38161   0.20841   0.50692   0.00000  Uiso   1.00
C462   C     0.46549   0.16141   0.99497   0.00000  Uiso   1.00
C463   C     0.43556   0.19118   0.52924   0.00000  Uiso   1.00
C464   C     0.43690   0.14451   0.93995   0.00000  Uiso   1.00
C465   C     0.52294   0.14802   0.51332   0.00000  Uiso   1.00
C466   C     0.54729   0.11113   0.98111   0.00000  Uiso   1.00
C467   C     0.51472   0.08907   0.93021   0.00000  Uiso   1.00
C468   C     0.46012   0.10559   0.90972   0.00000  Uiso   1.00
C469   C     0.55724   0.17118   0.56261   0.00000  Uiso   1.00
C470   C     0.63433   0.11582   0.55379   0.00000  Uiso   1.00
H471   H     0.34219   0.10085   0.57117   0.00000  Uiso   1.00
H472   H     0.43601   0.08722   0.87020   0.00000  Uiso   1.00
H473   H     0.39848   0.00323   0.74405   0.00000  Uiso   1.00
H474   H     0.54483   0.23576   0.81879   0.00000  Uiso   1.00
H475   H     0.60175   0.33015   0.75672   0.00000  Uiso   1.00
H476   H     0.48985   0.12475   0.70829   0.00000  Uiso   1.00
H477   H     0.53181   0.05974   0.90577   0.00000  Uiso   1.00
H478   H     0.62236   0.06772   0.97712   0.00000  Uiso   1.00
H479   H     0.54261   0.20244   0.58625   0.00000  Uiso   1.00
H480   H     0.65143   0.21558   0.93236   0.00000  Uiso   1.00
H481   H     0.45209   0.20060   0.57359   0.00000  Uiso   1.00
H482   H     0.35926   0.23133   0.53333   0.00000  Uiso   1.00
N483   N     0.47827   0.15223   0.73543   0.00000  Uiso   1.00
N484   N     0.52173   0.18110   0.76458   0.00000  Uiso   1.00
O485   O     0.63102   0.24629   0.75358   0.00000  Uiso   1.00
O486   O     0.39075   0.23704   0.74424   0.00000  Uiso   1.00
O487   O     0.64823   0.17358   0.83380   0.00000  Uiso   1.00
O488   O     0.40796   0.16433   0.82446   0.00000  Uiso   1.00
O489   O     0.60925   0.09629   0.75577   0.00000  Uiso   1.00
O490   O     0.36898   0.08704   0.74643   0.00000  Uiso   1.00
O491   O     0.59204   0.16901   0.67554   0.00000  Uiso   1.00
O492   O     0.35177   0.15976   0.66620   0.00000  Uiso   1.00
O493   O     0.50731   0.21724   0.79982   0.00000  Uiso   1.00
Zn494  Zn    0.60453   0.17284   0.75624   0.00000  Uiso   1.00
Zn495  Zn    0.39547   0.16049   0.74377   0.00000  Uiso   1.00
C496   C     0.68153   0.26489   0.74875   0.00000  Uiso   1.00
C497   C     0.71971   0.16799   0.91607   0.00000  Uiso   1.00
C498   C     0.68931   0.31946   0.74817   0.00000  Uiso   1.00
C499   C     0.70198   0.16790   0.85515   0.00000  Uiso   1.00
C500   C     0.97756   0.01392   0.75252   0.00000  Uiso   1.00
C501   C     0.98521   0.06846   0.75149   0.00000  Uiso   1.00
C502   C     0.96415   0.16278   0.64484   0.00000  Uiso   1.00
C503   C     0.93683   0.09616   0.50106   0.00000  Uiso   1.00
C504   C     0.94334   0.15242   0.58492   0.00000  Uiso   1.00
C505   C     0.69111   0.19827   0.95009   0.00000  Uiso   1.00
C506   C     0.71494   0.20841   0.50692   0.00000  Uiso   1.00
C507   C     0.79882   0.16141   0.99497   0.00000  Uiso   1.00
C508   C     0.76889   0.19118   0.52924   0.00000  Uiso   1.00
C509   C     0.77023   0.14451   0.93995   0.00000  Uiso   1.00
C510   C     0.85627   0.14802   0.51332   0.00000  Uiso   1.00
C511   C     0.88063   0.11113   0.98111   0.00000  Uiso   1.00
C512   C     0.84805   0.08907   0.93021   0.00000  Uiso   1.00
C513   C     0.79346   0.10559   0.90972   0.00000  Uiso   1.00
C514   C     0.89057   0.17118   0.56261   0.00000  Uiso   1.00
C515   C     0.96766   0.11582   0.55379   0.00000  Uiso   1.00
H516   H     0.67552   0.10085   0.57117   0.00000  Uiso   1.00
H517   H     0.76934   0.08722   0.87020   0.00000  Uiso   1.00
H518   H     0.73182   0.00323   0.74405   0.00000  Uiso   1.00
H519   H     0.87817   0.23576   0.81879   0.00000  Uiso   1.00
H520   H     0.93508   0.33015   0.75672   0.00000  Uiso   1.00
H521   H     0.82318   0.12475   0.70829   0.00000  Uiso   1.00
H522   H     0.86514   0.05974   0.90577   0.00000  Uiso   1.00
H523   H     0.95570   0.06772   0.97712   0.00000  Uiso   1.00
H524   H     0.87594   0.20244   0.58625   0.00000  Uiso   1.00
H525   H     0.98476   0.21558   0.93236   0.00000  Uiso   1.00
H526   H     0.78543   0.20060   0.57359   0.00000  Uiso   1.00
H527   H     0.69259   0.23133   0.53333   0.00000  Uiso   1.00
N528   N     0.81160   0.15223   0.73543   0.00000  Uiso   1.00
N529   N     0.85507   0.18110   0.76458   0.00000  Uiso   1.00
O530   O     0.96435   0.24629   0.75358   0.00000  Uiso   1.00
O531   O     0.72408   0.23704   0.74424   0.00000  Uiso   1.00
O532   O     0.98157   0.17358   0.83380   0.00000  Uiso   1.00
O533   O     0.74130   0.16433   0.82446   0.00000  Uiso   1.00
O534   O     0.94258   0.09629   0.75577   0.00000  Uiso   1.00
O535   O     0.70231   0.08704   0.74643   0.00000  Uiso   1.00
O536   O     0.92537   0.16901   0.67554   0.00000  Uiso   1.00
O537   O     0.68510   0.15976   0.66620   0.00000  Uiso   1.00
O538   O     0.84065   0.21724   0.79982   0.00000  Uiso   1.00
Zn539  Zn    0.93786   0.17284   0.75624   0.00000  Uiso   1.00
Zn540  Zn    0.72881   0.16049   0.74377   0.00000  Uiso   1.00
C541   C     0.01486   0.59822   0.74875   0.00000  Uiso   1.00
C542   C     0.05304   0.50133   0.91607   0.00000  Uiso   1.00
C543   C     0.02265   0.65279   0.74817   0.00000  Uiso   1.00
C544   C     0.03531   0.50123   0.85515   0.00000  Uiso   1.00
C545   C     0.31090   0.34725   0.75252   0.00000  Uiso   1.00
C546   C     0.31854   0.40179   0.75149   0.00000  Uiso   1.00
C547   C     0.29749   0.49611   0.64484   0.00000  Uiso   1.00
C548   C     0.27016   0.42949   0.50106   0.00000  Uiso   1.00
C549   C     0.27667   0.48575   0.58492   0.00000  Uiso   1.00
C550   C     0.02445   0.53161   0.95009   0.00000  Uiso   1.00
C551   C     0.04827   0.54174   0.50692   0.00000  Uiso   1.00
C552   C     0.13215   0.49474   0.99497   0.00000  Uiso   1.00
C553   C     0.10222   0.52452   0.52924   0.00000  Uiso   1.00
C554   C     0.10357   0.47784   0.93995   0.00000  Uiso   1.00
C555   C     0.18961   0.48135   0.51332   0.00000  Uiso   1.00
C556   C     0.21396   0.44446   0.98111   0.00000  Uiso   1.00
C557   C     0.18139   0.42241   0.93021   0.00000  Uiso   1.00
C558   C     0.12679   0.43893   0.90972   0.00000  Uiso   1.00
C559   C     0.22391   0.50452   0.56261   0.00000  Uiso   1.00
C560   C     0.30100   0.44915   0.55379   0.00000  Uiso   1.00
H561   H     0.00886   0.43418   0.57117   0.00000  Uiso   1.00
H562   H     0.10267   0.42055   0.87020   0.00000  Uiso   1.00
H563   H     0.06515   0.33656   0.74405   0.00000  Uiso   1.00
H564   H     0.21150   0.56909   0.81879   0.00000  Uiso   1.00
H565   H     0.26842   0.66349   0.75672   0.00000  Uiso   1.00
H566   H     0.15651   0.45808   0.70829   0.00000  Uiso   1.00
H567   H     0.19847   0.39307   0.90577   0.00000  Uiso   1.00
H568   H     0.28903   0.40105   0.97712   0.00000  Uiso   1.00
H569   H     0.20927   0.53577   0.58625   0.00000  Uiso   1.00
H570   H     0.31810   0.54891   0.93236   0.00000  Uiso   1.00
H571   H     0.11876   0.53393   0.57359   0.00000  Uiso   1.00
H572   H     0.02592   0.56466   0.53333   0.00000  Uiso   1.00
N573   N     0.14493   0.48556   0.73543   0.00000  Uiso   1.00
N574   N     0.18840   0.51444   0.76458   0.00000  Uiso   1.00
O575   O     0.29769   0.57963   0.75358   0.00000  Uiso   1.00
O576   O     0.05742   0.57038   0.74424   0.00000  Uiso   1.00
O577   O     0.31490   0.50691   0.83380   0.00000  Uiso   1.00
O578   O     0.07463   0.49766   0.82446   0.00000  Uiso   1.00
O579   O     0.27592   0.42962   0.75577   0.00000  Uiso   1.00
O580   O     0.03565   0.42037   0.74643   0.00000  Uiso   1.00
O581   O     0.25870   0.50234   0.67554   0.00000  Uiso   1.00
O582   O     0.01843   0.49309   0.66620   0.00000  Uiso   1.00
O583   O     0.17398   0.55057   0.79982   0.00000  Uiso   1.00
Zn584  Zn    0.27119   0.50618   0.75624   0.00000  Uiso   1.00
Zn585  Zn    0.06214   0.49382   0.74377   0.00000  Uiso   1.00
C586   C     0.34820   0.59822   0.74875   0.00000  Uiso   1.00
C587   C     0.38637   0.50133   0.91607   0.00000  Uiso   1.00
C588   C     0.35598   0.65279   0.74817   0.00000  Uiso   1.00
C589   C     0.36865   0.50123   0.85515   0.00000  Uiso   1.00
C590   C     0.64423   0.34725   0.75252   0.00000  Uiso   1.00
C591   C     0.65188   0.40179   0.75149   0.00000  Uiso   1.00
C592   C     0.63082   0.49611   0.64484   0.00000  Uiso   1.00
C593   C     0.60350   0.42949   0.50106   0.00000  Uiso   1.00
C594   C     0.61000   0.48575   0.58492   0.00000  Uiso   1.00
C595   C     0.35778   0.53161   0.95009   0.00000  Uiso   1.00
C596   C     0.38161   0.54174   0.50692   0.00000  Uiso   1.00
C597   C     0.46549   0.49474   0.99497   0.00000  Uiso   1.00
C598   C     0.43556   0.52452   0.52924   0.00000  Uiso   1.00
C599   C     0.43690   0.47784   0.93995   0.00000  Uiso   1.00
C600   C     0.52294   0.48135   0.51332   0.00000  Uiso   1.00
C601   C     0.54729   0.44446   0.98111   0.00000  Uiso   1.00
C602   C     0.51472   0.42241   0.93021   0.00000  Uiso   1.00
C603   C     0.46012   0.43893   0.90972   0.00000  Uiso   1.00
C604   C     0.55724   0.50452   0.56261   0.00000  Uiso   1.00
C605   C     0.63433   0.44915   0.55379   0.00000  Uiso   1.00
H606   H     0.34219   0.43418   0.57117   0.00000  Uiso   1.00
H607   H     0.43601   0.42055   0.87020   0.00000  Uiso   1.00
H608   H     0.39848   0.33656   0.74405   0.00000  Uiso   1.00
H609   H     0.54483   0.56909   0.81879   0.00000  Uiso   1.00
H610   H     0.60175   0.66349   0.75672   0.00000  Uiso   1.00
H611   H     0.48985   0.45808   0.70829   0.00000  Uiso   1.00
H612   H     0.53181   0.39307   0.90577   0.00000  Uiso   1.00
H613   H     0.62236   0.40105   0.97712   0.00000  Uiso   1.00
H614   H     0.54261   0.53577   0.58625   0.00000  Uiso   1.00
H615   H     0.65143   0.54891   0.93236   0.00000  Uiso   1.00
H616   H     0.45209   0.53393   0.57359   0.00000  Uiso   1.00
H617   H     0.35926   0.56466   0.53333   0.00000  Uiso   1.00
N618   N     0.47827   0.48556   0.73543   0.00000  Uiso   1.00
N619   N     0.52173   0.51444   0.76458   0.00000  Uiso   1.00
O620   O     0.63102   0.57963   0.75358   0.00000  Uiso   1.00
O621   O     0.39075   0.57038   0.74424   0.00000  Uiso   1.00
O622   O     0.64823   0.50691   0.83380   0.00000  Uiso   1.00
O623   O     0.40796   0.49766   0.82446   0.00000  Uiso   1.00
O624   O     0.60925   0.42962   0.75577   0.00000  Uiso   1.00
O625   O     0.36898   0.42037   0.74643   0.00000  Uiso   1.00
O626   O     0.59204   0.50234   0.67554   0.00000  Uiso   1.00
O627   O     0.35177   0.49309   0.66620   0.00000  Uiso   1.00
O628   O     0.50731   0.55057   0.79982   0.00000  Uiso   1.00
Zn629  Zn    0.60453   0.50618   0.75624   0.00000  Uiso   1.00
Zn630  Zn    0.39547   0.49382   0.74377   0.00000  Uiso   1.00
C631   C     0.68153   0.59822   0.74875   0.00000  Uiso   1.00
C632   C     0.71971   0.50133   0.91607   0.00000  Uiso   1.00
C633   C     0.68931   0.65279   0.74817   0.00000  Uiso   1.00
C634   C     0.70198   0.50123   0.85515   0.00000  Uiso   1.00
C635   C     0.97756   0.34725   0.75252   0.00000  Uiso   1.00
C636   C     0.98521   0.40179   0.75149   0.00000  Uiso   1.00
C637   C     0.96415   0.49611   0.64484   0.00000  Uiso   1.00
C638   C     0.93683   0.42949   0.50106   0.00000  Uiso   1.00
C639   C     0.94334   0.48575   0.58492   0.00000  Uiso   1.00
C640   C     0.69111   0.53161   0.95009   0.00000  Uiso   1.00
C641   C     0.71494   0.54174   0.50692   0.00000  Uiso   1.00
C642   C     0.79882   0.49474   0.99497   0.00000  Uiso   1.00
C643   C     0.76889   0.52452   0.52924   0.00000  Uiso   1.00
C644   C     0.77023   0.47784   0.93995   0.00000  Uiso   1.00
C645   C     0.85627   0.48135   0.51332   0.00000  Uiso   1.00
C646   C     0.88063   0.44446   0.98111   0.00000  Uiso   1.00
C647   C     0.84805   0.42241   0.93021   0.00000  Uiso   1.00
C648   C     0.79346   0.43893   0.90972   0.00000  Uiso   1.00
C649   C     0.89057   0.50452   0.56261   0.00000  Uiso   1.00
C650   C     0.96766   0.44915   0.55379   0.00000  Uiso   1.00
H651   H     0.67552   0.43418   0.57117   0.00000  Uiso   1.00
H652   H     0.76934   0.42055   0.87020   0.00000  Uiso   1.00
H653   H     0.73182   0.33656   0.74405   0.00000  Uiso   1.00
H654   H     0.87817   0.56909   0.81879   0.00000  Uiso   1.00
H655   H     0.93508   0.66349   0.75672   0.00000  Uiso   1.00
H656   H     0.82318   0.45808   0.70829   0.00000  Uiso   1.00
H657   H     0.86514   0.39307   0.90577   0.00000  Uiso   1.00
H658   H     0.95570   0.40105   0.97712   0.00000  Uiso   1.00
H659   H     0.87594   0.53577   0.58625   0.00000  Uiso   1.00
H660   H     0.98476   0.54891   0.93236   0.00000  Uiso   1.00
H661   H     0.78543   0.53393   0.57359   0.00000  Uiso   1.00
H662   H     0.69259   0.56466   0.53333   0.00000  Uiso   1.00
N663   N     0.81160   0.48556   0.73543   0.00000  Uiso   1.00
N664   N     0.85507   0.51444   0.76458   0.00000  Uiso   1.00
O665   O     0.96435   0.57963   0.75358   0.00000  Uiso   1.00
O666   O     0.72408   0.57038   0.74424   0.00000  Uiso   1.00
O667   O     0.98157   0.50691   0.83380   0.00000  Uiso   1.00
O668   O     0.74130   0.49766   0.82446   0.00000  Uiso   1.00
O669   O     0.94258   0.42962   0.75577   0.00000  Uiso   1.00
O670   O     0.70231   0.42037   0.74643   0.00000  Uiso   1.00
O671   O     0.92537   0.50234   0.67554   0.00000  Uiso   1.00
O672   O     0.68510   0.49309   0.66620   0.00000  Uiso   1.00
O673   O     0.84065   0.55057   0.79982   0.00000  Uiso   1.00
Zn674  Zn    0.93786   0.50618   0.75624   0.00000  Uiso   1.00
Zn675  Zn    0.72881   0.49382   0.74377   0.00000  Uiso   1.00
C676   C     0.01486   0.93155   0.74875   0.00000  Uiso   1.00
C677   C     0.05304   0.83466   0.91607   0.00000  Uiso   1.00
C678   C     0.02265   0.98613   0.74817   0.00000  Uiso   1.00
C679   C     0.03531   0.83456   0.85515   0.00000  Uiso   1.00
C680   C     0.31090   0.68058   0.75252   0.00000  Uiso   1.00
C681   C     0.31854   0.73512   0.75149   0.00000  Uiso   1.00
C682   C     0.29749   0.82945   0.64484   0.00000  Uiso   1.00
C683   C     0.27016   0.76282   0.50106   0.00000  Uiso   1.00
C684   C     0.27667   0.81908   0.58492   0.00000  Uiso   1.00
C685   C     0.02445   0.86494   0.95009   0.00000  Uiso   1.00
C686   C     0.04827   0.87508   0.50692   0.00000  Uiso   1.00
C687   C     0.13215   0.82807   0.99497   0.00000  Uiso   1.00
C688   C     0.10222   0.85785   0.52924   0.00000  Uiso   1.00
C689   C     0.10357   0.81118   0.93995   0.00000  Uiso   1.00
C690   C     0.18961   0.81468   0.51332   0.00000  Uiso   1.00
C691   C     0.21396   0.77779   0.98111   0.00000  Uiso   1.00
C692   C     0.18139   0.75574   0.93021   0.00000  Uiso   1.00
C693   C     0.12679   0.77226   0.90972   0.00000  Uiso   1.00
C694   C     0.22391   0.83785   0.56261   0.00000  Uiso   1.00
C695   C     0.30100   0.78248   0.55379   0.00000  Uiso   1.00
H696   H     0.00886   0.76752   0.57117   0.00000  Uiso   1.00
H697   H     0.10267   0.75389   0.87020   0.00000  Uiso   1.00
H698   H     0.06515   0.66990   0.74405   0.00000  Uiso   1.00
H699   H     0.21150   0.90242   0.81879   0.00000  Uiso   1.00
H700   H     0.26842   0.99682   0.75672   0.00000  Uiso   1.00
H701   H     0.15651   0.79141   0.70829   0.00000  Uiso   1.00
H702   H     0.19847   0.72641   0.90577   0.00000  Uiso   1.00
H703   H     0.28903   0.73438   0.97712   0.00000  Uiso   1.00
H704   H     0.20927   0.86910   0.58625   0.00000  Uiso   1.00
H705   H     0.31810   0.88224   0.93236   0.00000  Uiso   1.00
H706   H     0.11876   0.86726   0.57359   0.00000  Uiso   1.00
H707   H     0.02592   0.89800   0.53333   0.00000  Uiso   1.00
N708   N     0.14493   0.81890   0.73543   0.00000  Uiso   1.00
N709   N     0.18840   0.84777   0.76458   0.00000  Uiso   1.00
O710   O     0.29769   0.91296   0.75358   0.00000  Uiso   1.00
O711   O     0.05742   0.90371   0.74424   0.00000  Uiso   1.00
O712   O     0.31490   0.84024   0.83380   0.00000  Uiso   1.00
O713   O     0.07463   0.83099   0.82446   0.00000  Uiso   1.00
O714   O     0.27592   0.76296   0.75577   0.00000  Uiso   1.00
O715   O     0.03565   0.75371   0.74643   0.00000  Uiso   1.00
O716   O     0.25870   0.83567   0.67554   0.00000  Uiso   1.00
O717   O     0.01843   0.82642   0.66620   0.00000  Uiso   1.00
O718   O     0.17398   0.88390   0.79982   0.00000  Uiso   1.00
Zn719  Zn    0.27119   0.83951   0.75624   0.00000  Uiso   1.00
Zn720  Zn    0.06214   0.82716   0.74377   0.00000  Uiso   1.00
C721   C     0.34820   0.93155   0.74875   0.00000  Uiso   1.00
C722   C     0.38637   0.83466   0.91607   0.00000  Uiso   1.00
C723   C     0.35598   0.98613   0.74817   0.00000  Uiso   1.00
C724   C     0.36865   0.83456   0.85515   0.00000  Uiso   1.00
C725   C     0.64423   0.68058   0.75252   0.00000  Uiso   1.00
C726   C     0.65188   0.73512   0.75149   0.00000  Uiso   1.00
C727   C     0.63082   0.82945   0.64484   0.00000  Uiso   1.00
C728   C     0.60350   0.76282   0.50106   0.00000  Uiso   1.00
C729   C     0.61000   0.81908   0.58492   0.00000  Uiso   1.00
C730   C     0.35778   0.86494   0.95009   0.00000  Uiso   1.00
C731   C     0.38161   0.87508   0.50692   0.00000  Uiso   1.00
C732   C     0.46549   0.82807   0.99497   0.00000  Uiso   1.00
C733   C     0.43556   0.85785   0.52924   0.00000  Uiso   1.00
C734   C     0.43690   0.81118   0.93995   0.00000  Uiso   1.00
C735   C     0.52294   0.81468   0.51332   0.00000  Uiso   1.00
C736   C     0.54729   0.77779   0.98111   0.00000  Uiso   1.00
C737   C     0.51472   0.75574   0.93021   0.00000  Uiso   1.00
C738   C     0.46012   0.77226   0.90972   0.00000  Uiso   1.00
C739   C     0.55724   0.83785   0.56261   0.00000  Uiso   1.00
C740   C     0.63433   0.78248   0.55379   0.00000  Uiso   1.00
H741   H     0.34219   0.76752   0.57117   0.00000  Uiso   1.00
H742   H     0.43601   0.75389   0.87020   0.00000  Uiso   1.00
H743   H     0.39848   0.66990   0.74405   0.00000  Uiso   1.00
H744   H     0.54483   0.90242   0.81879   0.00000  Uiso   1.00
H745   H     0.60175   0.99682   0.75672   0.00000  Uiso   1.00
H746   H     0.48985   0.79141   0.70829   0.00000  Uiso   1.00
H747   H     0.53181   0.72641   0.90577   0.00000  Uiso   1.00
H748   H     0.62236   0.73438   0.97712   0.00000  Uiso   1.00
H749   H     0.54261   0.86910   0.58625   0.00000  Uiso   1.00
H750   H     0.65143   0.88224   0.93236   0.00000  Uiso   1.00
H751   H     0.45209   0.86726   0.57359   0.00000  Uiso   1.00
H752   H     0.35926   0.89800   0.53333   0.00000  Uiso   1.00
N753   N     0.47827   0.81890   0.73543   0.00000  Uiso   1.00
N754   N     0.52173   0.84777   0.76458   0.00000  Uiso   1.00
O755   O     0.63102   0.91296   0.75358   0.00000  Uiso   1.00
O756   O     0.39075   0.90371   0.74424   0.00000  Uiso   1.00
O757   O     0.64823   0.84024   0.83380   0.00000  Uiso   1.00
O758   O     0.40796   0.83099   0.82446   0.00000  Uiso   1.00
O759   O     0.60925   0.76296   0.75577   0.00000  Uiso   1.00
O760   O     0.36898   0.75371   0.74643   0.00000  Uiso   1.00
O761   O     0.59204   0.83567   0.67554   0.00000  Uiso   1.00
O762   O     0.35177   0.82642   0.66620   0.00000  Uiso   1.00
O763   O     0.50731   0.88390   0.79982   0.00000  Uiso   1.00
Zn764  Zn    0.60453   0.83951   0.75624   0.00000  Uiso   1.00
Zn765  Zn    0.39547   0.82716   0.74377   0.00000  Uiso   1.00
C766   C     0.68153   0.93155   0.74875   0.00000  Uiso   1.00
C767   C     0.71971   0.83466   0.91607   0.00000  Uiso   1.00
C768   C     0.68931   0.98613   0.74817   0.00000  Uiso   1.00
C769   C     0.70198   0.83456   0.85515   0.00000  Uiso   1.00
C770   C     0.97756   0.68058   0.75252   0.00000  Uiso   1.00
C771   C     0.98521   0.73512   0.75149   0.00000  Uiso   1.00
C772   C     0.96415   0.82945   0.64484   0.00000  Uiso   1.00
C773   C     0.93683   0.76282   0.50106   0.00000  Uiso   1.00
C774   C     0.94334   0.81908   0.58492   0.00000  Uiso   1.00
C775   C     0.69111   0.86494   0.95009   0.00000  Uiso   1.00
C776   C     0.71494   0.87508   0.50692   0.00000  Uiso   1.00
C777   C     0.79882   0.82807   0.99497   0.00000  Uiso   1.00
C778   C     0.76889   0.85785   0.52924   0.00000  Uiso   1.00
C779   C     0.77023   0.81118   0.93995   0.00000  Uiso   1.00
C780   C     0.85627   0.81468   0.51332   0.00000  Uiso   1.00
C781   C     0.88063   0.77779   0.98111   0.00000  Uiso   1.00
C782   C     0.84805   0.75574   0.93021   0.00000  Uiso   1.00
C783   C     0.79346   0.77226   0.90972   0.00000  Uiso   1.00
C784   C     0.89057   0.83785   0.56261   0.00000  Uiso   1.00
C785   C     0.96766   0.78248   0.55379   0.00000  Uiso   1.00
H786   H     0.67552   0.76752   0.57117   0.00000  Uiso   1.00
H787   H     0.76934   0.75389   0.87020   0.00000  Uiso   1.00
H788   H     0.73182   0.66990   0.74405   0.00000  Uiso   1.00
H789   H     0.87817   0.90242   0.81879   0.00000  Uiso   1.00
H790   H     0.93508   0.99682   0.75672   0.00000  Uiso   1.00
H791   H     0.82318   0.79141   0.70829   0.00000  Uiso   1.00
H792   H     0.86514   0.72641   0.90577   0.00000  Uiso   1.00
H793   H     0.95570   0.73438   0.97712   0.00000  Uiso   1.00
H794   H     0.87594   0.86910   0.58625   0.00000  Uiso   1.00
H795   H     0.98476   0.88224   0.93236   0.00000  Uiso   1.00
H796   H     0.78543   0.86726   0.57359   0.00000  Uiso   1.00
H797   H     0.69259   0.89800   0.53333   0.00000  Uiso   1.00
N798   N     0.81160   0.81890   0.73543   0.00000  Uiso   1.00
N799   N     0.85507   0.84777   0.76458   0.00000  Uiso   1.00
O800   O     0.96435   0.91296   0.75358   0.00000  Uiso   1.00
O801   O     0.72408   0.90371   0.74424   0.00000  Uiso   1.00
O802   O     0.98157   0.84024   0.83380   0.00000  Uiso   1.00
O803   O     0.74130   0.83099   0.82446   0.00000  Uiso   1.00
O804   O     0.94258   0.76296   0.75577   0.00000  Uiso   1.00
O805   O     0.70231   0.75371   0.74643   0.00000  Uiso   1.00
O806   O     0.92537   0.83567   0.67554   0.00000  Uiso   1.00
O807   O     0.68510   0.82642   0.66620   0.00000  Uiso   1.00
O808   O     0.84065   0.88390   0.79982   0.00000  Uiso   1.00
Zn809  Zn    0.93786   0.83951   0.75624   0.00000  Uiso   1.00
Zn810  Zn    0.72881   0.82716   0.74377   0.00000  Uiso   1.00
loop_
_geom_bond_atom_site_label_1
_geom_bond_atom_site_label_2
_geom_bond_distance
_geom_bond_site_symmetry_2
_ccdc_geom_bond_type
C1     O36     1.290   .     A
C1     C3      1.402   .     S
C1     O125    1.278   1_455 S
C2     C4      1.452   .     S
C2     C14     1.406   .     A
C2     C10     1.403   .     A
C3     C230    1.338   1_455 S
C3     H158    1.088   .     S
C4     O38     1.299   .     A
C4     O127    1.291   1_455 S
C5     C6      1.402   .     S
C5     C318    1.338   1_545 S
C5     H295    1.088   1_545 S
C6     O39     1.290   .     A
C6     O85     1.278   .     S
C7     O41     1.297   .     A
C7     C9      1.444   .     S
C7     O87     1.291   .     S
C8     C20     1.394   .     A
C8     C421    1.404   1_554 S
C8     H433    1.084   1_554 S
C9     C20     1.400   .     A
C9     C19     1.383   .     A
C10    C416    1.387   .     S
C10    H120    1.083   1_455 S
C11    C13     1.391   .     A
C11    H32     1.083   .     S
C11    C415    1.387   1_554 S
C12    C14     1.405   .     A
C12    C418    1.420   .     S
C12    C420    1.410   .     S
C13    H31     1.079   .     S
C13    C417    1.420   1_554 S
C14    C18     1.415   .     A
C15    C19     1.387   .     A
C15    C417    1.410   1_554 S
C15    C421    1.421   1_554 S
C16    C17     1.392   .     A
C16    C413    1.404   .     S
C16    C420    1.421   .     S
C17    C18     1.387   .     A
C17    H27     1.084   .     S
C18    H22     1.082   .     S
C19    H29     1.080   .     S
C20    H66     1.083   .     S
H21    C110    1.083   1_455 S
H23    C273    1.088   1_545 S
H24    O43     0.990   .     S
H25    C140    1.088   .     S
H26    N33     1.029   .     S
H28    C413    1.084   .     S
H30    C55     1.083   .     S
N33    Zn45    2.022   .     S
N33    N34     1.288   .     D
N34    Zn44    2.022   .     S
N34    O43     1.338   .     S
O35    Zn44    1.953   .     S
O35    C46     1.278   .     S
O36    Zn45    1.978   .     S
O37    Zn44    1.956   .     S
O37    C49     1.291   .     S
O38    Zn45    1.915   .     S
O39    Zn44    1.978   .     S
O40    Zn45    1.953   .     S
O40    C96     1.278   1_455 S
O41    Zn44    1.915   .     S
O42    Zn45    1.956   .     S
O42    C97     1.291   1_455 S
C46    O81     1.290   .     A
C46    C48     1.402   .     S
C47    C49     1.452   .     S
C47    C59     1.406   .     A
C47    C55     1.403   .     A
C48    C140    1.338   .     S
C48    H203    1.088   .     S
C49    O83     1.299   .     A
C50    C51     1.402   .     S
C50    C363    1.338   1_545 S
C50    H340    1.088   1_545 S
C51    O84     1.290   .     A
C51    O130    1.278   .     S
C52    O86     1.297   .     A
C52    C54     1.444   .     S
C52    O132    1.291   .     S
C53    C65     1.394   .     A
C53    C466    1.404   1_554 S
C53    H478    1.084   1_554 S
C54    C65     1.400   .     A
C54    C64     1.383   .     A
C55    C461    1.387   .     S
C56    C58     1.391   .     A
C56    H77     1.083   .     S
C56    C460    1.387   1_554 S
C57    C59     1.405   .     A
C57    C463    1.420   .     S
C57    C465    1.410   .     S
C58    H76     1.079   .     S
C58    C462    1.420   1_554 S
C59    C63     1.415   .     A
C60    C64     1.387   .     A
C60    C462    1.410   1_554 S
C60    C466    1.421   1_554 S
C61    C62     1.392   .     A
C61    C458    1.404   .     S
C61    C465    1.421   .     S
C62    C63     1.387   .     A
C62    H72     1.084   .     S
C63    H67     1.082   .     S
C64    H74     1.080   .     S
C65    H111    1.083   .     S
H68    C318    1.088   1_545 S
H69    O88     0.990   .     S
H70    C185    1.088   .     S
H71    N78     1.029   .     S
H73    C458    1.084   .     S
H75    C100    1.083   .     S
N78    Zn90    2.022   .     S
N78    N79     1.288   .     D
N79    Zn89    2.022   .     S
N79    O88     1.338   .     S
O80    Zn89    1.953   .     S
O80    C91     1.278   .     S
O81    Zn90    1.978   .     S
O82    Zn89    1.956   .     S
O82    C94     1.291   .     S
O83    Zn90    1.915   .     S
O84    Zn89    1.978   .     S
O85    Zn90    1.953   .     S
O86    Zn89    1.915   .     S
O87    Zn90    1.956   .     S
C91    O126    1.290   .     A
C91    C93     1.402   .     S
C92    C94     1.452   .     S
C92    C104    1.406   .     A
C92    C100    1.403   .     A
C93    C185    1.338   .     S
C93    H248    1.088   .     S
C94    O128    1.299   .     A
C95    C96     1.402   .     S
C95    C273    1.338   1_645 S
C95    H385    1.088   1_545 S
C96    O129    1.290   .     A
C96    O40     1.278   1_655 S
C97    O131    1.297   .     A
C97    C99     1.444   .     S
C97    O42     1.291   1_655 S
C98    C110    1.394   .     A
C98    C511    1.404   1_554 S
C98    H523    1.084   1_554 S
C99    C110    1.400   .     A
C99    C109    1.383   .     A
C100   C506    1.387   .     S
C101   C103    1.391   .     A
C101   H122    1.083   .     S
C101   C505    1.387   1_554 S
C102   C104    1.405   .     A
C102   C508    1.420   .     S
C102   C510    1.410   .     S
C103   H121    1.079   .     S
C103   C507    1.420   1_554 S
C104   C108    1.415   .     A
C105   C109    1.387   .     A
C105   C507    1.410   1_554 S
C105   C511    1.421   1_554 S
C106   C107    1.392   .     A
C106   C503    1.404   .     S
C106   C510    1.421   .     S
C107   C108    1.387   .     A
C107   H117    1.084   .     S
C108   H112    1.082   .     S
C109   H119    1.080   .     S
C110   H21     1.083   1_655 S
H113   C363    1.088   1_545 S
H114   O133    0.990   .     S
H115   C230    1.088   .     S
H116   N123    1.029   .     S
H118   C503    1.084   .     S
H120   C10     1.083   1_655 S
N123   Zn135   2.022   .     S
N123   N124    1.288   .     D
N124   Zn134   2.022   .     S
N124   O133    1.338   .     S
O125   Zn134   1.953   .     S
O125   C1      1.278   1_655 S
O126   Zn135   1.978   .     S
O127   Zn134   1.956   .     S
O127   C4      1.291   1_655 S
O128   Zn135   1.915   .     S
O129   Zn134   1.978   .     S
O130   Zn135   1.953   .     S
O131   Zn134   1.915   .     S
O132   Zn135   1.956   .     S
C136   O171    1.290   .     A
C136   C138    1.402   .     S
C136   O260    1.278   1_455 S
C137   C139    1.452   .     S
C137   C149    1.406   .     A
C137   C145    1.403   .     A
C138   C365    1.338   1_455 S
C138   H293    1.088   .     S
C139   O173    1.299   .     A
C139   O262    1.291   1_455 S
C140   C141    1.402   .     S
C141   O174    1.290   .     A
C141   O220    1.278   .     S
C142   O176    1.297   .     A
C142   C144    1.444   .     S
C142   O222    1.291   .     S
C143   C155    1.394   .     A
C143   C556    1.404   1_554 S
C143   H568    1.084   1_554 S
C144   C155    1.400   .     A
C144   C154    1.383   .     A
C145   C551    1.387   .     S
C145   H255    1.083   1_455 S
C146   C148    1.391   .     A
C146   H167    1.083   .     S
C146   C550    1.387   1_554 S
C147   C149    1.405   .     A
C147   C553    1.420   .     S
C147   C555    1.410   .     S
C148   H166    1.079   .     S
C148   C552    1.420   1_554 S
C149   C153    1.415   .     A
C150   C154    1.387   .     A
C150   C552    1.410   1_554 S
C150   C556    1.421   1_554 S
C151   C152    1.392   .     A
C151   C548    1.404   .     S
C151   C555    1.421   .     S
C152   C153    1.387   .     A
C152   H162    1.084   .     S
C153   H157    1.082   .     S
C154   H164    1.080   .     S
C155   H201    1.083   .     S
H156   C245    1.083   1_455 S
H159   O178    0.990   .     S
H160   C275    1.088   .     S
H161   N168    1.029   .     S
H163   C548    1.084   .     S
H165   C190    1.083   .     S
N168   Zn180   2.022   .     S
N168   N169    1.288   .     D
N169   Zn179   2.022   .     S
N169   O178    1.338   .     S
O170   Zn179   1.953   .     S
O170   C181    1.278   .     S
O171   Zn180   1.978   .     S
O172   Zn179   1.956   .     S
O172   C184    1.291   .     S
O173   Zn180   1.915   .     S
O174   Zn179   1.978   .     S
O175   Zn180   1.953   .     S
O175   C231    1.278   1_455 S
O176   Zn179   1.915   .     S
O177   Zn180   1.956   .     S
O177   C232    1.291   1_455 S
C181   O216    1.290   .     A
C181   C183    1.402   .     S
C182   C184    1.452   .     S
C182   C194    1.406   .     A
C182   C190    1.403   .     A
C183   C275    1.338   .     S
C183   H338    1.088   .     S
C184   O218    1.299   .     A
C185   C186    1.402   .     S
C186   O219    1.290   .     A
C186   O265    1.278   .     S
C187   O221    1.297   .     A
C187   C189    1.444   .     S
C187   O267    1.291   .     S
C188   C200    1.394   .     A
C188   C601    1.404   1_554 S
C188   H613    1.084   1_554 S
C189   C200    1.400   .     A
C189   C199    1.383   .     A
C190   C596    1.387   .     S
C191   C193    1.391   .     A
C191   H212    1.083   .     S
C191   C595    1.387   1_554 S
C192   C194    1.405   .     A
C192   C598    1.420   .     S
C192   C600    1.410   .     S
C193   H211    1.079   .     S
C193   C597    1.420   1_554 S
C194   C198    1.415   .     A
C195   C199    1.387   .     A
C195   C597    1.410   1_554 S
C195   C601    1.421   1_554 S
C196   C197    1.392   .     A
C196   C593    1.404   .     S
C196   C600    1.421   .     S
C197   C198    1.387   .     A
C197   H207    1.084   .     S
C198   H202    1.082   .     S
C199   H209    1.080   .     S
C200   H246    1.083   .     S
H204   O223    0.990   .     S
H205   C320    1.088   .     S
H206   N213    1.029   .     S
H208   C593    1.084   .     S
H210   C235    1.083   .     S
N213   Zn225   2.022   .     S
N213   N214    1.288   .     D
N214   Zn224   2.022   .     S
N214   O223    1.338   .     S
O215   Zn224   1.953   .     S
O215   C226    1.278   .     S
O216   Zn225   1.978   .     S
O217   Zn224   1.956   .     S
O217   C229    1.291   .     S
O218   Zn225   1.915   .     S
O219   Zn224   1.978   .     S
O220   Zn225   1.953   .     S
O221   Zn224   1.915   .     S
O222   Zn225   1.956   .     S
C226   O261    1.290   .     A
C226   C228    1.402   .     S
C227   C229    1.452   .     S
C227   C239    1.406   .     A
C227   C235    1.403   .     A
C228   C320    1.338   .     S
C228   H383    1.088   .     S
C229   O263    1.299   .     A
C230   C231    1.402   .     S
C230   C3      1.338   1_655 S
C231   O264    1.290   .     A
C231   O175    1.278   1_655 S
C232   O266    1.297   .     A
C232   C234    1.444   .     S
C232   O177    1.291   1_655 S
C233   C245    1.394   .     A
C233   C646    1.404   1_554 S
C233   H658    1.084   1_554 S
C234   C245    1.400   .     A
C234   C244    1.383   .     A
C235   C641    1.387   .     S
C236   C238    1.391   .     A
C236   H257    1.083   .     S
C236   C640    1.387   1_554 S
C237   C239    1.405   .     A
C237   C643    1.420   .     S
C237   C645    1.410   .     S
C238   H256    1.079   .     S
C238   C642    1.420   1_554 S
C239   C243    1.415   .     A
C240   C244    1.387   .     A
C240   C642    1.410   1_554 S
C240   C646    1.421   1_554 S
C241   C242    1.392   .     A
C241   C638    1.404   .     S
C241   C645    1.421   .     S
C242   C243    1.387   .     A
C242   H252    1.084   .     S
C243   H247    1.082   .     S
C244   H254    1.080   .     S
C245   H156    1.083   1_655 S
H249   O268    0.990   .     S
H250   C365    1.088   .     S
H251   N258    1.029   .     S
H253   C638    1.084   .     S
H255   C145    1.083   1_655 S
N258   Zn270   2.022   .     S
N258   N259    1.288   .     D
N259   Zn269   2.022   .     S
N259   O268    1.338   .     S
O260   Zn269   1.953   .     S
O260   C136    1.278   1_655 S
O261   Zn270   1.978   .     S
O262   Zn269   1.956   .     S
O262   C139    1.291   1_655 S
O263   Zn270   1.915   .     S
O264   Zn269   1.978   .     S
O265   Zn270   1.953   .     S
O266   Zn269   1.915   .     S
O267   Zn270   1.956   .     S
C271   O306    1.290   .     A
C271   C273    1.402   .     S
C271   O395    1.278   1_455 S
C272   C274    1.452   .     S
C272   C284    1.406   .     A
C272   C280    1.403   .     A
C273   C95     1.338   1_465 S
C273   H23     1.088   1_565 S
C274   O308    1.299   .     A
C274   O397    1.291   1_455 S
C275   C276    1.402   .     S
C276   O309    1.290   .     A
C276   O355    1.278   .     S
C277   O311    1.297   .     A
C277   C279    1.444   .     S
C277   O357    1.291   .     S
C278   C290    1.394   .     A
C278   C691    1.404   1_554 S
C278   H703    1.084   1_554 S
C279   C290    1.400   .     A
C279   C289    1.383   .     A
C280   C686    1.387   .     S
C280   H390    1.083   1_455 S
C281   C283    1.391   .     A
C281   H302    1.083   .     S
C281   C685    1.387   1_554 S
C282   C284    1.405   .     A
C282   C688    1.420   .     S
C282   C690    1.410   .     S
C283   H301    1.079   .     S
C283   C687    1.420   1_554 S
C284   C288    1.415   .     A
C285   C289    1.387   .     A
C285   C687    1.410   1_554 S
C285   C691    1.421   1_554 S
C286   C287    1.392   .     A
C286   C683    1.404   .     S
C286   C690    1.421   .     S
C287   C288    1.387   .     A
C287   H297    1.084   .     S
C288   H292    1.082   .     S
C289   H299    1.080   .     S
C290   H336    1.083   .     S
H291   C380    1.083   1_455 S
H294   O313    0.990   .     S
H295   C5      1.088   1_565 S
H296   N303    1.029   .     S
H298   C683    1.084   .     S
H300   C325    1.083   .     S
N303   Zn315   2.022   .     S
N303   N304    1.288   .     D
N304   Zn314   2.022   .     S
N304   O313    1.338   .     S
O305   Zn314   1.953   .     S
O305   C316    1.278   .     S
O306   Zn315   1.978   .     S
O307   Zn314   1.956   .     S
O307   C319    1.291   .     S
O308   Zn315   1.915   .     S
O309   Zn314   1.978   .     S
O310   Zn315   1.953   .     S
O310   C366    1.278   1_455 S
O311   Zn314   1.915   .     S
O312   Zn315   1.956   .     S
O312   C367    1.291   1_455 S
C316   O351    1.290   .     A
C316   C318    1.402   .     S
C317   C319    1.452   .     S
C317   C329    1.406   .     A
C317   C325    1.403   .     A
C318   C5      1.338   1_565 S
C318   H68     1.088   1_565 S
C319   O353    1.299   .     A
C320   C321    1.402   .     S
C321   O354    1.290   .     A
C321   O400    1.278   .     S
C322   O356    1.297   .     A
C322   C324    1.444   .     S
C322   O402    1.291   .     S
C323   C335    1.394   .     A
C323   C736    1.404   1_554 S
C323   H748    1.084   1_554 S
C324   C335    1.400   .     A
C324   C334    1.383   .     A
C325   C731    1.387   .     S
C326   C328    1.391   .     A
C326   H347    1.083   .     S
C326   C730    1.387   1_554 S
C327   C329    1.405   .     A
C327   C733    1.420   .     S
C327   C735    1.410   .     S
C328   H346    1.079   .     S
C328   C732    1.420   1_554 S
C329   C333    1.415   .     A
C330   C334    1.387   .     A
C330   C732    1.410   1_554 S
C330   C736    1.421   1_554 S
C331   C332    1.392   .     A
C331   C728    1.404   .     S
C331   C735    1.421   .     S
C332   C333    1.387   .     A
C332   H342    1.084   .     S
C333   H337    1.082   .     S
C334   H344    1.080   .     S
C335   H381    1.083   .     S
H339   O358    0.990   .     S
H340   C50     1.088   1_565 S
H341   N348    1.029   .     S
H343   C728    1.084   .     S
H345   C370    1.083   .     S
N348   Zn360   2.022   .     S
N348   N349    1.288   .     D
N349   Zn359   2.022   .     S
N349   O358    1.338   .     S
O350   Zn359   1.953   .     S
O350   C361    1.278   .     S
O351   Zn360   1.978   .     S
O352   Zn359   1.956   .     S
O352   C364    1.291   .     S
O353   Zn360   1.915   .     S
O354   Zn359   1.978   .     S
O355   Zn360   1.953   .     S
O356   Zn359   1.915   .     S
O357   Zn360   1.956   .     S
C361   O396    1.290   .     A
C361   C363    1.402   .     S
C362   C364    1.452   .     S
C362   C374    1.406   .     A
C362   C370    1.403   .     A
C363   C50     1.338   1_565 S
C363   H113    1.088   1_565 S
C364   O398    1.299   .     A
C365   C366    1.402   .     S
C365   C138    1.338   1_655 S
C366   O399    1.290   .     A
C366   O310    1.278   1_655 S
C367   O401    1.297   .     A
C367   C369    1.444   .     S
C367   O312    1.291   1_655 S
C368   C380    1.394   .     A
C368   C781    1.404   1_554 S
C368   H793    1.084   1_554 S
C369   C380    1.400   .     A
C369   C379    1.383   .     A
C370   C776    1.387   .     S
C371   C373    1.391   .     A
C371   H392    1.083   .     S
C371   C775    1.387   1_554 S
C372   C374    1.405   .     A
C372   C778    1.420   .     S
C372   C780    1.410   .     S
C373   H391    1.079   .     S
C373   C777    1.420   1_554 S
C374   C378    1.415   .     A
C375   C379    1.387   .     A
C375   C777    1.410   1_554 S
C375   C781    1.421   1_554 S
C376   C377    1.392   .     A
C376   C773    1.404   .     S
C376   C780    1.421   .     S
C377   C378    1.387   .     A
C377   H387    1.084   .     S
C378   H382    1.082   .     S
C379   H389    1.080   .     S
C380   H291    1.083   1_655 S
H384   O403    0.990   .     S
H385   C95     1.088   1_565 S
H386   N393    1.029   .     S
H388   C773    1.084   .     S
H390   C280    1.083   1_655 S
N393   Zn405   2.022   .     S
N393   N394    1.288   .     D
N394   Zn404   2.022   .     S
N394   O403    1.338   .     S
O395   Zn404   1.953   .     S
O395   C271    1.278   1_655 S
O396   Zn405   1.978   .     S
O397   Zn404   1.956   .     S
O397   C274    1.291   1_655 S
O398   Zn405   1.915   .     S
O399   Zn404   1.978   .     S
O400   Zn405   1.953   .     S
O401   Zn404   1.915   .     S
O402   Zn405   1.956   .     S
C406   O441    1.290   .     A
C406   C408    1.402   .     S
C406   O530    1.278   1_455 S
C407   C409    1.452   .     S
C407   C419    1.406   .     A
C407   C415    1.403   .     A
C408   C635    1.338   1_455 S
C408   H563    1.088   .     S
C409   O443    1.299   .     A
C409   O532    1.291   1_455 S
C410   C411    1.402   .     S
C410   C723    1.338   1_545 S
C410   H700    1.088   1_545 S
C411   O444    1.290   .     A
C411   O490    1.278   .     S
C412   O446    1.297   .     A
C412   C414    1.444   .     S
C412   O492    1.291   .     S
C413   C425    1.394   .     A
C414   C425    1.400   .     A
C414   C424    1.383   .     A
C415   C11     1.387   1_556 S
C415   H525    1.083   1_455 S
C416   C418    1.391   .     A
C416   H437    1.083   .     S
C417   C419    1.405   .     A
C417   C13     1.420   1_556 S
C417   C15     1.410   1_556 S
C418   H436    1.079   .     S
C419   C423    1.415   .     A
C420   C424    1.387   .     A
C421   C422    1.392   .     A
C421   C8      1.404   1_556 S
C421   C15     1.421   1_556 S
C422   C423    1.387   .     A
C422   H432    1.084   .     S
C423   H427    1.082   .     S
C424   H434    1.080   .     S
C425   H471    1.083   .     S
H426   C515    1.083   1_455 S
H428   C678    1.088   1_545 S
H429   O448    0.990   .     S
H430   C545    1.088   .     S
H431   N438    1.029   .     S
H433   C8      1.084   1_556 S
H435   C460    1.083   .     S
N438   Zn450   2.022   .     S
N438   N439    1.288   .     D
N439   Zn449   2.022   .     S
N439   O448    1.338   .     S
O440   Zn449   1.953   .     S
O440   C451    1.278   .     S
O441   Zn450   1.978   .     S
O442   Zn449   1.956   .     S
O442   C454    1.291   .     S
O443   Zn450   1.915   .     S
O444   Zn449   1.978   .     S
O445   Zn450   1.953   .     S
O445   C501    1.278   1_455 S
O446   Zn449   1.915   .     S
O447   Zn450   1.956   .     S
O447   C502    1.291   1_455 S
C451   O486    1.290   .     A
C451   C453    1.402   .     S
C452   C454    1.452   .     S
C452   C464    1.406   .     A
C452   C460    1.403   .     A
C453   C545    1.338   .     S
C453   H608    1.088   .     S
C454   O488    1.299   .     A
C455   C456    1.402   .     S
C455   C768    1.338   1_545 S
C455   H745    1.088   1_545 S
C456   O489    1.290   .     A
C456   O535    1.278   .     S
C457   O491    1.297   .     A
C457   C459    1.444   .     S
C457   O537    1.291   .     S
C458   C470    1.394   .     A
C459   C470    1.400   .     A
C459   C469    1.383   .     A
C460   C56     1.387   1_556 S
C461   C463    1.391   .     A
C461   H482    1.083   .     S
C462   C464    1.405   .     A
C462   C58     1.420   1_556 S
C462   C60     1.410   1_556 S
C463   H481    1.079   .     S
C464   C468    1.415   .     A
C465   C469    1.387   .     A
C466   C467    1.392   .     A
C466   C53     1.404   1_556 S
C466   C60     1.421   1_556 S
C467   C468    1.387   .     A
C467   H477    1.084   .     S
C468   H472    1.082   .     S
C469   H479    1.080   .     S
C470   H516    1.083   .     S
H473   C723    1.088   1_545 S
H474   O493    0.990   .     S
H475   C590    1.088   .     S
H476   N483    1.029   .     S
H478   C53     1.084   1_556 S
H480   C505    1.083   .     S
N483   Zn495   2.022   .     S
N483   N484    1.288   .     D
N484   Zn494   2.022   .     S
N484   O493    1.338   .     S
O485   Zn494   1.953   .     S
O485   C496    1.278   .     S
O486   Zn495   1.978   .     S
O487   Zn494   1.956   .     S
O487   C499    1.291   .     S
O488   Zn495   1.915   .     S
O489   Zn494   1.978   .     S
O490   Zn495   1.953   .     S
O491   Zn494   1.915   .     S
O492   Zn495   1.956   .     S
C496   O531    1.290   .     A
C496   C498    1.402   .     S
C497   C499    1.452   .     S
C497   C509    1.406   .     A
C497   C505    1.403   .     A
C498   C590    1.338   .     S
C498   H653    1.088   .     S
C499   O533    1.299   .     A
C500   C501    1.402   .     S
C500   C678    1.338   1_645 S
C500   H790    1.088   1_545 S
C501   O534    1.290   .     A
C501   O445    1.278   1_655 S
C502   O536    1.297   .     A
C502   C504    1.444   .     S
C502   O447    1.291   1_655 S
C503   C515    1.394   .     A
C504   C515    1.400   .     A
C504   C514    1.383   .     A
C505   C101    1.387   1_556 S
C506   C508    1.391   .     A
C506   H527    1.083   .     S
C507   C509    1.405   .     A
C507   C103    1.420   1_556 S
C507   C105    1.410   1_556 S
C508   H526    1.079   .     S
C509   C513    1.415   .     A
C510   C514    1.387   .     A
C511   C512    1.392   .     A
C511   C98     1.404   1_556 S
C511   C105    1.421   1_556 S
C512   C513    1.387   .     A
C512   H522    1.084   .     S
C513   H517    1.082   .     S
C514   H524    1.080   .     S
C515   H426    1.083   1_655 S
H518   C768    1.088   1_545 S
H519   O538    0.990   .     S
H520   C635    1.088   .     S
H521   N528    1.029   .     S
H523   C98     1.084   1_556 S
H525   C415    1.083   1_655 S
N528   Zn540   2.022   .     S
N528   N529    1.288   .     D
N529   Zn539   2.022   .     S
N529   O538    1.338   .     S
O530   Zn539   1.953   .     S
O530   C406    1.278   1_655 S
O531   Zn540   1.978   .     S
O532   Zn539   1.956   .     S
O532   C409    1.291   1_655 S
O533   Zn540   1.915   .     S
O534   Zn539   1.978   .     S
O535   Zn540   1.953   .     S
O536   Zn539   1.915   .     S
O537   Zn540   1.956   .     S
C541   O576    1.290   .     A
C541   C543    1.402   .     S
C541   O665    1.278   1_455 S
C542   C544    1.452   .     S
C542   C554    1.406   .     A
C542   C550    1.403   .     A
C543   C770    1.338   1_455 S
C543   H698    1.088   .     S
C544   O578    1.299   .     A
C544   O667    1.291   1_455 S
C545   C546    1.402   .     S
C546   O579    1.290   .     A
C546   O625    1.278   .     S
C547   O581    1.297   .     A
C547   C549    1.444   .     S
C547   O627    1.291   .     S
C548   C560    1.394   .     A
C549   C560    1.400   .     A
C549   C559    1.383   .     A
C550   C146    1.387   1_556 S
C550   H660    1.083   1_455 S
C551   C553    1.391   .     A
C551   H572    1.083   .     S
C552   C554    1.405   .     A
C552   C148    1.420   1_556 S
C552   C150    1.410   1_556 S
C553   H571    1.079   .     S
C554   C558    1.415   .     A
C555   C559    1.387   .     A
C556   C557    1.392   .     A
C556   C143    1.404   1_556 S
C556   C150    1.421   1_556 S
C557   C558    1.387   .     A
C557   H567    1.084   .     S
C558   H562    1.082   .     S
C559   H569    1.080   .     S
C560   H606    1.083   .     S
H561   C650    1.083   1_455 S
H564   O583    0.990   .     S
H565   C680    1.088   .     S
H566   N573    1.029   .     S
H568   C143    1.084   1_556 S
H570   C595    1.083   .     S
N573   Zn585   2.022   .     S
N573   N574    1.288   .     D
N574   Zn584   2.022   .     S
N574   O583    1.338   .     S
O575   Zn584   1.953   .     S
O575   C586    1.278   .     S
O576   Zn585   1.978   .     S
O577   Zn584   1.956   .     S
O577   C589    1.291   .     S
O578   Zn585   1.915   .     S
O579   Zn584   1.978   .     S
O580   Zn585   1.953   .     S
O580   C636    1.278   1_455 S
O581   Zn584   1.915   .     S
O582   Zn585   1.956   .     S
O582   C637    1.291   1_455 S
C586   O621    1.290   .     A
C586   C588    1.402   .     S
C587   C589    1.452   .     S
C587   C599    1.406   .     A
C587   C595    1.403   .     A
C588   C680    1.338   .     S
C588   H743    1.088   .     S
C589   O623    1.299   .     A
C590   C591    1.402   .     S
C591   O624    1.290   .     A
C591   O670    1.278   .     S
C592   O626    1.297   .     A
C592   C594    1.444   .     S
C592   O672    1.291   .     S
C593   C605    1.394   .     A
C594   C605    1.400   .     A
C594   C604    1.383   .     A
C595   C191    1.387   1_556 S
C596   C598    1.391   .     A
C596   H617    1.083   .     S
C597   C599    1.405   .     A
C597   C193    1.420   1_556 S
C597   C195    1.410   1_556 S
C598   H616    1.079   .     S
C599   C603    1.415   .     A
C600   C604    1.387   .     A
C601   C602    1.392   .     A
C601   C188    1.404   1_556 S
C601   C195    1.421   1_556 S
C602   C603    1.387   .     A
C602   H612    1.084   .     S
C603   H607    1.082   .     S
C604   H614    1.080   .     S
C605   H651    1.083   .     S
H609   O628    0.990   .     S
H610   C725    1.088   .     S
H611   N618    1.029   .     S
H613   C188    1.084   1_556 S
H615   C640    1.083   .     S
N618   Zn630   2.022   .     S
N618   N619    1.288   .     D
N619   Zn629   2.022   .     S
N619   O628    1.338   .     S
O620   Zn629   1.953   .     S
O620   C631    1.278   .     S
O621   Zn630   1.978   .     S
O622   Zn629   1.956   .     S
O622   C634    1.291   .     S
O623   Zn630   1.915   .     S
O624   Zn629   1.978   .     S
O625   Zn630   1.953   .     S
O626   Zn629   1.915   .     S
O627   Zn630   1.956   .     S
C631   O666    1.290   .     A
C631   C633    1.402   .     S
C632   C634    1.452   .     S
C632   C644    1.406   .     A
C632   C640    1.403   .     A
C633   C725    1.338   .     S
C633   H788    1.088   .     S
C634   O668    1.299   .     A
C635   C636    1.402   .     S
C635   C408    1.338   1_655 S
C636   O669    1.290   .     A
C636   O580    1.278   1_655 S
C637   O671    1.297   .     A
C637   C639    1.444   .     S
C637   O582    1.291   1_655 S
C638   C650    1.394   .     A
C639   C650    1.400   .     A
C639   C649    1.383   .     A
C640   C236    1.387   1_556 S
C641   C643    1.391   .     A
C641   H662    1.083   .     S
C642   C644    1.405   .     A
C642   C238    1.420   1_556 S
C642   C240    1.410   1_556 S
C643   H661    1.079   .     S
C644   C648    1.415   .     A
C645   C649    1.387   .     A
C646   C647    1.392   .     A
C646   C233    1.404   1_556 S
C646   C240    1.421   1_556 S
C647   C648    1.387   .     A
C647   H657    1.084   .     S
C648   H652    1.082   .     S
C649   H659    1.080   .     S
C650   H561    1.083   1_655 S
H654   O673    0.990   .     S
H655   C770    1.088   .     S
H656   N663    1.029   .     S
H658   C233    1.084   1_556 S
H660   C550    1.083   1_655 S
N663   Zn675   2.022   .     S
N663   N664    1.288   .     D
N664   Zn674   2.022   .     S
N664   O673    1.338   .     S
O665   Zn674   1.953   .     S
O665   C541    1.278   1_655 S
O666   Zn675   1.978   .     S
O667   Zn674   1.956   .     S
O667   C544    1.291   1_655 S
O668   Zn675   1.915   .     S
O669   Zn674   1.978   .     S
O670   Zn675   1.953   .     S
O671   Zn674   1.915   .     S
O672   Zn675   1.956   .     S
C676   O711    1.290   .     A
C676   C678    1.402   .     S
C676   O800    1.278   1_455 S
C677   C679    1.452   .     S
C677   C689    1.406   .     A
C677   C685    1.403   .     A
C678   C500    1.338   1_465 S
C678   H428    1.088   1_565 S
C679   O713    1.299   .     A
C679   O802    1.291   1_455 S
C680   C681    1.402   .     S
C681   O714    1.290   .     A
C681   O760    1.278   .     S
C682   O716    1.297   .     A
C682   C684    1.444   .     S
C682   O762    1.291   .     S
C683   C695    1.394   .     A
C684   C695    1.400   .     A
C684   C694    1.383   .     A
C685   C281    1.387   1_556 S
C685   H795    1.083   1_455 S
C686   C688    1.391   .     A
C686   H707    1.083   .     S
C687   C689    1.405   .     A
C687   C283    1.420   1_556 S
C687   C285    1.410   1_556 S
C688   H706    1.079   .     S
C689   C693    1.415   .     A
C690   C694    1.387   .     A
C691   C692    1.392   .     A
C691   C278    1.404   1_556 S
C691   C285    1.421   1_556 S
C692   C693    1.387   .     A
C692   H702    1.084   .     S
C693   H697    1.082   .     S
C694   H704    1.080   .     S
C695   H741    1.083   .     S
H696   C785    1.083   1_455 S
H699   O718    0.990   .     S
H700   C410    1.088   1_565 S
H701   N708    1.029   .     S
H703   C278    1.084   1_556 S
H705   C730    1.083   .     S
N708   Zn720   2.022   .     S
N708   N709    1.288   .     D
N709   Zn719   2.022   .     S
N709   O718    1.338   .     S
O710   Zn719   1.953   .     S
O710   C721    1.278   .     S
O711   Zn720   1.978   .     S
O712   Zn719   1.956   .     S
O712   C724    1.291   .     S
O713   Zn720   1.915   .     S
O714   Zn719   1.978   .     S
O715   Zn720   1.953   .     S
O715   C771    1.278   1_455 S
O716   Zn719   1.915   .     S
O717   Zn720   1.956   .     S
O717   C772    1.291   1_455 S
C721   O756    1.290   .     A
C721   C723    1.402   .     S
C722   C724    1.452   .     S
C722   C734    1.406   .     A
C722   C730    1.403   .     A
C723   C410    1.338   1_565 S
C723   H473    1.088   1_565 S
C724   O758    1.299   .     A
C725   C726    1.402   .     S
C726   O759    1.290   .     A
C726   O805    1.278   .     S
C727   O761    1.297   .     A
C727   C729    1.444   .     S
C727   O807    1.291   .     S
C728   C740    1.394   .     A
C729   C740    1.400   .     A
C729   C739    1.383   .     A
C730   C326    1.387   1_556 S
C731   C733    1.391   .     A
C731   H752    1.083   .     S
C732   C734    1.405   .     A
C732   C328    1.420   1_556 S
C732   C330    1.410   1_556 S
C733   H751    1.079   .     S
C734   C738    1.415   .     A
C735   C739    1.387   .     A
C736   C737    1.392   .     A
C736   C323    1.404   1_556 S
C736   C330    1.421   1_556 S
C737   C738    1.387   .     A
C737   H747    1.084   .     S
C738   H742    1.082   .     S
C739   H749    1.080   .     S
C740   H786    1.083   .     S
H744   O763    0.990   .     S
H745   C455    1.088   1_565 S
H746   N753    1.029   .     S
H748   C323    1.084   1_556 S
H750   C775    1.083   .     S
N753   Zn765   2.022   .     S
N753   N754    1.288   .     D
N754   Zn764   2.022   .     S
N754   O763    1.338   .     S
O755   Zn764   1.953   .     S
O755   C766    1.278   .     S
O756   Zn765   1.978   .     S
O757   Zn764   1.956   .     S
O757   C769    1.291   .     S
O758   Zn765   1.915   .     S
O759   Zn764   1.978   .     S
O760   Zn765   1.953   .     S
O761   Zn764   1.915   .     S
O762   Zn765   1.956   .     S
C766   O801    1.290   .     A
C766   C768    1.402   .     S
C767   C769    1.452   .     S
C767   C779    1.406   .     A
C767   C775    1.403   .     A
C768   C455    1.338   1_565 S
C768   H518    1.088   1_565 S
C769   O803    1.299   .     A
C770   C771    1.402   .     S
C770   C543    1.338   1_655 S
C771   O804    1.290   .     A
C771   O715    1.278   1_655 S
C772   O806    1.297   .     A
C772   C774    1.444   .     S
C772   O717    1.291   1_655 S
C773   C785    1.394   .     A
C774   C785    1.400   .     A
C774   C784    1.383   .     A
C775   C371    1.387   1_556 S
C776   C778    1.391   .     A
C776   H797    1.083   .     S
C777   C779    1.405   .     A
C777   C373    1.420   1_556 S
C777   C375    1.410   1_556 S
C778   H796    1.079   .     S
C779   C783    1.415   .     A
C780   C784    1.387   .     A
C781   C782    1.392   .     A
C781   C368    1.404   1_556 S
C781   C375    1.421   1_556 S
C782   C783    1.387   .     A
C782   H792    1.084   .     S
C783   H787    1.082   .     S
C784   H794    1.080   .     S
C785   H696    1.083   1_655 S
H789   O808    0.990   .     S
H790   C500    1.088   1_565 S
H791   N798    1.029   .     S
H793   C368    1.084   1_556 S
H795   C685    1.083   1_655 S
N798   Zn810   2.022   .     S
N798   N799    1.288   .     D
N799   Zn809   2.022   .     S
N799   O808    1.338   .     S
O800   Zn809   1.953   .     S
O800   C676    1.278   1_655 S
O801   Zn810   1.978   .     S
O802   Zn809   1.956   .     S
O802   C679    1.291   1_655 S
O803   Zn810   1.915   .     S
O804   Zn809   1.978   .     S
O805   Zn810   1.953   .     S
O806   Zn809   1.915   .     S
O807   Zn810   1.956   .     S
