data_str_m3_o1_o18_pcu_sym.165
_audit_creation_date              2020-01-03
_audit_creation_method            'Materials Studio'
_symmetry_space_group_name_H-M    'P1'
_symmetry_Int_Tables_number       1
_symmetry_cell_setting            triclinic
loop_
_symmetry_equiv_pos_as_xyz
  x,y,z
_cell_length_a                    29.5537
_cell_length_b                    32.0136
_cell_length_c                    31.0482
_cell_angle_alpha                 89.5360
_cell_angle_beta                  67.0193
_cell_angle_gamma                 89.0346
loop_
_atom_site_label
_atom_site_type_symbol
_atom_site_fract_x
_atom_site_fract_y
_atom_site_fract_z
_atom_site_U_iso_or_equiv
_atom_site_adp_type
_atom_site_occupancy
O1     O     0.12846   0.22775   0.25001   0.00000  Uiso   1.00
O2     O     0.20488   0.10558   0.25000   0.00000  Uiso   1.00
O3     O     0.20490   0.22774   0.25000   0.00000  Uiso   1.00
O4     O     0.12843   0.10559   0.25000   0.00000  Uiso   1.00
C5     C     0.16378   0.24666   0.25557   0.00000  Uiso   1.00
C6     C     0.16502   0.08664   0.25549   0.00000  Uiso   1.00
O7     O     0.10661   0.16667   0.31613   0.00000  Uiso   1.00
O8     O     0.22672   0.16666   0.18388   0.00000  Uiso   1.00
O9     O     0.18305   0.16666   0.31612   0.00000  Uiso   1.00
O10    O     0.15028   0.16667   0.18388   0.00000  Uiso   1.00
C11    C     0.13576   0.16664   0.33803   0.00000  Uiso   1.00
C12    C     0.19757   0.16669   0.16197   0.00000  Uiso   1.00
Zn13   Zn    0.11562   0.16667   0.25000   0.00000  Uiso   1.00
Zn14   Zn    0.21771   0.16666   0.25000   0.00000  Uiso   1.00
C15    C     0.11593   0.16411   0.38875   0.00000  Uiso   1.00
C16    C     0.21738   0.16926   0.11123   0.00000  Uiso   1.00
C17    C     0.05933   0.13564   0.46148   0.00000  Uiso   1.00
C18    C     0.27394   0.19782   0.03852   0.00000  Uiso   1.00
C19    C     0.07206   0.14385   0.41412   0.00000  Uiso   1.00
C20    C     0.26123   0.18957   0.08587   0.00000  Uiso   1.00
C21    C     0.14552   0.17777   0.41093   0.00000  Uiso   1.00
C22    C     0.18779   0.15561   0.08904   0.00000  Uiso   1.00
C23    C     0.13676   0.16590   0.45685   0.00000  Uiso   1.00
C24    C     0.19651   0.16760   0.04315   0.00000  Uiso   1.00
C25    C     0.09192   0.14537   0.48303   0.00000  Uiso   1.00
C26    C     0.24134   0.18814   0.01698   0.00000  Uiso   1.00
C27    C     0.17212   0.17282   0.47656   0.00000  Uiso   1.00
C28    C     0.16112   0.16074   0.02345   0.00000  Uiso   1.00
C29    C     0.11463   0.14309   0.04957   0.00000  Uiso   1.00
C30    C     0.21858   0.19053   0.45047   0.00000  Uiso   1.00
C31    C     0.08109   0.13464   0.02973   0.00000  Uiso   1.00
C32    C     0.25214   0.19893   0.47029   0.00000  Uiso   1.00
H33    H     0.15703   0.13681   0.10957   0.00000  Uiso   1.00
H34    H     0.17634   0.19646   0.39036   0.00000  Uiso   1.00
H35    H     0.28484   0.20001   0.10283   0.00000  Uiso   1.00
H36    H     0.04843   0.13343   0.39717   0.00000  Uiso   1.00
H37    H     0.02499   0.12010   0.48020   0.00000  Uiso   1.00
H38    H     0.30828   0.21338   0.01980   0.00000  Uiso   1.00
H39    H     0.10242   0.13525   0.08601   0.00000  Uiso   1.00
H40    H     0.23077   0.19847   0.41406   0.00000  Uiso   1.00
C41    C     0.19346   0.30940   0.28070   0.00000  Uiso   1.00
C42    C     0.11471   0.02383   0.28079   0.00000  Uiso   1.00
C43    C     0.20009   0.01901   0.27337   0.00000  Uiso   1.00
C44    C     0.11398   0.31421   0.27367   0.00000  Uiso   1.00
C45    C     0.16069   0.04275   0.26922   0.00000  Uiso   1.00
C46    C     0.15685   0.29050   0.26935   0.00000  Uiso   1.00
C47    C     0.32606   0.16694   0.20889   0.00000  Uiso   1.00
C48    C     0.00726   0.16683   0.29106   0.00000  Uiso   1.00
H49    H     0.32142   0.16703   0.17602   0.00000  Uiso   1.00
H50    H     0.01188   0.16699   0.32394   0.00000  Uiso   1.00
C51    C     0.04060   0.16639   0.20888   0.00000  Uiso   1.00
C52    C     0.29278   0.16658   0.29107   0.00000  Uiso   1.00
H53    H     0.07167   0.16625   0.17574   0.00000  Uiso   1.00
H54    H     0.26172   0.16646   0.32423   0.00000  Uiso   1.00
N55    N     0.04759   0.16668   0.25001   0.00000  Uiso   1.00
N56    N     0.28574   0.16666   0.24999   0.00000  Uiso   1.00
I57    I     0.01541   0.10428   0.07360   0.00000  Uiso   1.00
I58    I     0.31782   0.22931   0.42641   0.00000  Uiso   1.00
I59    I     0.23077   0.27499   0.31773   0.00000  Uiso   1.00
I60    I     0.04711   0.05826   0.31775   0.00000  Uiso   1.00
C61    C     0.24893   0.03748   0.26917   0.00000  Uiso   1.00
C62    C     0.28448   0.04149   0.21764   0.00000  Uiso   1.00
C63    C     0.00061   0.05797   0.21399   0.00000  Uiso   1.00
H64    H     0.32868   0.08773   0.23321   0.00000  Uiso   1.00
H65    H     0.01842   0.03567   0.23003   0.00000  Uiso   1.00
H66    H     0.02507   0.06290   0.17675   0.00000  Uiso   1.00
H67    H     0.29016   0.01050   0.20036   0.00000  Uiso   1.00
H68    H     0.26950   0.06263   0.19784   0.00000  Uiso   1.00
H69    H     0.24343   0.06732   0.28855   0.00000  Uiso   1.00
H70    H     0.26767   0.01795   0.28679   0.00000  Uiso   1.00
C71    C     0.06847   0.29571   0.26976   0.00000  Uiso   1.00
C72    C     0.07489   0.29188   0.21831   0.00000  Uiso   1.00
C73    C     0.02832   0.27544   0.21486   0.00000  Uiso   1.00
H74    H     0.01779   0.24567   0.23418   0.00000  Uiso   1.00
H75    H     0.33077   0.29778   0.23082   0.00000  Uiso   1.00
H76    H     0.03432   0.27050   0.17766   0.00000  Uiso   1.00
H77    H     0.08337   0.32291   0.20102   0.00000  Uiso   1.00
H78    H     0.10607   0.27081   0.19837   0.00000  Uiso   1.00
H79    H     0.05825   0.26578   0.28912   0.00000  Uiso   1.00
H80    H     0.03526   0.31514   0.28758   0.00000  Uiso   1.00
O81    O     0.46179   0.22775   0.25001   0.00000  Uiso   1.00
O82    O     0.53821   0.10558   0.25000   0.00000  Uiso   1.00
O83    O     0.53823   0.22774   0.25000   0.00000  Uiso   1.00
O84    O     0.46177   0.10559   0.25000   0.00000  Uiso   1.00
C85    C     0.49712   0.24666   0.25557   0.00000  Uiso   1.00
C86    C     0.49835   0.08664   0.25549   0.00000  Uiso   1.00
O87    O     0.43994   0.16667   0.31613   0.00000  Uiso   1.00
O88    O     0.56006   0.16666   0.18388   0.00000  Uiso   1.00
O89    O     0.51639   0.16666   0.31612   0.00000  Uiso   1.00
O90    O     0.48361   0.16667   0.18388   0.00000  Uiso   1.00
C91    C     0.46910   0.16664   0.33803   0.00000  Uiso   1.00
C92    C     0.53090   0.16669   0.16197   0.00000  Uiso   1.00
Zn93   Zn    0.44896   0.16667   0.25000   0.00000  Uiso   1.00
Zn94   Zn    0.55104   0.16666   0.25000   0.00000  Uiso   1.00
C95    C     0.44927   0.16411   0.38875   0.00000  Uiso   1.00
C96    C     0.55071   0.16926   0.11123   0.00000  Uiso   1.00
C97    C     0.39267   0.13564   0.46148   0.00000  Uiso   1.00
C98    C     0.60727   0.19782   0.03852   0.00000  Uiso   1.00
C99    C     0.40539   0.14385   0.41412   0.00000  Uiso   1.00
C100   C     0.59457   0.18957   0.08587   0.00000  Uiso   1.00
C101   C     0.47885   0.17777   0.41093   0.00000  Uiso   1.00
C102   C     0.52112   0.15561   0.08904   0.00000  Uiso   1.00
C103   C     0.47009   0.16590   0.45685   0.00000  Uiso   1.00
C104   C     0.52984   0.16760   0.04315   0.00000  Uiso   1.00
C105   C     0.42525   0.14537   0.48303   0.00000  Uiso   1.00
C106   C     0.57467   0.18814   0.01698   0.00000  Uiso   1.00
C107   C     0.50545   0.17282   0.47656   0.00000  Uiso   1.00
C108   C     0.49446   0.16074   0.02345   0.00000  Uiso   1.00
C109   C     0.44796   0.14309   0.04957   0.00000  Uiso   1.00
C110   C     0.55192   0.19053   0.45047   0.00000  Uiso   1.00
C111   C     0.41442   0.13464   0.02973   0.00000  Uiso   1.00
C112   C     0.58547   0.19893   0.47029   0.00000  Uiso   1.00
H113   H     0.49036   0.13681   0.10957   0.00000  Uiso   1.00
H114   H     0.50967   0.19646   0.39036   0.00000  Uiso   1.00
H115   H     0.61818   0.20001   0.10283   0.00000  Uiso   1.00
H116   H     0.38176   0.13343   0.39717   0.00000  Uiso   1.00
H117   H     0.35832   0.12010   0.48020   0.00000  Uiso   1.00
H118   H     0.64161   0.21338   0.01980   0.00000  Uiso   1.00
H119   H     0.43575   0.13525   0.08601   0.00000  Uiso   1.00
H120   H     0.56410   0.19847   0.41406   0.00000  Uiso   1.00
C121   C     0.52679   0.30940   0.28070   0.00000  Uiso   1.00
C122   C     0.44804   0.02383   0.28079   0.00000  Uiso   1.00
C123   C     0.53343   0.01901   0.27337   0.00000  Uiso   1.00
C124   C     0.44732   0.31421   0.27367   0.00000  Uiso   1.00
C125   C     0.49402   0.04275   0.26922   0.00000  Uiso   1.00
C126   C     0.49018   0.29050   0.26935   0.00000  Uiso   1.00
C127   C     0.65940   0.16694   0.20889   0.00000  Uiso   1.00
C128   C     0.34059   0.16683   0.29106   0.00000  Uiso   1.00
H129   H     0.65475   0.16703   0.17602   0.00000  Uiso   1.00
H130   H     0.34521   0.16699   0.32394   0.00000  Uiso   1.00
C131   C     0.37393   0.16639   0.20888   0.00000  Uiso   1.00
C132   C     0.62611   0.16658   0.29107   0.00000  Uiso   1.00
H133   H     0.40501   0.16625   0.17574   0.00000  Uiso   1.00
H134   H     0.59505   0.16646   0.32423   0.00000  Uiso   1.00
N135   N     0.38093   0.16668   0.25001   0.00000  Uiso   1.00
N136   N     0.61907   0.16666   0.24999   0.00000  Uiso   1.00
I137   I     0.34875   0.10428   0.07360   0.00000  Uiso   1.00
I138   I     0.65116   0.22931   0.42641   0.00000  Uiso   1.00
I139   I     0.56410   0.27499   0.31773   0.00000  Uiso   1.00
I140   I     0.38044   0.05826   0.31775   0.00000  Uiso   1.00
C141   C     0.58226   0.03748   0.26917   0.00000  Uiso   1.00
C142   C     0.61782   0.04149   0.21764   0.00000  Uiso   1.00
C143   C     0.33394   0.05797   0.21399   0.00000  Uiso   1.00
H144   H     0.66201   0.08773   0.23321   0.00000  Uiso   1.00
H145   H     0.35175   0.03567   0.23003   0.00000  Uiso   1.00
H146   H     0.35840   0.06290   0.17675   0.00000  Uiso   1.00
H147   H     0.62350   0.01050   0.20036   0.00000  Uiso   1.00
H148   H     0.60284   0.06263   0.19784   0.00000  Uiso   1.00
H149   H     0.57676   0.06732   0.28855   0.00000  Uiso   1.00
H150   H     0.60101   0.01795   0.28679   0.00000  Uiso   1.00
C151   C     0.40180   0.29571   0.26976   0.00000  Uiso   1.00
C152   C     0.40822   0.29188   0.21831   0.00000  Uiso   1.00
C153   C     0.36165   0.27544   0.21486   0.00000  Uiso   1.00
H154   H     0.35113   0.24567   0.23418   0.00000  Uiso   1.00
H155   H     0.66410   0.29778   0.23082   0.00000  Uiso   1.00
H156   H     0.36765   0.27050   0.17766   0.00000  Uiso   1.00
H157   H     0.41670   0.32291   0.20102   0.00000  Uiso   1.00
H158   H     0.43940   0.27081   0.19837   0.00000  Uiso   1.00
H159   H     0.39158   0.26578   0.28912   0.00000  Uiso   1.00
H160   H     0.36860   0.31514   0.28758   0.00000  Uiso   1.00
O161   O     0.79512   0.22775   0.25001   0.00000  Uiso   1.00
O162   O     0.87154   0.10558   0.25000   0.00000  Uiso   1.00
O163   O     0.87157   0.22774   0.25000   0.00000  Uiso   1.00
O164   O     0.79510   0.10559   0.25000   0.00000  Uiso   1.00
C165   C     0.83045   0.24666   0.25557   0.00000  Uiso   1.00
C166   C     0.83168   0.08664   0.25549   0.00000  Uiso   1.00
O167   O     0.77328   0.16667   0.31613   0.00000  Uiso   1.00
O168   O     0.89339   0.16666   0.18388   0.00000  Uiso   1.00
O169   O     0.84972   0.16666   0.31612   0.00000  Uiso   1.00
O170   O     0.81695   0.16667   0.18388   0.00000  Uiso   1.00
C171   C     0.80243   0.16664   0.33803   0.00000  Uiso   1.00
C172   C     0.86423   0.16669   0.16197   0.00000  Uiso   1.00
Zn173  Zn    0.78229   0.16667   0.25000   0.00000  Uiso   1.00
Zn174  Zn    0.88438   0.16666   0.25000   0.00000  Uiso   1.00
C175   C     0.78260   0.16411   0.38875   0.00000  Uiso   1.00
C176   C     0.88405   0.16926   0.11123   0.00000  Uiso   1.00
C177   C     0.72600   0.13564   0.46148   0.00000  Uiso   1.00
C178   C     0.94061   0.19782   0.03852   0.00000  Uiso   1.00
C179   C     0.73872   0.14385   0.41412   0.00000  Uiso   1.00
C180   C     0.92790   0.18957   0.08587   0.00000  Uiso   1.00
C181   C     0.81219   0.17777   0.41093   0.00000  Uiso   1.00
C182   C     0.85446   0.15561   0.08904   0.00000  Uiso   1.00
C183   C     0.80342   0.16590   0.45685   0.00000  Uiso   1.00
C184   C     0.86317   0.16760   0.04315   0.00000  Uiso   1.00
C185   C     0.75858   0.14537   0.48303   0.00000  Uiso   1.00
C186   C     0.90801   0.18814   0.01698   0.00000  Uiso   1.00
C187   C     0.83878   0.17282   0.47656   0.00000  Uiso   1.00
C188   C     0.82779   0.16074   0.02345   0.00000  Uiso   1.00
C189   C     0.78130   0.14309   0.04957   0.00000  Uiso   1.00
C190   C     0.88525   0.19053   0.45047   0.00000  Uiso   1.00
C191   C     0.74776   0.13464   0.02973   0.00000  Uiso   1.00
C192   C     0.91881   0.19893   0.47029   0.00000  Uiso   1.00
H193   H     0.82370   0.13681   0.10957   0.00000  Uiso   1.00
H194   H     0.84300   0.19646   0.39036   0.00000  Uiso   1.00
H195   H     0.95151   0.20001   0.10283   0.00000  Uiso   1.00
H196   H     0.71510   0.13343   0.39717   0.00000  Uiso   1.00
H197   H     0.69165   0.12010   0.48020   0.00000  Uiso   1.00
H198   H     0.97494   0.21338   0.01980   0.00000  Uiso   1.00
H199   H     0.76909   0.13525   0.08601   0.00000  Uiso   1.00
H200   H     0.89743   0.19847   0.41406   0.00000  Uiso   1.00
C201   C     0.86013   0.30940   0.28070   0.00000  Uiso   1.00
C202   C     0.78138   0.02383   0.28079   0.00000  Uiso   1.00
C203   C     0.86676   0.01901   0.27337   0.00000  Uiso   1.00
C204   C     0.78065   0.31421   0.27367   0.00000  Uiso   1.00
C205   C     0.82735   0.04275   0.26922   0.00000  Uiso   1.00
C206   C     0.82352   0.29050   0.26935   0.00000  Uiso   1.00
C207   C     0.99273   0.16694   0.20889   0.00000  Uiso   1.00
C208   C     0.67392   0.16683   0.29106   0.00000  Uiso   1.00
H209   H     0.98809   0.16703   0.17602   0.00000  Uiso   1.00
H210   H     0.67855   0.16699   0.32394   0.00000  Uiso   1.00
C211   C     0.70727   0.16639   0.20888   0.00000  Uiso   1.00
C212   C     0.95945   0.16658   0.29107   0.00000  Uiso   1.00
H213   H     0.73834   0.16625   0.17574   0.00000  Uiso   1.00
H214   H     0.92838   0.16646   0.32423   0.00000  Uiso   1.00
N215   N     0.71426   0.16668   0.25001   0.00000  Uiso   1.00
N216   N     0.95241   0.16666   0.24999   0.00000  Uiso   1.00
I217   I     0.68208   0.10428   0.07360   0.00000  Uiso   1.00
I218   I     0.98449   0.22931   0.42641   0.00000  Uiso   1.00
I219   I     0.89744   0.27499   0.31773   0.00000  Uiso   1.00
I220   I     0.71378   0.05826   0.31775   0.00000  Uiso   1.00
C221   C     0.91560   0.03748   0.26917   0.00000  Uiso   1.00
C222   C     0.95115   0.04149   0.21764   0.00000  Uiso   1.00
C223   C     0.66727   0.05797   0.21399   0.00000  Uiso   1.00
H224   H     0.99535   0.08773   0.23321   0.00000  Uiso   1.00
H225   H     0.68508   0.03567   0.23003   0.00000  Uiso   1.00
H226   H     0.69174   0.06290   0.17675   0.00000  Uiso   1.00
H227   H     0.95683   0.01050   0.20036   0.00000  Uiso   1.00
H228   H     0.93617   0.06263   0.19784   0.00000  Uiso   1.00
H229   H     0.91010   0.06732   0.28855   0.00000  Uiso   1.00
H230   H     0.93434   0.01795   0.28679   0.00000  Uiso   1.00
C231   C     0.73514   0.29571   0.26976   0.00000  Uiso   1.00
C232   C     0.74156   0.29188   0.21831   0.00000  Uiso   1.00
C233   C     0.69499   0.27544   0.21486   0.00000  Uiso   1.00
H234   H     0.68446   0.24567   0.23418   0.00000  Uiso   1.00
H235   H     0.99743   0.29778   0.23082   0.00000  Uiso   1.00
H236   H     0.70098   0.27050   0.17766   0.00000  Uiso   1.00
H237   H     0.75004   0.32291   0.20102   0.00000  Uiso   1.00
H238   H     0.77273   0.27081   0.19837   0.00000  Uiso   1.00
H239   H     0.72491   0.26578   0.28912   0.00000  Uiso   1.00
H240   H     0.70193   0.31514   0.28758   0.00000  Uiso   1.00
O241   O     0.12846   0.56108   0.25001   0.00000  Uiso   1.00
O242   O     0.20488   0.43892   0.25000   0.00000  Uiso   1.00
O243   O     0.20490   0.56107   0.25000   0.00000  Uiso   1.00
O244   O     0.12843   0.43893   0.25000   0.00000  Uiso   1.00
C245   C     0.16378   0.58000   0.25557   0.00000  Uiso   1.00
C246   C     0.16502   0.41997   0.25549   0.00000  Uiso   1.00
O247   O     0.10661   0.50001   0.31613   0.00000  Uiso   1.00
O248   O     0.22672   0.49999   0.18388   0.00000  Uiso   1.00
O249   O     0.18305   0.50000   0.31612   0.00000  Uiso   1.00
O250   O     0.15028   0.50000   0.18388   0.00000  Uiso   1.00
C251   C     0.13576   0.49997   0.33803   0.00000  Uiso   1.00
C252   C     0.19757   0.50002   0.16197   0.00000  Uiso   1.00
Zn253  Zn    0.11562   0.50001   0.25000   0.00000  Uiso   1.00
Zn254  Zn    0.21771   0.49999   0.25000   0.00000  Uiso   1.00
C255   C     0.11593   0.49744   0.38875   0.00000  Uiso   1.00
C256   C     0.21738   0.50260   0.11123   0.00000  Uiso   1.00
C257   C     0.05933   0.46898   0.46148   0.00000  Uiso   1.00
C258   C     0.27394   0.53115   0.03852   0.00000  Uiso   1.00
C259   C     0.07206   0.47718   0.41412   0.00000  Uiso   1.00
C260   C     0.26123   0.52290   0.08587   0.00000  Uiso   1.00
C261   C     0.14552   0.51110   0.41093   0.00000  Uiso   1.00
C262   C     0.18779   0.48895   0.08904   0.00000  Uiso   1.00
C263   C     0.13676   0.49923   0.45685   0.00000  Uiso   1.00
C264   C     0.19651   0.50093   0.04315   0.00000  Uiso   1.00
C265   C     0.09192   0.47870   0.48303   0.00000  Uiso   1.00
C266   C     0.24134   0.52147   0.01698   0.00000  Uiso   1.00
C267   C     0.17212   0.50615   0.47656   0.00000  Uiso   1.00
C268   C     0.16112   0.49408   0.02345   0.00000  Uiso   1.00
C269   C     0.11463   0.47643   0.04957   0.00000  Uiso   1.00
C270   C     0.21858   0.52386   0.45047   0.00000  Uiso   1.00
C271   C     0.08109   0.46798   0.02973   0.00000  Uiso   1.00
C272   C     0.25214   0.53227   0.47029   0.00000  Uiso   1.00
H273   H     0.15703   0.47015   0.10957   0.00000  Uiso   1.00
H274   H     0.17634   0.52979   0.39036   0.00000  Uiso   1.00
H275   H     0.28484   0.53334   0.10283   0.00000  Uiso   1.00
H276   H     0.04843   0.46676   0.39717   0.00000  Uiso   1.00
H277   H     0.02499   0.45343   0.48020   0.00000  Uiso   1.00
H278   H     0.30828   0.54672   0.01980   0.00000  Uiso   1.00
H279   H     0.10242   0.46859   0.08601   0.00000  Uiso   1.00
H280   H     0.23077   0.53181   0.41406   0.00000  Uiso   1.00
C281   C     0.19346   0.64274   0.28070   0.00000  Uiso   1.00
C282   C     0.11471   0.35716   0.28079   0.00000  Uiso   1.00
C283   C     0.20009   0.35235   0.27337   0.00000  Uiso   1.00
C284   C     0.11398   0.64755   0.27367   0.00000  Uiso   1.00
C285   C     0.16069   0.37608   0.26922   0.00000  Uiso   1.00
C286   C     0.15685   0.62383   0.26935   0.00000  Uiso   1.00
C287   C     0.32606   0.50027   0.20889   0.00000  Uiso   1.00
C288   C     0.00726   0.50017   0.29106   0.00000  Uiso   1.00
H289   H     0.32142   0.50037   0.17602   0.00000  Uiso   1.00
H290   H     0.01188   0.50032   0.32394   0.00000  Uiso   1.00
C291   C     0.04060   0.49973   0.20888   0.00000  Uiso   1.00
C292   C     0.29278   0.49992   0.29107   0.00000  Uiso   1.00
H293   H     0.07167   0.49958   0.17574   0.00000  Uiso   1.00
H294   H     0.26172   0.49979   0.32423   0.00000  Uiso   1.00
N295   N     0.04759   0.50001   0.25001   0.00000  Uiso   1.00
N296   N     0.28574   0.49999   0.24999   0.00000  Uiso   1.00
I297   I     0.01541   0.43761   0.07360   0.00000  Uiso   1.00
I298   I     0.31782   0.56264   0.42641   0.00000  Uiso   1.00
I299   I     0.23077   0.60832   0.31773   0.00000  Uiso   1.00
I300   I     0.04711   0.39160   0.31775   0.00000  Uiso   1.00
C301   C     0.24893   0.37081   0.26917   0.00000  Uiso   1.00
C302   C     0.28448   0.37483   0.21764   0.00000  Uiso   1.00
C303   C     0.00061   0.39130   0.21399   0.00000  Uiso   1.00
H304   H     0.32868   0.42106   0.23321   0.00000  Uiso   1.00
H305   H     0.01842   0.36900   0.23003   0.00000  Uiso   1.00
H306   H     0.02507   0.39623   0.17675   0.00000  Uiso   1.00
H307   H     0.29016   0.34384   0.20036   0.00000  Uiso   1.00
H308   H     0.26950   0.39597   0.19784   0.00000  Uiso   1.00
H309   H     0.24343   0.40066   0.28855   0.00000  Uiso   1.00
H310   H     0.26767   0.35128   0.28679   0.00000  Uiso   1.00
C311   C     0.06847   0.62904   0.26976   0.00000  Uiso   1.00
C312   C     0.07489   0.62521   0.21831   0.00000  Uiso   1.00
C313   C     0.02832   0.60877   0.21486   0.00000  Uiso   1.00
H314   H     0.01779   0.57901   0.23418   0.00000  Uiso   1.00
H315   H     0.33077   0.63111   0.23082   0.00000  Uiso   1.00
H316   H     0.03432   0.60384   0.17766   0.00000  Uiso   1.00
H317   H     0.08337   0.65625   0.20102   0.00000  Uiso   1.00
H318   H     0.10607   0.60414   0.19837   0.00000  Uiso   1.00
H319   H     0.05825   0.59911   0.28912   0.00000  Uiso   1.00
H320   H     0.03526   0.64847   0.28758   0.00000  Uiso   1.00
O321   O     0.46179   0.56108   0.25001   0.00000  Uiso   1.00
O322   O     0.53821   0.43892   0.25000   0.00000  Uiso   1.00
O323   O     0.53823   0.56107   0.25000   0.00000  Uiso   1.00
O324   O     0.46177   0.43893   0.25000   0.00000  Uiso   1.00
C325   C     0.49712   0.58000   0.25557   0.00000  Uiso   1.00
C326   C     0.49835   0.41997   0.25549   0.00000  Uiso   1.00
O327   O     0.43994   0.50001   0.31613   0.00000  Uiso   1.00
O328   O     0.56006   0.49999   0.18388   0.00000  Uiso   1.00
O329   O     0.51639   0.50000   0.31612   0.00000  Uiso   1.00
O330   O     0.48361   0.50000   0.18388   0.00000  Uiso   1.00
C331   C     0.46910   0.49997   0.33803   0.00000  Uiso   1.00
C332   C     0.53090   0.50002   0.16197   0.00000  Uiso   1.00
Zn333  Zn    0.44896   0.50001   0.25000   0.00000  Uiso   1.00
Zn334  Zn    0.55104   0.49999   0.25000   0.00000  Uiso   1.00
C335   C     0.44927   0.49744   0.38875   0.00000  Uiso   1.00
C336   C     0.55071   0.50260   0.11123   0.00000  Uiso   1.00
C337   C     0.39267   0.46898   0.46148   0.00000  Uiso   1.00
C338   C     0.60727   0.53115   0.03852   0.00000  Uiso   1.00
C339   C     0.40539   0.47718   0.41412   0.00000  Uiso   1.00
C340   C     0.59457   0.52290   0.08587   0.00000  Uiso   1.00
C341   C     0.47885   0.51110   0.41093   0.00000  Uiso   1.00
C342   C     0.52112   0.48895   0.08904   0.00000  Uiso   1.00
C343   C     0.47009   0.49923   0.45685   0.00000  Uiso   1.00
C344   C     0.52984   0.50093   0.04315   0.00000  Uiso   1.00
C345   C     0.42525   0.47870   0.48303   0.00000  Uiso   1.00
C346   C     0.57467   0.52147   0.01698   0.00000  Uiso   1.00
C347   C     0.50545   0.50615   0.47656   0.00000  Uiso   1.00
C348   C     0.49446   0.49408   0.02345   0.00000  Uiso   1.00
C349   C     0.44796   0.47643   0.04957   0.00000  Uiso   1.00
C350   C     0.55192   0.52386   0.45047   0.00000  Uiso   1.00
C351   C     0.41442   0.46798   0.02973   0.00000  Uiso   1.00
C352   C     0.58547   0.53227   0.47029   0.00000  Uiso   1.00
H353   H     0.49036   0.47015   0.10957   0.00000  Uiso   1.00
H354   H     0.50967   0.52979   0.39036   0.00000  Uiso   1.00
H355   H     0.61818   0.53334   0.10283   0.00000  Uiso   1.00
H356   H     0.38176   0.46676   0.39717   0.00000  Uiso   1.00
H357   H     0.35832   0.45343   0.48020   0.00000  Uiso   1.00
H358   H     0.64161   0.54672   0.01980   0.00000  Uiso   1.00
H359   H     0.43575   0.46859   0.08601   0.00000  Uiso   1.00
H360   H     0.56410   0.53181   0.41406   0.00000  Uiso   1.00
C361   C     0.52679   0.64274   0.28070   0.00000  Uiso   1.00
C362   C     0.44804   0.35716   0.28079   0.00000  Uiso   1.00
C363   C     0.53343   0.35235   0.27337   0.00000  Uiso   1.00
C364   C     0.44732   0.64755   0.27367   0.00000  Uiso   1.00
C365   C     0.49402   0.37608   0.26922   0.00000  Uiso   1.00
C366   C     0.49018   0.62383   0.26935   0.00000  Uiso   1.00
C367   C     0.65940   0.50027   0.20889   0.00000  Uiso   1.00
C368   C     0.34059   0.50017   0.29106   0.00000  Uiso   1.00
H369   H     0.65475   0.50037   0.17602   0.00000  Uiso   1.00
H370   H     0.34521   0.50032   0.32394   0.00000  Uiso   1.00
C371   C     0.37393   0.49973   0.20888   0.00000  Uiso   1.00
C372   C     0.62611   0.49992   0.29107   0.00000  Uiso   1.00
H373   H     0.40501   0.49958   0.17574   0.00000  Uiso   1.00
H374   H     0.59505   0.49979   0.32423   0.00000  Uiso   1.00
N375   N     0.38093   0.50001   0.25001   0.00000  Uiso   1.00
N376   N     0.61907   0.49999   0.24999   0.00000  Uiso   1.00
I377   I     0.34875   0.43761   0.07360   0.00000  Uiso   1.00
I378   I     0.65116   0.56264   0.42641   0.00000  Uiso   1.00
I379   I     0.56410   0.60832   0.31773   0.00000  Uiso   1.00
I380   I     0.38044   0.39160   0.31775   0.00000  Uiso   1.00
C381   C     0.58226   0.37081   0.26917   0.00000  Uiso   1.00
C382   C     0.61782   0.37483   0.21764   0.00000  Uiso   1.00
C383   C     0.33394   0.39130   0.21399   0.00000  Uiso   1.00
H384   H     0.66201   0.42106   0.23321   0.00000  Uiso   1.00
H385   H     0.35175   0.36900   0.23003   0.00000  Uiso   1.00
H386   H     0.35840   0.39623   0.17675   0.00000  Uiso   1.00
H387   H     0.62350   0.34384   0.20036   0.00000  Uiso   1.00
H388   H     0.60284   0.39597   0.19784   0.00000  Uiso   1.00
H389   H     0.57676   0.40066   0.28855   0.00000  Uiso   1.00
H390   H     0.60101   0.35128   0.28679   0.00000  Uiso   1.00
C391   C     0.40180   0.62904   0.26976   0.00000  Uiso   1.00
C392   C     0.40822   0.62521   0.21831   0.00000  Uiso   1.00
C393   C     0.36165   0.60877   0.21486   0.00000  Uiso   1.00
H394   H     0.35113   0.57901   0.23418   0.00000  Uiso   1.00
H395   H     0.66410   0.63111   0.23082   0.00000  Uiso   1.00
H396   H     0.36765   0.60384   0.17766   0.00000  Uiso   1.00
H397   H     0.41670   0.65625   0.20102   0.00000  Uiso   1.00
H398   H     0.43940   0.60414   0.19837   0.00000  Uiso   1.00
H399   H     0.39158   0.59911   0.28912   0.00000  Uiso   1.00
H400   H     0.36860   0.64847   0.28758   0.00000  Uiso   1.00
O401   O     0.79512   0.56108   0.25001   0.00000  Uiso   1.00
O402   O     0.87154   0.43892   0.25000   0.00000  Uiso   1.00
O403   O     0.87157   0.56107   0.25000   0.00000  Uiso   1.00
O404   O     0.79510   0.43893   0.25000   0.00000  Uiso   1.00
C405   C     0.83045   0.58000   0.25557   0.00000  Uiso   1.00
C406   C     0.83168   0.41997   0.25549   0.00000  Uiso   1.00
O407   O     0.77328   0.50001   0.31613   0.00000  Uiso   1.00
O408   O     0.89339   0.49999   0.18388   0.00000  Uiso   1.00
O409   O     0.84972   0.50000   0.31612   0.00000  Uiso   1.00
O410   O     0.81695   0.50000   0.18388   0.00000  Uiso   1.00
C411   C     0.80243   0.49997   0.33803   0.00000  Uiso   1.00
C412   C     0.86423   0.50002   0.16197   0.00000  Uiso   1.00
Zn413  Zn    0.78229   0.50001   0.25000   0.00000  Uiso   1.00
Zn414  Zn    0.88438   0.49999   0.25000   0.00000  Uiso   1.00
C415   C     0.78260   0.49744   0.38875   0.00000  Uiso   1.00
C416   C     0.88405   0.50260   0.11123   0.00000  Uiso   1.00
C417   C     0.72600   0.46898   0.46148   0.00000  Uiso   1.00
C418   C     0.94061   0.53115   0.03852   0.00000  Uiso   1.00
C419   C     0.73872   0.47718   0.41412   0.00000  Uiso   1.00
C420   C     0.92790   0.52290   0.08587   0.00000  Uiso   1.00
C421   C     0.81219   0.51110   0.41093   0.00000  Uiso   1.00
C422   C     0.85446   0.48895   0.08904   0.00000  Uiso   1.00
C423   C     0.80342   0.49923   0.45685   0.00000  Uiso   1.00
C424   C     0.86317   0.50093   0.04315   0.00000  Uiso   1.00
C425   C     0.75858   0.47870   0.48303   0.00000  Uiso   1.00
C426   C     0.90801   0.52147   0.01698   0.00000  Uiso   1.00
C427   C     0.83878   0.50615   0.47656   0.00000  Uiso   1.00
C428   C     0.82779   0.49408   0.02345   0.00000  Uiso   1.00
C429   C     0.78130   0.47643   0.04957   0.00000  Uiso   1.00
C430   C     0.88525   0.52386   0.45047   0.00000  Uiso   1.00
C431   C     0.74776   0.46798   0.02973   0.00000  Uiso   1.00
C432   C     0.91881   0.53227   0.47029   0.00000  Uiso   1.00
H433   H     0.82370   0.47015   0.10957   0.00000  Uiso   1.00
H434   H     0.84300   0.52979   0.39036   0.00000  Uiso   1.00
H435   H     0.95151   0.53334   0.10283   0.00000  Uiso   1.00
H436   H     0.71510   0.46676   0.39717   0.00000  Uiso   1.00
H437   H     0.69165   0.45343   0.48020   0.00000  Uiso   1.00
H438   H     0.97494   0.54672   0.01980   0.00000  Uiso   1.00
H439   H     0.76909   0.46859   0.08601   0.00000  Uiso   1.00
H440   H     0.89743   0.53181   0.41406   0.00000  Uiso   1.00
C441   C     0.86013   0.64274   0.28070   0.00000  Uiso   1.00
C442   C     0.78138   0.35716   0.28079   0.00000  Uiso   1.00
C443   C     0.86676   0.35235   0.27337   0.00000  Uiso   1.00
C444   C     0.78065   0.64755   0.27367   0.00000  Uiso   1.00
C445   C     0.82735   0.37608   0.26922   0.00000  Uiso   1.00
C446   C     0.82352   0.62383   0.26935   0.00000  Uiso   1.00
C447   C     0.99273   0.50027   0.20889   0.00000  Uiso   1.00
C448   C     0.67392   0.50017   0.29106   0.00000  Uiso   1.00
H449   H     0.98809   0.50037   0.17602   0.00000  Uiso   1.00
H450   H     0.67855   0.50032   0.32394   0.00000  Uiso   1.00
C451   C     0.70727   0.49973   0.20888   0.00000  Uiso   1.00
C452   C     0.95945   0.49992   0.29107   0.00000  Uiso   1.00
H453   H     0.73834   0.49958   0.17574   0.00000  Uiso   1.00
H454   H     0.92838   0.49979   0.32423   0.00000  Uiso   1.00
N455   N     0.71426   0.50001   0.25001   0.00000  Uiso   1.00
N456   N     0.95241   0.49999   0.24999   0.00000  Uiso   1.00
I457   I     0.68208   0.43761   0.07360   0.00000  Uiso   1.00
I458   I     0.98449   0.56264   0.42641   0.00000  Uiso   1.00
I459   I     0.89744   0.60832   0.31773   0.00000  Uiso   1.00
I460   I     0.71378   0.39160   0.31775   0.00000  Uiso   1.00
C461   C     0.91560   0.37081   0.26917   0.00000  Uiso   1.00
C462   C     0.95115   0.37483   0.21764   0.00000  Uiso   1.00
C463   C     0.66727   0.39130   0.21399   0.00000  Uiso   1.00
H464   H     0.99535   0.42106   0.23321   0.00000  Uiso   1.00
H465   H     0.68508   0.36900   0.23003   0.00000  Uiso   1.00
H466   H     0.69174   0.39623   0.17675   0.00000  Uiso   1.00
H467   H     0.95683   0.34384   0.20036   0.00000  Uiso   1.00
H468   H     0.93617   0.39597   0.19784   0.00000  Uiso   1.00
H469   H     0.91010   0.40066   0.28855   0.00000  Uiso   1.00
H470   H     0.93434   0.35128   0.28679   0.00000  Uiso   1.00
C471   C     0.73514   0.62904   0.26976   0.00000  Uiso   1.00
C472   C     0.74156   0.62521   0.21831   0.00000  Uiso   1.00
C473   C     0.69499   0.60877   0.21486   0.00000  Uiso   1.00
H474   H     0.68446   0.57901   0.23418   0.00000  Uiso   1.00
H475   H     0.99743   0.63111   0.23082   0.00000  Uiso   1.00
H476   H     0.70098   0.60384   0.17766   0.00000  Uiso   1.00
H477   H     0.75004   0.65625   0.20102   0.00000  Uiso   1.00
H478   H     0.77273   0.60414   0.19837   0.00000  Uiso   1.00
H479   H     0.72491   0.59911   0.28912   0.00000  Uiso   1.00
H480   H     0.70193   0.64847   0.28758   0.00000  Uiso   1.00
O481   O     0.12846   0.89442   0.25001   0.00000  Uiso   1.00
O482   O     0.20488   0.77225   0.25000   0.00000  Uiso   1.00
O483   O     0.20490   0.89441   0.25000   0.00000  Uiso   1.00
O484   O     0.12843   0.77226   0.25000   0.00000  Uiso   1.00
C485   C     0.16378   0.91333   0.25557   0.00000  Uiso   1.00
C486   C     0.16502   0.75330   0.25549   0.00000  Uiso   1.00
O487   O     0.10661   0.83334   0.31613   0.00000  Uiso   1.00
O488   O     0.22672   0.83333   0.18388   0.00000  Uiso   1.00
O489   O     0.18305   0.83333   0.31612   0.00000  Uiso   1.00
O490   O     0.15028   0.83334   0.18388   0.00000  Uiso   1.00
C491   C     0.13576   0.83331   0.33803   0.00000  Uiso   1.00
C492   C     0.19757   0.83335   0.16197   0.00000  Uiso   1.00
Zn493  Zn    0.11562   0.83334   0.25000   0.00000  Uiso   1.00
Zn494  Zn    0.21771   0.83333   0.25000   0.00000  Uiso   1.00
C495   C     0.11593   0.83077   0.38875   0.00000  Uiso   1.00
C496   C     0.21738   0.83593   0.11123   0.00000  Uiso   1.00
C497   C     0.05933   0.80231   0.46148   0.00000  Uiso   1.00
C498   C     0.27394   0.86449   0.03852   0.00000  Uiso   1.00
C499   C     0.07206   0.81052   0.41412   0.00000  Uiso   1.00
C500   C     0.26123   0.85623   0.08587   0.00000  Uiso   1.00
C501   C     0.14552   0.84444   0.41093   0.00000  Uiso   1.00
C502   C     0.18779   0.82228   0.08904   0.00000  Uiso   1.00
C503   C     0.13676   0.83256   0.45685   0.00000  Uiso   1.00
C504   C     0.19651   0.83427   0.04315   0.00000  Uiso   1.00
C505   C     0.09192   0.81204   0.48303   0.00000  Uiso   1.00
C506   C     0.24134   0.85481   0.01698   0.00000  Uiso   1.00
C507   C     0.17212   0.83948   0.47656   0.00000  Uiso   1.00
C508   C     0.16112   0.82741   0.02345   0.00000  Uiso   1.00
C509   C     0.11463   0.80976   0.04957   0.00000  Uiso   1.00
C510   C     0.21858   0.85720   0.45047   0.00000  Uiso   1.00
C511   C     0.08109   0.80131   0.02973   0.00000  Uiso   1.00
C512   C     0.25214   0.86560   0.47029   0.00000  Uiso   1.00
H513   H     0.15703   0.80348   0.10957   0.00000  Uiso   1.00
H514   H     0.17634   0.86313   0.39036   0.00000  Uiso   1.00
H515   H     0.28484   0.86668   0.10283   0.00000  Uiso   1.00
H516   H     0.04843   0.80009   0.39717   0.00000  Uiso   1.00
H517   H     0.02499   0.78677   0.48020   0.00000  Uiso   1.00
H518   H     0.30828   0.88005   0.01980   0.00000  Uiso   1.00
H519   H     0.10242   0.80192   0.08601   0.00000  Uiso   1.00
H520   H     0.23077   0.86514   0.41406   0.00000  Uiso   1.00
C521   C     0.19346   0.97607   0.28070   0.00000  Uiso   1.00
C522   C     0.11471   0.69050   0.28079   0.00000  Uiso   1.00
C523   C     0.20009   0.68568   0.27337   0.00000  Uiso   1.00
C524   C     0.11398   0.98088   0.27367   0.00000  Uiso   1.00
C525   C     0.16069   0.70941   0.26922   0.00000  Uiso   1.00
C526   C     0.15685   0.95717   0.26935   0.00000  Uiso   1.00
C527   C     0.32606   0.83360   0.20889   0.00000  Uiso   1.00
C528   C     0.00726   0.83350   0.29106   0.00000  Uiso   1.00
H529   H     0.32142   0.83370   0.17602   0.00000  Uiso   1.00
H530   H     0.01188   0.83365   0.32394   0.00000  Uiso   1.00
C531   C     0.04060   0.83306   0.20888   0.00000  Uiso   1.00
C532   C     0.29278   0.83325   0.29107   0.00000  Uiso   1.00
H533   H     0.07167   0.83292   0.17574   0.00000  Uiso   1.00
H534   H     0.26172   0.83313   0.32423   0.00000  Uiso   1.00
N535   N     0.04759   0.83334   0.25001   0.00000  Uiso   1.00
N536   N     0.28574   0.83332   0.24999   0.00000  Uiso   1.00
I537   I     0.01541   0.77095   0.07360   0.00000  Uiso   1.00
I538   I     0.31782   0.89597   0.42641   0.00000  Uiso   1.00
I539   I     0.23077   0.94165   0.31773   0.00000  Uiso   1.00
I540   I     0.04711   0.72493   0.31775   0.00000  Uiso   1.00
C541   C     0.24893   0.70415   0.26917   0.00000  Uiso   1.00
C542   C     0.28448   0.70816   0.21764   0.00000  Uiso   1.00
C543   C     0.00061   0.72464   0.21399   0.00000  Uiso   1.00
H544   H     0.32868   0.75439   0.23321   0.00000  Uiso   1.00
H545   H     0.01842   0.70234   0.23003   0.00000  Uiso   1.00
H546   H     0.02507   0.72957   0.17675   0.00000  Uiso   1.00
H547   H     0.29016   0.67717   0.20036   0.00000  Uiso   1.00
H548   H     0.26950   0.72930   0.19784   0.00000  Uiso   1.00
H549   H     0.24343   0.73399   0.28855   0.00000  Uiso   1.00
H550   H     0.26767   0.68461   0.28679   0.00000  Uiso   1.00
C551   C     0.06847   0.96238   0.26976   0.00000  Uiso   1.00
C552   C     0.07489   0.95855   0.21831   0.00000  Uiso   1.00
C553   C     0.02832   0.94210   0.21486   0.00000  Uiso   1.00
H554   H     0.01779   0.91234   0.23418   0.00000  Uiso   1.00
H555   H     0.33077   0.96445   0.23082   0.00000  Uiso   1.00
H556   H     0.03432   0.93717   0.17766   0.00000  Uiso   1.00
H557   H     0.08337   0.98958   0.20102   0.00000  Uiso   1.00
H558   H     0.10607   0.93748   0.19837   0.00000  Uiso   1.00
H559   H     0.05825   0.93245   0.28912   0.00000  Uiso   1.00
H560   H     0.03526   0.98181   0.28758   0.00000  Uiso   1.00
O561   O     0.46179   0.89442   0.25001   0.00000  Uiso   1.00
O562   O     0.53821   0.77225   0.25000   0.00000  Uiso   1.00
O563   O     0.53823   0.89441   0.25000   0.00000  Uiso   1.00
O564   O     0.46177   0.77226   0.25000   0.00000  Uiso   1.00
C565   C     0.49712   0.91333   0.25557   0.00000  Uiso   1.00
C566   C     0.49835   0.75330   0.25549   0.00000  Uiso   1.00
O567   O     0.43994   0.83334   0.31613   0.00000  Uiso   1.00
O568   O     0.56006   0.83333   0.18388   0.00000  Uiso   1.00
O569   O     0.51639   0.83333   0.31612   0.00000  Uiso   1.00
O570   O     0.48361   0.83334   0.18388   0.00000  Uiso   1.00
C571   C     0.46910   0.83331   0.33803   0.00000  Uiso   1.00
C572   C     0.53090   0.83335   0.16197   0.00000  Uiso   1.00
Zn573  Zn    0.44896   0.83334   0.25000   0.00000  Uiso   1.00
Zn574  Zn    0.55104   0.83333   0.25000   0.00000  Uiso   1.00
C575   C     0.44927   0.83077   0.38875   0.00000  Uiso   1.00
C576   C     0.55071   0.83593   0.11123   0.00000  Uiso   1.00
C577   C     0.39267   0.80231   0.46148   0.00000  Uiso   1.00
C578   C     0.60727   0.86449   0.03852   0.00000  Uiso   1.00
C579   C     0.40539   0.81052   0.41412   0.00000  Uiso   1.00
C580   C     0.59457   0.85623   0.08587   0.00000  Uiso   1.00
C581   C     0.47885   0.84444   0.41093   0.00000  Uiso   1.00
C582   C     0.52112   0.82228   0.08904   0.00000  Uiso   1.00
C583   C     0.47009   0.83256   0.45685   0.00000  Uiso   1.00
C584   C     0.52984   0.83427   0.04315   0.00000  Uiso   1.00
C585   C     0.42525   0.81204   0.48303   0.00000  Uiso   1.00
C586   C     0.57467   0.85481   0.01698   0.00000  Uiso   1.00
C587   C     0.50545   0.83948   0.47656   0.00000  Uiso   1.00
C588   C     0.49446   0.82741   0.02345   0.00000  Uiso   1.00
C589   C     0.44796   0.80976   0.04957   0.00000  Uiso   1.00
C590   C     0.55192   0.85720   0.45047   0.00000  Uiso   1.00
C591   C     0.41442   0.80131   0.02973   0.00000  Uiso   1.00
C592   C     0.58547   0.86560   0.47029   0.00000  Uiso   1.00
H593   H     0.49036   0.80348   0.10957   0.00000  Uiso   1.00
H594   H     0.50967   0.86313   0.39036   0.00000  Uiso   1.00
H595   H     0.61818   0.86668   0.10283   0.00000  Uiso   1.00
H596   H     0.38176   0.80009   0.39717   0.00000  Uiso   1.00
H597   H     0.35832   0.78677   0.48020   0.00000  Uiso   1.00
H598   H     0.64161   0.88005   0.01980   0.00000  Uiso   1.00
H599   H     0.43575   0.80192   0.08601   0.00000  Uiso   1.00
H600   H     0.56410   0.86514   0.41406   0.00000  Uiso   1.00
C601   C     0.52679   0.97607   0.28070   0.00000  Uiso   1.00
C602   C     0.44804   0.69050   0.28079   0.00000  Uiso   1.00
C603   C     0.53343   0.68568   0.27337   0.00000  Uiso   1.00
C604   C     0.44732   0.98088   0.27367   0.00000  Uiso   1.00
C605   C     0.49402   0.70941   0.26922   0.00000  Uiso   1.00
C606   C     0.49018   0.95717   0.26935   0.00000  Uiso   1.00
C607   C     0.65940   0.83360   0.20889   0.00000  Uiso   1.00
C608   C     0.34059   0.83350   0.29106   0.00000  Uiso   1.00
H609   H     0.65475   0.83370   0.17602   0.00000  Uiso   1.00
H610   H     0.34521   0.83365   0.32394   0.00000  Uiso   1.00
C611   C     0.37393   0.83306   0.20888   0.00000  Uiso   1.00
C612   C     0.62611   0.83325   0.29107   0.00000  Uiso   1.00
H613   H     0.40501   0.83292   0.17574   0.00000  Uiso   1.00
H614   H     0.59505   0.83313   0.32423   0.00000  Uiso   1.00
N615   N     0.38093   0.83334   0.25001   0.00000  Uiso   1.00
N616   N     0.61907   0.83332   0.24999   0.00000  Uiso   1.00
I617   I     0.34875   0.77095   0.07360   0.00000  Uiso   1.00
I618   I     0.65116   0.89597   0.42641   0.00000  Uiso   1.00
I619   I     0.56410   0.94165   0.31773   0.00000  Uiso   1.00
I620   I     0.38044   0.72493   0.31775   0.00000  Uiso   1.00
C621   C     0.58226   0.70415   0.26917   0.00000  Uiso   1.00
C622   C     0.61782   0.70816   0.21764   0.00000  Uiso   1.00
C623   C     0.33394   0.72464   0.21399   0.00000  Uiso   1.00
H624   H     0.66201   0.75439   0.23321   0.00000  Uiso   1.00
H625   H     0.35175   0.70234   0.23003   0.00000  Uiso   1.00
H626   H     0.35840   0.72957   0.17675   0.00000  Uiso   1.00
H627   H     0.62350   0.67717   0.20036   0.00000  Uiso   1.00
H628   H     0.60284   0.72930   0.19784   0.00000  Uiso   1.00
H629   H     0.57676   0.73399   0.28855   0.00000  Uiso   1.00
H630   H     0.60101   0.68461   0.28679   0.00000  Uiso   1.00
C631   C     0.40180   0.96238   0.26976   0.00000  Uiso   1.00
C632   C     0.40822   0.95855   0.21831   0.00000  Uiso   1.00
C633   C     0.36165   0.94210   0.21486   0.00000  Uiso   1.00
H634   H     0.35113   0.91234   0.23418   0.00000  Uiso   1.00
H635   H     0.66410   0.96445   0.23082   0.00000  Uiso   1.00
H636   H     0.36765   0.93717   0.17766   0.00000  Uiso   1.00
H637   H     0.41670   0.98958   0.20102   0.00000  Uiso   1.00
H638   H     0.43940   0.93748   0.19837   0.00000  Uiso   1.00
H639   H     0.39158   0.93245   0.28912   0.00000  Uiso   1.00
H640   H     0.36860   0.98181   0.28758   0.00000  Uiso   1.00
O641   O     0.79512   0.89442   0.25001   0.00000  Uiso   1.00
O642   O     0.87154   0.77225   0.25000   0.00000  Uiso   1.00
O643   O     0.87157   0.89441   0.25000   0.00000  Uiso   1.00
O644   O     0.79510   0.77226   0.25000   0.00000  Uiso   1.00
C645   C     0.83045   0.91333   0.25557   0.00000  Uiso   1.00
C646   C     0.83168   0.75330   0.25549   0.00000  Uiso   1.00
O647   O     0.77328   0.83334   0.31613   0.00000  Uiso   1.00
O648   O     0.89339   0.83333   0.18388   0.00000  Uiso   1.00
O649   O     0.84972   0.83333   0.31612   0.00000  Uiso   1.00
O650   O     0.81695   0.83334   0.18388   0.00000  Uiso   1.00
C651   C     0.80243   0.83331   0.33803   0.00000  Uiso   1.00
C652   C     0.86423   0.83335   0.16197   0.00000  Uiso   1.00
Zn653  Zn    0.78229   0.83334   0.25000   0.00000  Uiso   1.00
Zn654  Zn    0.88438   0.83333   0.25000   0.00000  Uiso   1.00
C655   C     0.78260   0.83077   0.38875   0.00000  Uiso   1.00
C656   C     0.88405   0.83593   0.11123   0.00000  Uiso   1.00
C657   C     0.72600   0.80231   0.46148   0.00000  Uiso   1.00
C658   C     0.94061   0.86449   0.03852   0.00000  Uiso   1.00
C659   C     0.73872   0.81052   0.41412   0.00000  Uiso   1.00
C660   C     0.92790   0.85623   0.08587   0.00000  Uiso   1.00
C661   C     0.81219   0.84444   0.41093   0.00000  Uiso   1.00
C662   C     0.85446   0.82228   0.08904   0.00000  Uiso   1.00
C663   C     0.80342   0.83256   0.45685   0.00000  Uiso   1.00
C664   C     0.86317   0.83427   0.04315   0.00000  Uiso   1.00
C665   C     0.75858   0.81204   0.48303   0.00000  Uiso   1.00
C666   C     0.90801   0.85481   0.01698   0.00000  Uiso   1.00
C667   C     0.83878   0.83948   0.47656   0.00000  Uiso   1.00
C668   C     0.82779   0.82741   0.02345   0.00000  Uiso   1.00
C669   C     0.78130   0.80976   0.04957   0.00000  Uiso   1.00
C670   C     0.88525   0.85720   0.45047   0.00000  Uiso   1.00
C671   C     0.74776   0.80131   0.02973   0.00000  Uiso   1.00
C672   C     0.91881   0.86560   0.47029   0.00000  Uiso   1.00
H673   H     0.82370   0.80348   0.10957   0.00000  Uiso   1.00
H674   H     0.84300   0.86313   0.39036   0.00000  Uiso   1.00
H675   H     0.95151   0.86668   0.10283   0.00000  Uiso   1.00
H676   H     0.71510   0.80009   0.39717   0.00000  Uiso   1.00
H677   H     0.69165   0.78677   0.48020   0.00000  Uiso   1.00
H678   H     0.97494   0.88005   0.01980   0.00000  Uiso   1.00
H679   H     0.76909   0.80192   0.08601   0.00000  Uiso   1.00
H680   H     0.89743   0.86514   0.41406   0.00000  Uiso   1.00
C681   C     0.86013   0.97607   0.28070   0.00000  Uiso   1.00
C682   C     0.78138   0.69050   0.28079   0.00000  Uiso   1.00
C683   C     0.86676   0.68568   0.27337   0.00000  Uiso   1.00
C684   C     0.78065   0.98088   0.27367   0.00000  Uiso   1.00
C685   C     0.82735   0.70941   0.26922   0.00000  Uiso   1.00
C686   C     0.82352   0.95717   0.26935   0.00000  Uiso   1.00
C687   C     0.99273   0.83360   0.20889   0.00000  Uiso   1.00
C688   C     0.67392   0.83350   0.29106   0.00000  Uiso   1.00
H689   H     0.98809   0.83370   0.17602   0.00000  Uiso   1.00
H690   H     0.67855   0.83365   0.32394   0.00000  Uiso   1.00
C691   C     0.70727   0.83306   0.20888   0.00000  Uiso   1.00
C692   C     0.95945   0.83325   0.29107   0.00000  Uiso   1.00
H693   H     0.73834   0.83292   0.17574   0.00000  Uiso   1.00
H694   H     0.92838   0.83313   0.32423   0.00000  Uiso   1.00
N695   N     0.71426   0.83334   0.25001   0.00000  Uiso   1.00
N696   N     0.95241   0.83332   0.24999   0.00000  Uiso   1.00
I697   I     0.68208   0.77095   0.07360   0.00000  Uiso   1.00
I698   I     0.98449   0.89597   0.42641   0.00000  Uiso   1.00
I699   I     0.89744   0.94165   0.31773   0.00000  Uiso   1.00
I700   I     0.71378   0.72493   0.31775   0.00000  Uiso   1.00
C701   C     0.91560   0.70415   0.26917   0.00000  Uiso   1.00
C702   C     0.95115   0.70816   0.21764   0.00000  Uiso   1.00
C703   C     0.66727   0.72464   0.21399   0.00000  Uiso   1.00
H704   H     0.99535   0.75439   0.23321   0.00000  Uiso   1.00
H705   H     0.68508   0.70234   0.23003   0.00000  Uiso   1.00
H706   H     0.69174   0.72957   0.17675   0.00000  Uiso   1.00
H707   H     0.95683   0.67717   0.20036   0.00000  Uiso   1.00
H708   H     0.93617   0.72930   0.19784   0.00000  Uiso   1.00
H709   H     0.91010   0.73399   0.28855   0.00000  Uiso   1.00
H710   H     0.93434   0.68461   0.28679   0.00000  Uiso   1.00
C711   C     0.73514   0.96238   0.26976   0.00000  Uiso   1.00
C712   C     0.74156   0.95855   0.21831   0.00000  Uiso   1.00
C713   C     0.69499   0.94210   0.21486   0.00000  Uiso   1.00
H714   H     0.68446   0.91234   0.23418   0.00000  Uiso   1.00
H715   H     0.99743   0.96445   0.23082   0.00000  Uiso   1.00
H716   H     0.70098   0.93717   0.17766   0.00000  Uiso   1.00
H717   H     0.75004   0.98958   0.20102   0.00000  Uiso   1.00
H718   H     0.77273   0.93748   0.19837   0.00000  Uiso   1.00
H719   H     0.72491   0.93245   0.28912   0.00000  Uiso   1.00
H720   H     0.70193   0.98181   0.28758   0.00000  Uiso   1.00
O721   O     0.12846   0.22775   0.75001   0.00000  Uiso   1.00
O722   O     0.20488   0.10558   0.75000   0.00000  Uiso   1.00
O723   O     0.20490   0.22774   0.75000   0.00000  Uiso   1.00
O724   O     0.12843   0.10559   0.75000   0.00000  Uiso   1.00
C725   C     0.16378   0.24666   0.75557   0.00000  Uiso   1.00
C726   C     0.16502   0.08664   0.75549   0.00000  Uiso   1.00
O727   O     0.10661   0.16667   0.81613   0.00000  Uiso   1.00
O728   O     0.22672   0.16666   0.68388   0.00000  Uiso   1.00
O729   O     0.18305   0.16666   0.81612   0.00000  Uiso   1.00
O730   O     0.15028   0.16667   0.68388   0.00000  Uiso   1.00
C731   C     0.13576   0.16664   0.83803   0.00000  Uiso   1.00
C732   C     0.19757   0.16669   0.66197   0.00000  Uiso   1.00
Zn733  Zn    0.11562   0.16667   0.75000   0.00000  Uiso   1.00
Zn734  Zn    0.21771   0.16666   0.75000   0.00000  Uiso   1.00
C735   C     0.11593   0.16411   0.88875   0.00000  Uiso   1.00
C736   C     0.21738   0.16926   0.61123   0.00000  Uiso   1.00
C737   C     0.05933   0.13564   0.96148   0.00000  Uiso   1.00
C738   C     0.27394   0.19782   0.53852   0.00000  Uiso   1.00
C739   C     0.07206   0.14385   0.91412   0.00000  Uiso   1.00
C740   C     0.26123   0.18957   0.58587   0.00000  Uiso   1.00
C741   C     0.14552   0.17777   0.91093   0.00000  Uiso   1.00
C742   C     0.18779   0.15561   0.58904   0.00000  Uiso   1.00
C743   C     0.13676   0.16590   0.95685   0.00000  Uiso   1.00
C744   C     0.19651   0.16760   0.54315   0.00000  Uiso   1.00
C745   C     0.09192   0.14537   0.98303   0.00000  Uiso   1.00
C746   C     0.24134   0.18814   0.51698   0.00000  Uiso   1.00
C747   C     0.17212   0.17282   0.97656   0.00000  Uiso   1.00
C748   C     0.16112   0.16074   0.52345   0.00000  Uiso   1.00
C749   C     0.11463   0.14309   0.54957   0.00000  Uiso   1.00
C750   C     0.21858   0.19053   0.95047   0.00000  Uiso   1.00
C751   C     0.08109   0.13464   0.52973   0.00000  Uiso   1.00
C752   C     0.25214   0.19893   0.97029   0.00000  Uiso   1.00
H753   H     0.15703   0.13681   0.60957   0.00000  Uiso   1.00
H754   H     0.17634   0.19646   0.89036   0.00000  Uiso   1.00
H755   H     0.28484   0.20001   0.60283   0.00000  Uiso   1.00
H756   H     0.04843   0.13343   0.89717   0.00000  Uiso   1.00
H757   H     0.02499   0.12010   0.98020   0.00000  Uiso   1.00
H758   H     0.30828   0.21338   0.51980   0.00000  Uiso   1.00
H759   H     0.10242   0.13525   0.58601   0.00000  Uiso   1.00
H760   H     0.23077   0.19847   0.91406   0.00000  Uiso   1.00
C761   C     0.19346   0.30940   0.78070   0.00000  Uiso   1.00
C762   C     0.11471   0.02383   0.78079   0.00000  Uiso   1.00
C763   C     0.20009   0.01901   0.77337   0.00000  Uiso   1.00
C764   C     0.11398   0.31421   0.77367   0.00000  Uiso   1.00
C765   C     0.16069   0.04275   0.76922   0.00000  Uiso   1.00
C766   C     0.15685   0.29050   0.76935   0.00000  Uiso   1.00
C767   C     0.32606   0.16694   0.70889   0.00000  Uiso   1.00
C768   C     0.00726   0.16683   0.79106   0.00000  Uiso   1.00
H769   H     0.32142   0.16703   0.67602   0.00000  Uiso   1.00
H770   H     0.01188   0.16699   0.82394   0.00000  Uiso   1.00
C771   C     0.04060   0.16639   0.70888   0.00000  Uiso   1.00
C772   C     0.29278   0.16658   0.79107   0.00000  Uiso   1.00
H773   H     0.07167   0.16625   0.67574   0.00000  Uiso   1.00
H774   H     0.26172   0.16646   0.82423   0.00000  Uiso   1.00
N775   N     0.04759   0.16668   0.75001   0.00000  Uiso   1.00
N776   N     0.28574   0.16666   0.74999   0.00000  Uiso   1.00
I777   I     0.01541   0.10428   0.57360   0.00000  Uiso   1.00
I778   I     0.31782   0.22931   0.92641   0.00000  Uiso   1.00
I779   I     0.23077   0.27499   0.81773   0.00000  Uiso   1.00
I780   I     0.04711   0.05826   0.81775   0.00000  Uiso   1.00
C781   C     0.24893   0.03748   0.76917   0.00000  Uiso   1.00
C782   C     0.28448   0.04149   0.71764   0.00000  Uiso   1.00
C783   C     0.00061   0.05797   0.71399   0.00000  Uiso   1.00
H784   H     0.32868   0.08773   0.73321   0.00000  Uiso   1.00
H785   H     0.01842   0.03567   0.73003   0.00000  Uiso   1.00
H786   H     0.02507   0.06290   0.67675   0.00000  Uiso   1.00
H787   H     0.29016   0.01050   0.70036   0.00000  Uiso   1.00
H788   H     0.26950   0.06263   0.69784   0.00000  Uiso   1.00
H789   H     0.24343   0.06732   0.78855   0.00000  Uiso   1.00
H790   H     0.26767   0.01795   0.78679   0.00000  Uiso   1.00
C791   C     0.06847   0.29571   0.76976   0.00000  Uiso   1.00
C792   C     0.07489   0.29188   0.71831   0.00000  Uiso   1.00
C793   C     0.02832   0.27544   0.71486   0.00000  Uiso   1.00
H794   H     0.01779   0.24567   0.73418   0.00000  Uiso   1.00
H795   H     0.33077   0.29778   0.73082   0.00000  Uiso   1.00
H796   H     0.03432   0.27050   0.67766   0.00000  Uiso   1.00
H797   H     0.08337   0.32291   0.70102   0.00000  Uiso   1.00
H798   H     0.10607   0.27081   0.69837   0.00000  Uiso   1.00
H799   H     0.05825   0.26578   0.78912   0.00000  Uiso   1.00
H800   H     0.03526   0.31514   0.78758   0.00000  Uiso   1.00
O801   O     0.46179   0.22775   0.75001   0.00000  Uiso   1.00
O802   O     0.53821   0.10558   0.75000   0.00000  Uiso   1.00
O803   O     0.53823   0.22774   0.75000   0.00000  Uiso   1.00
O804   O     0.46177   0.10559   0.75000   0.00000  Uiso   1.00
C805   C     0.49712   0.24666   0.75557   0.00000  Uiso   1.00
C806   C     0.49835   0.08664   0.75549   0.00000  Uiso   1.00
O807   O     0.43994   0.16667   0.81613   0.00000  Uiso   1.00
O808   O     0.56006   0.16666   0.68388   0.00000  Uiso   1.00
O809   O     0.51639   0.16666   0.81612   0.00000  Uiso   1.00
O810   O     0.48361   0.16667   0.68388   0.00000  Uiso   1.00
C811   C     0.46910   0.16664   0.83803   0.00000  Uiso   1.00
C812   C     0.53090   0.16669   0.66197   0.00000  Uiso   1.00
Zn813  Zn    0.44896   0.16667   0.75000   0.00000  Uiso   1.00
Zn814  Zn    0.55104   0.16666   0.75000   0.00000  Uiso   1.00
C815   C     0.44927   0.16411   0.88875   0.00000  Uiso   1.00
C816   C     0.55071   0.16926   0.61123   0.00000  Uiso   1.00
C817   C     0.39267   0.13564   0.96148   0.00000  Uiso   1.00
C818   C     0.60727   0.19782   0.53852   0.00000  Uiso   1.00
C819   C     0.40539   0.14385   0.91412   0.00000  Uiso   1.00
C820   C     0.59457   0.18957   0.58587   0.00000  Uiso   1.00
C821   C     0.47885   0.17777   0.91093   0.00000  Uiso   1.00
C822   C     0.52112   0.15561   0.58904   0.00000  Uiso   1.00
C823   C     0.47009   0.16590   0.95685   0.00000  Uiso   1.00
C824   C     0.52984   0.16760   0.54315   0.00000  Uiso   1.00
C825   C     0.42525   0.14537   0.98303   0.00000  Uiso   1.00
C826   C     0.57467   0.18814   0.51698   0.00000  Uiso   1.00
C827   C     0.50545   0.17282   0.97656   0.00000  Uiso   1.00
C828   C     0.49446   0.16074   0.52345   0.00000  Uiso   1.00
C829   C     0.44796   0.14309   0.54957   0.00000  Uiso   1.00
C830   C     0.55192   0.19053   0.95047   0.00000  Uiso   1.00
C831   C     0.41442   0.13464   0.52973   0.00000  Uiso   1.00
C832   C     0.58547   0.19893   0.97029   0.00000  Uiso   1.00
H833   H     0.49036   0.13681   0.60957   0.00000  Uiso   1.00
H834   H     0.50967   0.19646   0.89036   0.00000  Uiso   1.00
H835   H     0.61818   0.20001   0.60283   0.00000  Uiso   1.00
H836   H     0.38176   0.13343   0.89717   0.00000  Uiso   1.00
H837   H     0.35832   0.12010   0.98020   0.00000  Uiso   1.00
H838   H     0.64161   0.21338   0.51980   0.00000  Uiso   1.00
H839   H     0.43575   0.13525   0.58601   0.00000  Uiso   1.00
H840   H     0.56410   0.19847   0.91406   0.00000  Uiso   1.00
C841   C     0.52679   0.30940   0.78070   0.00000  Uiso   1.00
C842   C     0.44804   0.02383   0.78079   0.00000  Uiso   1.00
C843   C     0.53343   0.01901   0.77337   0.00000  Uiso   1.00
C844   C     0.44732   0.31421   0.77367   0.00000  Uiso   1.00
C845   C     0.49402   0.04275   0.76922   0.00000  Uiso   1.00
C846   C     0.49018   0.29050   0.76935   0.00000  Uiso   1.00
C847   C     0.65940   0.16694   0.70889   0.00000  Uiso   1.00
C848   C     0.34059   0.16683   0.79106   0.00000  Uiso   1.00
H849   H     0.65475   0.16703   0.67602   0.00000  Uiso   1.00
H850   H     0.34521   0.16699   0.82394   0.00000  Uiso   1.00
C851   C     0.37393   0.16639   0.70888   0.00000  Uiso   1.00
C852   C     0.62611   0.16658   0.79107   0.00000  Uiso   1.00
H853   H     0.40501   0.16625   0.67574   0.00000  Uiso   1.00
H854   H     0.59505   0.16646   0.82423   0.00000  Uiso   1.00
N855   N     0.38093   0.16668   0.75001   0.00000  Uiso   1.00
N856   N     0.61907   0.16666   0.74999   0.00000  Uiso   1.00
I857   I     0.34875   0.10428   0.57360   0.00000  Uiso   1.00
I858   I     0.65116   0.22931   0.92641   0.00000  Uiso   1.00
I859   I     0.56410   0.27499   0.81773   0.00000  Uiso   1.00
I860   I     0.38044   0.05826   0.81775   0.00000  Uiso   1.00
C861   C     0.58226   0.03748   0.76917   0.00000  Uiso   1.00
C862   C     0.61782   0.04149   0.71764   0.00000  Uiso   1.00
C863   C     0.33394   0.05797   0.71399   0.00000  Uiso   1.00
H864   H     0.66201   0.08773   0.73321   0.00000  Uiso   1.00
H865   H     0.35175   0.03567   0.73003   0.00000  Uiso   1.00
H866   H     0.35840   0.06290   0.67675   0.00000  Uiso   1.00
H867   H     0.62350   0.01050   0.70036   0.00000  Uiso   1.00
H868   H     0.60284   0.06263   0.69784   0.00000  Uiso   1.00
H869   H     0.57676   0.06732   0.78855   0.00000  Uiso   1.00
H870   H     0.60101   0.01795   0.78679   0.00000  Uiso   1.00
C871   C     0.40180   0.29571   0.76976   0.00000  Uiso   1.00
C872   C     0.40822   0.29188   0.71831   0.00000  Uiso   1.00
C873   C     0.36165   0.27544   0.71486   0.00000  Uiso   1.00
H874   H     0.35113   0.24567   0.73418   0.00000  Uiso   1.00
H875   H     0.66410   0.29778   0.73082   0.00000  Uiso   1.00
H876   H     0.36765   0.27050   0.67766   0.00000  Uiso   1.00
H877   H     0.41670   0.32291   0.70102   0.00000  Uiso   1.00
H878   H     0.43940   0.27081   0.69837   0.00000  Uiso   1.00
H879   H     0.39158   0.26578   0.78912   0.00000  Uiso   1.00
H880   H     0.36860   0.31514   0.78758   0.00000  Uiso   1.00
O881   O     0.79512   0.22775   0.75001   0.00000  Uiso   1.00
O882   O     0.87154   0.10558   0.75000   0.00000  Uiso   1.00
O883   O     0.87157   0.22774   0.75000   0.00000  Uiso   1.00
O884   O     0.79510   0.10559   0.75000   0.00000  Uiso   1.00
C885   C     0.83045   0.24666   0.75557   0.00000  Uiso   1.00
C886   C     0.83168   0.08664   0.75549   0.00000  Uiso   1.00
O887   O     0.77328   0.16667   0.81613   0.00000  Uiso   1.00
O888   O     0.89339   0.16666   0.68388   0.00000  Uiso   1.00
O889   O     0.84972   0.16666   0.81612   0.00000  Uiso   1.00
O890   O     0.81695   0.16667   0.68388   0.00000  Uiso   1.00
C891   C     0.80243   0.16664   0.83803   0.00000  Uiso   1.00
C892   C     0.86423   0.16669   0.66197   0.00000  Uiso   1.00
Zn893  Zn    0.78229   0.16667   0.75000   0.00000  Uiso   1.00
Zn894  Zn    0.88438   0.16666   0.75000   0.00000  Uiso   1.00
C895   C     0.78260   0.16411   0.88875   0.00000  Uiso   1.00
C896   C     0.88405   0.16926   0.61123   0.00000  Uiso   1.00
C897   C     0.72600   0.13564   0.96148   0.00000  Uiso   1.00
C898   C     0.94061   0.19782   0.53852   0.00000  Uiso   1.00
C899   C     0.73872   0.14385   0.91412   0.00000  Uiso   1.00
C900   C     0.92790   0.18957   0.58587   0.00000  Uiso   1.00
C901   C     0.81219   0.17777   0.91093   0.00000  Uiso   1.00
C902   C     0.85446   0.15561   0.58904   0.00000  Uiso   1.00
C903   C     0.80342   0.16590   0.95685   0.00000  Uiso   1.00
C904   C     0.86317   0.16760   0.54315   0.00000  Uiso   1.00
C905   C     0.75858   0.14537   0.98303   0.00000  Uiso   1.00
C906   C     0.90801   0.18814   0.51698   0.00000  Uiso   1.00
C907   C     0.83878   0.17282   0.97656   0.00000  Uiso   1.00
C908   C     0.82779   0.16074   0.52345   0.00000  Uiso   1.00
C909   C     0.78130   0.14309   0.54957   0.00000  Uiso   1.00
C910   C     0.88525   0.19053   0.95047   0.00000  Uiso   1.00
C911   C     0.74776   0.13464   0.52973   0.00000  Uiso   1.00
C912   C     0.91881   0.19893   0.97029   0.00000  Uiso   1.00
H913   H     0.82370   0.13681   0.60957   0.00000  Uiso   1.00
H914   H     0.84300   0.19646   0.89036   0.00000  Uiso   1.00
H915   H     0.95151   0.20001   0.60283   0.00000  Uiso   1.00
H916   H     0.71510   0.13343   0.89717   0.00000  Uiso   1.00
H917   H     0.69165   0.12010   0.98020   0.00000  Uiso   1.00
H918   H     0.97494   0.21338   0.51980   0.00000  Uiso   1.00
H919   H     0.76909   0.13525   0.58601   0.00000  Uiso   1.00
H920   H     0.89743   0.19847   0.91406   0.00000  Uiso   1.00
C921   C     0.86013   0.30940   0.78070   0.00000  Uiso   1.00
C922   C     0.78138   0.02383   0.78079   0.00000  Uiso   1.00
C923   C     0.86676   0.01901   0.77337   0.00000  Uiso   1.00
C924   C     0.78065   0.31421   0.77367   0.00000  Uiso   1.00
C925   C     0.82735   0.04275   0.76922   0.00000  Uiso   1.00
C926   C     0.82352   0.29050   0.76935   0.00000  Uiso   1.00
C927   C     0.99273   0.16694   0.70889   0.00000  Uiso   1.00
C928   C     0.67392   0.16683   0.79106   0.00000  Uiso   1.00
H929   H     0.98809   0.16703   0.67602   0.00000  Uiso   1.00
H930   H     0.67855   0.16699   0.82394   0.00000  Uiso   1.00
C931   C     0.70727   0.16639   0.70888   0.00000  Uiso   1.00
C932   C     0.95945   0.16658   0.79107   0.00000  Uiso   1.00
H933   H     0.73834   0.16625   0.67574   0.00000  Uiso   1.00
H934   H     0.92838   0.16646   0.82423   0.00000  Uiso   1.00
N935   N     0.71426   0.16668   0.75001   0.00000  Uiso   1.00
N936   N     0.95241   0.16666   0.74999   0.00000  Uiso   1.00
I937   I     0.68208   0.10428   0.57360   0.00000  Uiso   1.00
I938   I     0.98449   0.22931   0.92641   0.00000  Uiso   1.00
I939   I     0.89744   0.27499   0.81773   0.00000  Uiso   1.00
I940   I     0.71378   0.05826   0.81775   0.00000  Uiso   1.00
C941   C     0.91560   0.03748   0.76917   0.00000  Uiso   1.00
C942   C     0.95115   0.04149   0.71764   0.00000  Uiso   1.00
C943   C     0.66727   0.05797   0.71399   0.00000  Uiso   1.00
H944   H     0.99535   0.08773   0.73321   0.00000  Uiso   1.00
H945   H     0.68508   0.03567   0.73003   0.00000  Uiso   1.00
H946   H     0.69174   0.06290   0.67675   0.00000  Uiso   1.00
H947   H     0.95683   0.01050   0.70036   0.00000  Uiso   1.00
H948   H     0.93617   0.06263   0.69784   0.00000  Uiso   1.00
H949   H     0.91010   0.06732   0.78855   0.00000  Uiso   1.00
H950   H     0.93434   0.01795   0.78679   0.00000  Uiso   1.00
C951   C     0.73514   0.29571   0.76976   0.00000  Uiso   1.00
C952   C     0.74156   0.29188   0.71831   0.00000  Uiso   1.00
C953   C     0.69499   0.27544   0.71486   0.00000  Uiso   1.00
H954   H     0.68446   0.24567   0.73418   0.00000  Uiso   1.00
H955   H     0.99743   0.29778   0.73082   0.00000  Uiso   1.00
H956   H     0.70098   0.27050   0.67766   0.00000  Uiso   1.00
H957   H     0.75004   0.32291   0.70102   0.00000  Uiso   1.00
H958   H     0.77273   0.27081   0.69837   0.00000  Uiso   1.00
H959   H     0.72491   0.26578   0.78912   0.00000  Uiso   1.00
H960   H     0.70193   0.31514   0.78758   0.00000  Uiso   1.00
O961   O     0.12846   0.56108   0.75001   0.00000  Uiso   1.00
O962   O     0.20488   0.43892   0.75000   0.00000  Uiso   1.00
O963   O     0.20490   0.56107   0.75000   0.00000  Uiso   1.00
O964   O     0.12843   0.43893   0.75000   0.00000  Uiso   1.00
C965   C     0.16378   0.58000   0.75557   0.00000  Uiso   1.00
C966   C     0.16502   0.41997   0.75549   0.00000  Uiso   1.00
O967   O     0.10661   0.50001   0.81613   0.00000  Uiso   1.00
O968   O     0.22672   0.49999   0.68388   0.00000  Uiso   1.00
O969   O     0.18305   0.50000   0.81612   0.00000  Uiso   1.00
O970   O     0.15028   0.50000   0.68388   0.00000  Uiso   1.00
C971   C     0.13576   0.49997   0.83803   0.00000  Uiso   1.00
C972   C     0.19757   0.50002   0.66197   0.00000  Uiso   1.00
Zn973  Zn    0.11562   0.50001   0.75000   0.00000  Uiso   1.00
Zn974  Zn    0.21771   0.49999   0.75000   0.00000  Uiso   1.00
C975   C     0.11593   0.49744   0.88875   0.00000  Uiso   1.00
C976   C     0.21738   0.50260   0.61123   0.00000  Uiso   1.00
C977   C     0.05933   0.46898   0.96148   0.00000  Uiso   1.00
C978   C     0.27394   0.53115   0.53852   0.00000  Uiso   1.00
C979   C     0.07206   0.47718   0.91412   0.00000  Uiso   1.00
C980   C     0.26123   0.52290   0.58587   0.00000  Uiso   1.00
C981   C     0.14552   0.51110   0.91093   0.00000  Uiso   1.00
C982   C     0.18779   0.48895   0.58904   0.00000  Uiso   1.00
C983   C     0.13676   0.49923   0.95685   0.00000  Uiso   1.00
C984   C     0.19651   0.50093   0.54315   0.00000  Uiso   1.00
C985   C     0.09192   0.47870   0.98303   0.00000  Uiso   1.00
C986   C     0.24134   0.52147   0.51698   0.00000  Uiso   1.00
C987   C     0.17212   0.50615   0.97656   0.00000  Uiso   1.00
C988   C     0.16112   0.49408   0.52345   0.00000  Uiso   1.00
C989   C     0.11463   0.47643   0.54957   0.00000  Uiso   1.00
C990   C     0.21858   0.52386   0.95047   0.00000  Uiso   1.00
C991   C     0.08109   0.46798   0.52973   0.00000  Uiso   1.00
C992   C     0.25214   0.53227   0.97029   0.00000  Uiso   1.00
H993   H     0.15703   0.47015   0.60957   0.00000  Uiso   1.00
H994   H     0.17634   0.52979   0.89036   0.00000  Uiso   1.00
H995   H     0.28484   0.53334   0.60283   0.00000  Uiso   1.00
H996   H     0.04843   0.46676   0.89717   0.00000  Uiso   1.00
H997   H     0.02499   0.45343   0.98020   0.00000  Uiso   1.00
H998   H     0.30828   0.54672   0.51980   0.00000  Uiso   1.00
H999   H     0.10242   0.46859   0.58601   0.00000  Uiso   1.00
H1000  H     0.23077   0.53181   0.91406   0.00000  Uiso   1.00
C1001  C     0.19346   0.64274   0.78070   0.00000  Uiso   1.00
C1002  C     0.11471   0.35716   0.78079   0.00000  Uiso   1.00
C1003  C     0.20009   0.35235   0.77337   0.00000  Uiso   1.00
C1004  C     0.11398   0.64755   0.77367   0.00000  Uiso   1.00
C1005  C     0.16069   0.37608   0.76922   0.00000  Uiso   1.00
C1006  C     0.15685   0.62383   0.76935   0.00000  Uiso   1.00
C1007  C     0.32606   0.50027   0.70889   0.00000  Uiso   1.00
C1008  C     0.00726   0.50017   0.79106   0.00000  Uiso   1.00
H1009  H     0.32142   0.50037   0.67602   0.00000  Uiso   1.00
H1010  H     0.01188   0.50032   0.82394   0.00000  Uiso   1.00
C1011  C     0.04060   0.49973   0.70888   0.00000  Uiso   1.00
C1012  C     0.29278   0.49992   0.79107   0.00000  Uiso   1.00
H1013  H     0.07167   0.49958   0.67574   0.00000  Uiso   1.00
H1014  H     0.26172   0.49979   0.82423   0.00000  Uiso   1.00
N1015  N     0.04759   0.50001   0.75001   0.00000  Uiso   1.00
N1016  N     0.28574   0.49999   0.74999   0.00000  Uiso   1.00
I1017  I     0.01541   0.43761   0.57360   0.00000  Uiso   1.00
I1018  I     0.31782   0.56264   0.92641   0.00000  Uiso   1.00
I1019  I     0.23077   0.60832   0.81773   0.00000  Uiso   1.00
I1020  I     0.04711   0.39160   0.81775   0.00000  Uiso   1.00
C1021  C     0.24893   0.37081   0.76917   0.00000  Uiso   1.00
C1022  C     0.28448   0.37483   0.71764   0.00000  Uiso   1.00
C1023  C     0.00061   0.39130   0.71399   0.00000  Uiso   1.00
H1024  H     0.32868   0.42106   0.73321   0.00000  Uiso   1.00
H1025  H     0.01842   0.36900   0.73003   0.00000  Uiso   1.00
H1026  H     0.02507   0.39623   0.67675   0.00000  Uiso   1.00
H1027  H     0.29016   0.34384   0.70036   0.00000  Uiso   1.00
H1028  H     0.26950   0.39597   0.69784   0.00000  Uiso   1.00
H1029  H     0.24343   0.40066   0.78855   0.00000  Uiso   1.00
H1030  H     0.26767   0.35128   0.78679   0.00000  Uiso   1.00
C1031  C     0.06847   0.62904   0.76976   0.00000  Uiso   1.00
C1032  C     0.07489   0.62521   0.71831   0.00000  Uiso   1.00
C1033  C     0.02832   0.60877   0.71486   0.00000  Uiso   1.00
H1034  H     0.01779   0.57901   0.73418   0.00000  Uiso   1.00
H1035  H     0.33077   0.63111   0.73082   0.00000  Uiso   1.00
H1036  H     0.03432   0.60384   0.67766   0.00000  Uiso   1.00
H1037  H     0.08337   0.65625   0.70102   0.00000  Uiso   1.00
H1038  H     0.10607   0.60414   0.69837   0.00000  Uiso   1.00
H1039  H     0.05825   0.59911   0.78912   0.00000  Uiso   1.00
H1040  H     0.03526   0.64847   0.78758   0.00000  Uiso   1.00
O1041  O     0.46179   0.56108   0.75001   0.00000  Uiso   1.00
O1042  O     0.53821   0.43892   0.75000   0.00000  Uiso   1.00
O1043  O     0.53823   0.56107   0.75000   0.00000  Uiso   1.00
O1044  O     0.46177   0.43893   0.75000   0.00000  Uiso   1.00
C1045  C     0.49712   0.58000   0.75557   0.00000  Uiso   1.00
C1046  C     0.49835   0.41997   0.75549   0.00000  Uiso   1.00
O1047  O     0.43994   0.50001   0.81613   0.00000  Uiso   1.00
O1048  O     0.56006   0.49999   0.68388   0.00000  Uiso   1.00
O1049  O     0.51639   0.50000   0.81612   0.00000  Uiso   1.00
O1050  O     0.48361   0.50000   0.68388   0.00000  Uiso   1.00
C1051  C     0.46910   0.49997   0.83803   0.00000  Uiso   1.00
C1052  C     0.53090   0.50002   0.66197   0.00000  Uiso   1.00
Zn1053 Zn    0.44896   0.50001   0.75000   0.00000  Uiso   1.00
Zn1054 Zn    0.55104   0.49999   0.75000   0.00000  Uiso   1.00
C1055  C     0.44927   0.49744   0.88875   0.00000  Uiso   1.00
C1056  C     0.55071   0.50260   0.61123   0.00000  Uiso   1.00
C1057  C     0.39267   0.46898   0.96148   0.00000  Uiso   1.00
C1058  C     0.60727   0.53115   0.53852   0.00000  Uiso   1.00
C1059  C     0.40539   0.47718   0.91412   0.00000  Uiso   1.00
C1060  C     0.59457   0.52290   0.58587   0.00000  Uiso   1.00
C1061  C     0.47885   0.51110   0.91093   0.00000  Uiso   1.00
C1062  C     0.52112   0.48895   0.58904   0.00000  Uiso   1.00
C1063  C     0.47009   0.49923   0.95685   0.00000  Uiso   1.00
C1064  C     0.52984   0.50093   0.54315   0.00000  Uiso   1.00
C1065  C     0.42525   0.47870   0.98303   0.00000  Uiso   1.00
C1066  C     0.57467   0.52147   0.51698   0.00000  Uiso   1.00
C1067  C     0.50545   0.50615   0.97656   0.00000  Uiso   1.00
C1068  C     0.49446   0.49408   0.52345   0.00000  Uiso   1.00
C1069  C     0.44796   0.47643   0.54957   0.00000  Uiso   1.00
C1070  C     0.55192   0.52386   0.95047   0.00000  Uiso   1.00
C1071  C     0.41442   0.46798   0.52973   0.00000  Uiso   1.00
C1072  C     0.58547   0.53227   0.97029   0.00000  Uiso   1.00
H1073  H     0.49036   0.47015   0.60957   0.00000  Uiso   1.00
H1074  H     0.50967   0.52979   0.89036   0.00000  Uiso   1.00
H1075  H     0.61818   0.53334   0.60283   0.00000  Uiso   1.00
H1076  H     0.38176   0.46676   0.89717   0.00000  Uiso   1.00
H1077  H     0.35832   0.45343   0.98020   0.00000  Uiso   1.00
H1078  H     0.64161   0.54672   0.51980   0.00000  Uiso   1.00
H1079  H     0.43575   0.46859   0.58601   0.00000  Uiso   1.00
H1080  H     0.56410   0.53181   0.91406   0.00000  Uiso   1.00
C1081  C     0.52679   0.64274   0.78070   0.00000  Uiso   1.00
C1082  C     0.44804   0.35716   0.78079   0.00000  Uiso   1.00
C1083  C     0.53343   0.35235   0.77337   0.00000  Uiso   1.00
C1084  C     0.44732   0.64755   0.77367   0.00000  Uiso   1.00
C1085  C     0.49402   0.37608   0.76922   0.00000  Uiso   1.00
C1086  C     0.49018   0.62383   0.76935   0.00000  Uiso   1.00
C1087  C     0.65940   0.50027   0.70889   0.00000  Uiso   1.00
C1088  C     0.34059   0.50017   0.79106   0.00000  Uiso   1.00
H1089  H     0.65475   0.50037   0.67602   0.00000  Uiso   1.00
H1090  H     0.34521   0.50032   0.82394   0.00000  Uiso   1.00
C1091  C     0.37393   0.49973   0.70888   0.00000  Uiso   1.00
C1092  C     0.62611   0.49992   0.79107   0.00000  Uiso   1.00
H1093  H     0.40501   0.49958   0.67574   0.00000  Uiso   1.00
H1094  H     0.59505   0.49979   0.82423   0.00000  Uiso   1.00
N1095  N     0.38093   0.50001   0.75001   0.00000  Uiso   1.00
N1096  N     0.61907   0.49999   0.74999   0.00000  Uiso   1.00
I1097  I     0.34875   0.43761   0.57360   0.00000  Uiso   1.00
I1098  I     0.65116   0.56264   0.92641   0.00000  Uiso   1.00
I1099  I     0.56410   0.60832   0.81773   0.00000  Uiso   1.00
I1100  I     0.38044   0.39160   0.81775   0.00000  Uiso   1.00
C1101  C     0.58226   0.37081   0.76917   0.00000  Uiso   1.00
C1102  C     0.61782   0.37483   0.71764   0.00000  Uiso   1.00
C1103  C     0.33394   0.39130   0.71399   0.00000  Uiso   1.00
H1104  H     0.66201   0.42106   0.73321   0.00000  Uiso   1.00
H1105  H     0.35175   0.36900   0.73003   0.00000  Uiso   1.00
H1106  H     0.35840   0.39623   0.67675   0.00000  Uiso   1.00
H1107  H     0.62350   0.34384   0.70036   0.00000  Uiso   1.00
H1108  H     0.60284   0.39597   0.69784   0.00000  Uiso   1.00
H1109  H     0.57676   0.40066   0.78855   0.00000  Uiso   1.00
H1110  H     0.60101   0.35128   0.78679   0.00000  Uiso   1.00
C1111  C     0.40180   0.62904   0.76976   0.00000  Uiso   1.00
C1112  C     0.40822   0.62521   0.71831   0.00000  Uiso   1.00
C1113  C     0.36165   0.60877   0.71486   0.00000  Uiso   1.00
H1114  H     0.35113   0.57901   0.73418   0.00000  Uiso   1.00
H1115  H     0.66410   0.63111   0.73082   0.00000  Uiso   1.00
H1116  H     0.36765   0.60384   0.67766   0.00000  Uiso   1.00
H1117  H     0.41670   0.65625   0.70102   0.00000  Uiso   1.00
H1118  H     0.43940   0.60414   0.69837   0.00000  Uiso   1.00
H1119  H     0.39158   0.59911   0.78912   0.00000  Uiso   1.00
H1120  H     0.36860   0.64847   0.78758   0.00000  Uiso   1.00
O1121  O     0.79512   0.56108   0.75001   0.00000  Uiso   1.00
O1122  O     0.87154   0.43892   0.75000   0.00000  Uiso   1.00
O1123  O     0.87157   0.56107   0.75000   0.00000  Uiso   1.00
O1124  O     0.79510   0.43893   0.75000   0.00000  Uiso   1.00
C1125  C     0.83045   0.58000   0.75557   0.00000  Uiso   1.00
C1126  C     0.83168   0.41997   0.75549   0.00000  Uiso   1.00
O1127  O     0.77328   0.50001   0.81613   0.00000  Uiso   1.00
O1128  O     0.89339   0.49999   0.68388   0.00000  Uiso   1.00
O1129  O     0.84972   0.50000   0.81612   0.00000  Uiso   1.00
O1130  O     0.81695   0.50000   0.68388   0.00000  Uiso   1.00
C1131  C     0.80243   0.49997   0.83803   0.00000  Uiso   1.00
C1132  C     0.86423   0.50002   0.66197   0.00000  Uiso   1.00
Zn1133 Zn    0.78229   0.50001   0.75000   0.00000  Uiso   1.00
Zn1134 Zn    0.88438   0.49999   0.75000   0.00000  Uiso   1.00
C1135  C     0.78260   0.49744   0.88875   0.00000  Uiso   1.00
C1136  C     0.88405   0.50260   0.61123   0.00000  Uiso   1.00
C1137  C     0.72600   0.46898   0.96148   0.00000  Uiso   1.00
C1138  C     0.94061   0.53115   0.53852   0.00000  Uiso   1.00
C1139  C     0.73872   0.47718   0.91412   0.00000  Uiso   1.00
C1140  C     0.92790   0.52290   0.58587   0.00000  Uiso   1.00
C1141  C     0.81219   0.51110   0.91093   0.00000  Uiso   1.00
C1142  C     0.85446   0.48895   0.58904   0.00000  Uiso   1.00
C1143  C     0.80342   0.49923   0.95685   0.00000  Uiso   1.00
C1144  C     0.86317   0.50093   0.54315   0.00000  Uiso   1.00
C1145  C     0.75858   0.47870   0.98303   0.00000  Uiso   1.00
C1146  C     0.90801   0.52147   0.51698   0.00000  Uiso   1.00
C1147  C     0.83878   0.50615   0.97656   0.00000  Uiso   1.00
C1148  C     0.82779   0.49408   0.52345   0.00000  Uiso   1.00
C1149  C     0.78130   0.47643   0.54957   0.00000  Uiso   1.00
C1150  C     0.88525   0.52386   0.95047   0.00000  Uiso   1.00
C1151  C     0.74776   0.46798   0.52973   0.00000  Uiso   1.00
C1152  C     0.91881   0.53227   0.97029   0.00000  Uiso   1.00
H1153  H     0.82370   0.47015   0.60957   0.00000  Uiso   1.00
H1154  H     0.84300   0.52979   0.89036   0.00000  Uiso   1.00
H1155  H     0.95151   0.53334   0.60283   0.00000  Uiso   1.00
H1156  H     0.71510   0.46676   0.89717   0.00000  Uiso   1.00
H1157  H     0.69165   0.45343   0.98020   0.00000  Uiso   1.00
H1158  H     0.97494   0.54672   0.51980   0.00000  Uiso   1.00
H1159  H     0.76909   0.46859   0.58601   0.00000  Uiso   1.00
H1160  H     0.89743   0.53181   0.91406   0.00000  Uiso   1.00
C1161  C     0.86013   0.64274   0.78070   0.00000  Uiso   1.00
C1162  C     0.78138   0.35716   0.78079   0.00000  Uiso   1.00
C1163  C     0.86676   0.35235   0.77337   0.00000  Uiso   1.00
C1164  C     0.78065   0.64755   0.77367   0.00000  Uiso   1.00
C1165  C     0.82735   0.37608   0.76922   0.00000  Uiso   1.00
C1166  C     0.82352   0.62383   0.76935   0.00000  Uiso   1.00
C1167  C     0.99273   0.50027   0.70889   0.00000  Uiso   1.00
C1168  C     0.67392   0.50017   0.79106   0.00000  Uiso   1.00
H1169  H     0.98809   0.50037   0.67602   0.00000  Uiso   1.00
H1170  H     0.67855   0.50032   0.82394   0.00000  Uiso   1.00
C1171  C     0.70727   0.49973   0.70888   0.00000  Uiso   1.00
C1172  C     0.95945   0.49992   0.79107   0.00000  Uiso   1.00
H1173  H     0.73834   0.49958   0.67574   0.00000  Uiso   1.00
H1174  H     0.92838   0.49979   0.82423   0.00000  Uiso   1.00
N1175  N     0.71426   0.50001   0.75001   0.00000  Uiso   1.00
N1176  N     0.95241   0.49999   0.74999   0.00000  Uiso   1.00
I1177  I     0.68208   0.43761   0.57360   0.00000  Uiso   1.00
I1178  I     0.98449   0.56264   0.92641   0.00000  Uiso   1.00
I1179  I     0.89744   0.60832   0.81773   0.00000  Uiso   1.00
I1180  I     0.71378   0.39160   0.81775   0.00000  Uiso   1.00
C1181  C     0.91560   0.37081   0.76917   0.00000  Uiso   1.00
C1182  C     0.95115   0.37483   0.71764   0.00000  Uiso   1.00
C1183  C     0.66727   0.39130   0.71399   0.00000  Uiso   1.00
H1184  H     0.99535   0.42106   0.73321   0.00000  Uiso   1.00
H1185  H     0.68508   0.36900   0.73003   0.00000  Uiso   1.00
H1186  H     0.69174   0.39623   0.67675   0.00000  Uiso   1.00
H1187  H     0.95683   0.34384   0.70036   0.00000  Uiso   1.00
H1188  H     0.93617   0.39597   0.69784   0.00000  Uiso   1.00
H1189  H     0.91010   0.40066   0.78855   0.00000  Uiso   1.00
H1190  H     0.93434   0.35128   0.78679   0.00000  Uiso   1.00
C1191  C     0.73514   0.62904   0.76976   0.00000  Uiso   1.00
C1192  C     0.74156   0.62521   0.71831   0.00000  Uiso   1.00
C1193  C     0.69499   0.60877   0.71486   0.00000  Uiso   1.00
H1194  H     0.68446   0.57901   0.73418   0.00000  Uiso   1.00
H1195  H     0.99743   0.63111   0.73082   0.00000  Uiso   1.00
H1196  H     0.70098   0.60384   0.67766   0.00000  Uiso   1.00
H1197  H     0.75004   0.65625   0.70102   0.00000  Uiso   1.00
H1198  H     0.77273   0.60414   0.69837   0.00000  Uiso   1.00
H1199  H     0.72491   0.59911   0.78912   0.00000  Uiso   1.00
H1200  H     0.70193   0.64847   0.78758   0.00000  Uiso   1.00
O1201  O     0.12846   0.89442   0.75001   0.00000  Uiso   1.00
O1202  O     0.20488   0.77225   0.75000   0.00000  Uiso   1.00
O1203  O     0.20490   0.89441   0.75000   0.00000  Uiso   1.00
O1204  O     0.12843   0.77226   0.75000   0.00000  Uiso   1.00
C1205  C     0.16378   0.91333   0.75557   0.00000  Uiso   1.00
C1206  C     0.16502   0.75330   0.75549   0.00000  Uiso   1.00
O1207  O     0.10661   0.83334   0.81613   0.00000  Uiso   1.00
O1208  O     0.22672   0.83333   0.68388   0.00000  Uiso   1.00
O1209  O     0.18305   0.83333   0.81612   0.00000  Uiso   1.00
O1210  O     0.15028   0.83334   0.68388   0.00000  Uiso   1.00
C1211  C     0.13576   0.83331   0.83803   0.00000  Uiso   1.00
C1212  C     0.19757   0.83335   0.66197   0.00000  Uiso   1.00
Zn1213 Zn    0.11562   0.83334   0.75000   0.00000  Uiso   1.00
Zn1214 Zn    0.21771   0.83333   0.75000   0.00000  Uiso   1.00
C1215  C     0.11593   0.83077   0.88875   0.00000  Uiso   1.00
C1216  C     0.21738   0.83593   0.61123   0.00000  Uiso   1.00
C1217  C     0.05933   0.80231   0.96148   0.00000  Uiso   1.00
C1218  C     0.27394   0.86449   0.53852   0.00000  Uiso   1.00
C1219  C     0.07206   0.81052   0.91412   0.00000  Uiso   1.00
C1220  C     0.26123   0.85623   0.58587   0.00000  Uiso   1.00
C1221  C     0.14552   0.84444   0.91093   0.00000  Uiso   1.00
C1222  C     0.18779   0.82228   0.58904   0.00000  Uiso   1.00
C1223  C     0.13676   0.83256   0.95685   0.00000  Uiso   1.00
C1224  C     0.19651   0.83427   0.54315   0.00000  Uiso   1.00
C1225  C     0.09192   0.81204   0.98303   0.00000  Uiso   1.00
C1226  C     0.24134   0.85481   0.51698   0.00000  Uiso   1.00
C1227  C     0.17212   0.83948   0.97656   0.00000  Uiso   1.00
C1228  C     0.16112   0.82741   0.52345   0.00000  Uiso   1.00
C1229  C     0.11463   0.80976   0.54957   0.00000  Uiso   1.00
C1230  C     0.21858   0.85720   0.95047   0.00000  Uiso   1.00
C1231  C     0.08109   0.80131   0.52973   0.00000  Uiso   1.00
C1232  C     0.25214   0.86560   0.97029   0.00000  Uiso   1.00
H1233  H     0.15703   0.80348   0.60957   0.00000  Uiso   1.00
H1234  H     0.17634   0.86313   0.89036   0.00000  Uiso   1.00
H1235  H     0.28484   0.86668   0.60283   0.00000  Uiso   1.00
H1236  H     0.04843   0.80009   0.89717   0.00000  Uiso   1.00
H1237  H     0.02499   0.78677   0.98020   0.00000  Uiso   1.00
H1238  H     0.30828   0.88005   0.51980   0.00000  Uiso   1.00
H1239  H     0.10242   0.80192   0.58601   0.00000  Uiso   1.00
H1240  H     0.23077   0.86514   0.91406   0.00000  Uiso   1.00
C1241  C     0.19346   0.97607   0.78070   0.00000  Uiso   1.00
C1242  C     0.11471   0.69050   0.78079   0.00000  Uiso   1.00
C1243  C     0.20009   0.68568   0.77337   0.00000  Uiso   1.00
C1244  C     0.11398   0.98088   0.77367   0.00000  Uiso   1.00
C1245  C     0.16069   0.70941   0.76922   0.00000  Uiso   1.00
C1246  C     0.15685   0.95717   0.76935   0.00000  Uiso   1.00
C1247  C     0.32606   0.83360   0.70889   0.00000  Uiso   1.00
C1248  C     0.00726   0.83350   0.79106   0.00000  Uiso   1.00
H1249  H     0.32142   0.83370   0.67602   0.00000  Uiso   1.00
H1250  H     0.01188   0.83365   0.82394   0.00000  Uiso   1.00
C1251  C     0.04060   0.83306   0.70888   0.00000  Uiso   1.00
C1252  C     0.29278   0.83325   0.79107   0.00000  Uiso   1.00
H1253  H     0.07167   0.83292   0.67574   0.00000  Uiso   1.00
H1254  H     0.26172   0.83313   0.82423   0.00000  Uiso   1.00
N1255  N     0.04759   0.83334   0.75001   0.00000  Uiso   1.00
N1256  N     0.28574   0.83332   0.74999   0.00000  Uiso   1.00
I1257  I     0.01541   0.77095   0.57360   0.00000  Uiso   1.00
I1258  I     0.31782   0.89597   0.92641   0.00000  Uiso   1.00
I1259  I     0.23077   0.94165   0.81773   0.00000  Uiso   1.00
I1260  I     0.04711   0.72493   0.81775   0.00000  Uiso   1.00
C1261  C     0.24893   0.70415   0.76917   0.00000  Uiso   1.00
C1262  C     0.28448   0.70816   0.71764   0.00000  Uiso   1.00
C1263  C     0.00061   0.72464   0.71399   0.00000  Uiso   1.00
H1264  H     0.32868   0.75439   0.73321   0.00000  Uiso   1.00
H1265  H     0.01842   0.70234   0.73003   0.00000  Uiso   1.00
H1266  H     0.02507   0.72957   0.67675   0.00000  Uiso   1.00
H1267  H     0.29016   0.67717   0.70036   0.00000  Uiso   1.00
H1268  H     0.26950   0.72930   0.69784   0.00000  Uiso   1.00
H1269  H     0.24343   0.73399   0.78855   0.00000  Uiso   1.00
H1270  H     0.26767   0.68461   0.78679   0.00000  Uiso   1.00
C1271  C     0.06847   0.96238   0.76976   0.00000  Uiso   1.00
C1272  C     0.07489   0.95855   0.71831   0.00000  Uiso   1.00
C1273  C     0.02832   0.94210   0.71486   0.00000  Uiso   1.00
H1274  H     0.01779   0.91234   0.73418   0.00000  Uiso   1.00
H1275  H     0.33077   0.96445   0.73082   0.00000  Uiso   1.00
H1276  H     0.03432   0.93717   0.67766   0.00000  Uiso   1.00
H1277  H     0.08337   0.98958   0.70102   0.00000  Uiso   1.00
H1278  H     0.10607   0.93748   0.69837   0.00000  Uiso   1.00
H1279  H     0.05825   0.93245   0.78912   0.00000  Uiso   1.00
H1280  H     0.03526   0.98181   0.78758   0.00000  Uiso   1.00
O1281  O     0.46179   0.89442   0.75001   0.00000  Uiso   1.00
O1282  O     0.53821   0.77225   0.75000   0.00000  Uiso   1.00
O1283  O     0.53823   0.89441   0.75000   0.00000  Uiso   1.00
O1284  O     0.46177   0.77226   0.75000   0.00000  Uiso   1.00
C1285  C     0.49712   0.91333   0.75557   0.00000  Uiso   1.00
C1286  C     0.49835   0.75330   0.75549   0.00000  Uiso   1.00
O1287  O     0.43994   0.83334   0.81613   0.00000  Uiso   1.00
O1288  O     0.56006   0.83333   0.68388   0.00000  Uiso   1.00
O1289  O     0.51639   0.83333   0.81612   0.00000  Uiso   1.00
O1290  O     0.48361   0.83334   0.68388   0.00000  Uiso   1.00
C1291  C     0.46910   0.83331   0.83803   0.00000  Uiso   1.00
C1292  C     0.53090   0.83335   0.66197   0.00000  Uiso   1.00
Zn1293 Zn    0.44896   0.83334   0.75000   0.00000  Uiso   1.00
Zn1294 Zn    0.55104   0.83333   0.75000   0.00000  Uiso   1.00
C1295  C     0.44927   0.83077   0.88875   0.00000  Uiso   1.00
C1296  C     0.55071   0.83593   0.61123   0.00000  Uiso   1.00
C1297  C     0.39267   0.80231   0.96148   0.00000  Uiso   1.00
C1298  C     0.60727   0.86449   0.53852   0.00000  Uiso   1.00
C1299  C     0.40539   0.81052   0.91412   0.00000  Uiso   1.00
C1300  C     0.59457   0.85623   0.58587   0.00000  Uiso   1.00
C1301  C     0.47885   0.84444   0.91093   0.00000  Uiso   1.00
C1302  C     0.52112   0.82228   0.58904   0.00000  Uiso   1.00
C1303  C     0.47009   0.83256   0.95685   0.00000  Uiso   1.00
C1304  C     0.52984   0.83427   0.54315   0.00000  Uiso   1.00
C1305  C     0.42525   0.81204   0.98303   0.00000  Uiso   1.00
C1306  C     0.57467   0.85481   0.51698   0.00000  Uiso   1.00
C1307  C     0.50545   0.83948   0.97656   0.00000  Uiso   1.00
C1308  C     0.49446   0.82741   0.52345   0.00000  Uiso   1.00
C1309  C     0.44796   0.80976   0.54957   0.00000  Uiso   1.00
C1310  C     0.55192   0.85720   0.95047   0.00000  Uiso   1.00
C1311  C     0.41442   0.80131   0.52973   0.00000  Uiso   1.00
C1312  C     0.58547   0.86560   0.97029   0.00000  Uiso   1.00
H1313  H     0.49036   0.80348   0.60957   0.00000  Uiso   1.00
H1314  H     0.50967   0.86313   0.89036   0.00000  Uiso   1.00
H1315  H     0.61818   0.86668   0.60283   0.00000  Uiso   1.00
H1316  H     0.38176   0.80009   0.89717   0.00000  Uiso   1.00
H1317  H     0.35832   0.78677   0.98020   0.00000  Uiso   1.00
H1318  H     0.64161   0.88005   0.51980   0.00000  Uiso   1.00
H1319  H     0.43575   0.80192   0.58601   0.00000  Uiso   1.00
H1320  H     0.56410   0.86514   0.91406   0.00000  Uiso   1.00
C1321  C     0.52679   0.97607   0.78070   0.00000  Uiso   1.00
C1322  C     0.44804   0.69050   0.78079   0.00000  Uiso   1.00
C1323  C     0.53343   0.68568   0.77337   0.00000  Uiso   1.00
C1324  C     0.44732   0.98088   0.77367   0.00000  Uiso   1.00
C1325  C     0.49402   0.70941   0.76922   0.00000  Uiso   1.00
C1326  C     0.49018   0.95717   0.76935   0.00000  Uiso   1.00
C1327  C     0.65940   0.83360   0.70889   0.00000  Uiso   1.00
C1328  C     0.34059   0.83350   0.79106   0.00000  Uiso   1.00
H1329  H     0.65475   0.83370   0.67602   0.00000  Uiso   1.00
H1330  H     0.34521   0.83365   0.82394   0.00000  Uiso   1.00
C1331  C     0.37393   0.83306   0.70888   0.00000  Uiso   1.00
C1332  C     0.62611   0.83325   0.79107   0.00000  Uiso   1.00
H1333  H     0.40501   0.83292   0.67574   0.00000  Uiso   1.00
H1334  H     0.59505   0.83313   0.82423   0.00000  Uiso   1.00
N1335  N     0.38093   0.83334   0.75001   0.00000  Uiso   1.00
N1336  N     0.61907   0.83332   0.74999   0.00000  Uiso   1.00
I1337  I     0.34875   0.77095   0.57360   0.00000  Uiso   1.00
I1338  I     0.65116   0.89597   0.92641   0.00000  Uiso   1.00
I1339  I     0.56410   0.94165   0.81773   0.00000  Uiso   1.00
I1340  I     0.38044   0.72493   0.81775   0.00000  Uiso   1.00
C1341  C     0.58226   0.70415   0.76917   0.00000  Uiso   1.00
C1342  C     0.61782   0.70816   0.71764   0.00000  Uiso   1.00
C1343  C     0.33394   0.72464   0.71399   0.00000  Uiso   1.00
H1344  H     0.66201   0.75439   0.73321   0.00000  Uiso   1.00
H1345  H     0.35175   0.70234   0.73003   0.00000  Uiso   1.00
H1346  H     0.35840   0.72957   0.67675   0.00000  Uiso   1.00
H1347  H     0.62350   0.67717   0.70036   0.00000  Uiso   1.00
H1348  H     0.60284   0.72930   0.69784   0.00000  Uiso   1.00
H1349  H     0.57676   0.73399   0.78855   0.00000  Uiso   1.00
H1350  H     0.60101   0.68461   0.78679   0.00000  Uiso   1.00
C1351  C     0.40180   0.96238   0.76976   0.00000  Uiso   1.00
C1352  C     0.40822   0.95855   0.71831   0.00000  Uiso   1.00
C1353  C     0.36165   0.94210   0.71486   0.00000  Uiso   1.00
H1354  H     0.35113   0.91234   0.73418   0.00000  Uiso   1.00
H1355  H     0.66410   0.96445   0.73082   0.00000  Uiso   1.00
H1356  H     0.36765   0.93717   0.67766   0.00000  Uiso   1.00
H1357  H     0.41670   0.98958   0.70102   0.00000  Uiso   1.00
H1358  H     0.43940   0.93748   0.69837   0.00000  Uiso   1.00
H1359  H     0.39158   0.93245   0.78912   0.00000  Uiso   1.00
H1360  H     0.36860   0.98181   0.78758   0.00000  Uiso   1.00
O1361  O     0.79512   0.89442   0.75001   0.00000  Uiso   1.00
O1362  O     0.87154   0.77225   0.75000   0.00000  Uiso   1.00
O1363  O     0.87157   0.89441   0.75000   0.00000  Uiso   1.00
O1364  O     0.79510   0.77226   0.75000   0.00000  Uiso   1.00
C1365  C     0.83045   0.91333   0.75557   0.00000  Uiso   1.00
C1366  C     0.83168   0.75330   0.75549   0.00000  Uiso   1.00
O1367  O     0.77328   0.83334   0.81613   0.00000  Uiso   1.00
O1368  O     0.89339   0.83333   0.68388   0.00000  Uiso   1.00
O1369  O     0.84972   0.83333   0.81612   0.00000  Uiso   1.00
O1370  O     0.81695   0.83334   0.68388   0.00000  Uiso   1.00
C1371  C     0.80243   0.83331   0.83803   0.00000  Uiso   1.00
C1372  C     0.86423   0.83335   0.66197   0.00000  Uiso   1.00
Zn1373 Zn    0.78229   0.83334   0.75000   0.00000  Uiso   1.00
Zn1374 Zn    0.88438   0.83333   0.75000   0.00000  Uiso   1.00
C1375  C     0.78260   0.83077   0.88875   0.00000  Uiso   1.00
C1376  C     0.88405   0.83593   0.61123   0.00000  Uiso   1.00
C1377  C     0.72600   0.80231   0.96148   0.00000  Uiso   1.00
C1378  C     0.94061   0.86449   0.53852   0.00000  Uiso   1.00
C1379  C     0.73872   0.81052   0.91412   0.00000  Uiso   1.00
C1380  C     0.92790   0.85623   0.58587   0.00000  Uiso   1.00
C1381  C     0.81219   0.84444   0.91093   0.00000  Uiso   1.00
C1382  C     0.85446   0.82228   0.58904   0.00000  Uiso   1.00
C1383  C     0.80342   0.83256   0.95685   0.00000  Uiso   1.00
C1384  C     0.86317   0.83427   0.54315   0.00000  Uiso   1.00
C1385  C     0.75858   0.81204   0.98303   0.00000  Uiso   1.00
C1386  C     0.90801   0.85481   0.51698   0.00000  Uiso   1.00
C1387  C     0.83878   0.83948   0.97656   0.00000  Uiso   1.00
C1388  C     0.82779   0.82741   0.52345   0.00000  Uiso   1.00
C1389  C     0.78130   0.80976   0.54957   0.00000  Uiso   1.00
C1390  C     0.88525   0.85720   0.95047   0.00000  Uiso   1.00
C1391  C     0.74776   0.80131   0.52973   0.00000  Uiso   1.00
C1392  C     0.91881   0.86560   0.97029   0.00000  Uiso   1.00
H1393  H     0.82370   0.80348   0.60957   0.00000  Uiso   1.00
H1394  H     0.84300   0.86313   0.89036   0.00000  Uiso   1.00
H1395  H     0.95151   0.86668   0.60283   0.00000  Uiso   1.00
H1396  H     0.71510   0.80009   0.89717   0.00000  Uiso   1.00
H1397  H     0.69165   0.78677   0.98020   0.00000  Uiso   1.00
H1398  H     0.97494   0.88005   0.51980   0.00000  Uiso   1.00
H1399  H     0.76909   0.80192   0.58601   0.00000  Uiso   1.00
H1400  H     0.89743   0.86514   0.91406   0.00000  Uiso   1.00
C1401  C     0.86013   0.97607   0.78070   0.00000  Uiso   1.00
C1402  C     0.78138   0.69050   0.78079   0.00000  Uiso   1.00
C1403  C     0.86676   0.68568   0.77337   0.00000  Uiso   1.00
C1404  C     0.78065   0.98088   0.77367   0.00000  Uiso   1.00
C1405  C     0.82735   0.70941   0.76922   0.00000  Uiso   1.00
C1406  C     0.82352   0.95717   0.76935   0.00000  Uiso   1.00
C1407  C     0.99273   0.83360   0.70889   0.00000  Uiso   1.00
C1408  C     0.67392   0.83350   0.79106   0.00000  Uiso   1.00
H1409  H     0.98809   0.83370   0.67602   0.00000  Uiso   1.00
H1410  H     0.67855   0.83365   0.82394   0.00000  Uiso   1.00
C1411  C     0.70727   0.83306   0.70888   0.00000  Uiso   1.00
C1412  C     0.95945   0.83325   0.79107   0.00000  Uiso   1.00
H1413  H     0.73834   0.83292   0.67574   0.00000  Uiso   1.00
H1414  H     0.92838   0.83313   0.82423   0.00000  Uiso   1.00
N1415  N     0.71426   0.83334   0.75001   0.00000  Uiso   1.00
N1416  N     0.95241   0.83332   0.74999   0.00000  Uiso   1.00
I1417  I     0.68208   0.77095   0.57360   0.00000  Uiso   1.00
I1418  I     0.98449   0.89597   0.92641   0.00000  Uiso   1.00
I1419  I     0.89744   0.94165   0.81773   0.00000  Uiso   1.00
I1420  I     0.71378   0.72493   0.81775   0.00000  Uiso   1.00
C1421  C     0.91560   0.70415   0.76917   0.00000  Uiso   1.00
C1422  C     0.95115   0.70816   0.71764   0.00000  Uiso   1.00
C1423  C     0.66727   0.72464   0.71399   0.00000  Uiso   1.00
H1424  H     0.99535   0.75439   0.73321   0.00000  Uiso   1.00
H1425  H     0.68508   0.70234   0.73003   0.00000  Uiso   1.00
H1426  H     0.69174   0.72957   0.67675   0.00000  Uiso   1.00
H1427  H     0.95683   0.67717   0.70036   0.00000  Uiso   1.00
H1428  H     0.93617   0.72930   0.69784   0.00000  Uiso   1.00
H1429  H     0.91010   0.73399   0.78855   0.00000  Uiso   1.00
H1430  H     0.93434   0.68461   0.78679   0.00000  Uiso   1.00
C1431  C     0.73514   0.96238   0.76976   0.00000  Uiso   1.00
C1432  C     0.74156   0.95855   0.71831   0.00000  Uiso   1.00
C1433  C     0.69499   0.94210   0.71486   0.00000  Uiso   1.00
H1434  H     0.68446   0.91234   0.73418   0.00000  Uiso   1.00
H1435  H     0.99743   0.96445   0.73082   0.00000  Uiso   1.00
H1436  H     0.70098   0.93717   0.67766   0.00000  Uiso   1.00
H1437  H     0.75004   0.98958   0.70102   0.00000  Uiso   1.00
H1438  H     0.77273   0.93748   0.69837   0.00000  Uiso   1.00
H1439  H     0.72491   0.93245   0.78912   0.00000  Uiso   1.00
H1440  H     0.70193   0.98181   0.78758   0.00000  Uiso   1.00
loop_
_geom_bond_atom_site_label_1
_geom_bond_atom_site_label_2
_geom_bond_distance
_geom_bond_site_symmetry_2
_ccdc_geom_bond_type
O1     C5      1.285   .     A
O1     Zn13    1.998   .     S
O2     C6      1.285   .     A
O2     Zn14    1.998   .     S
O3     Zn14    1.985   .     S
O3     C5      1.299   .     A
O4     Zn13    1.985   .     S
O4     C6      1.299   .     A
C5     C46     1.458   .     S
C6     C45     1.458   .     S
O7     C11     1.289   .     A
O7     Zn13    1.964   .     S
O8     Zn14    1.964   .     S
O8     C12     1.290   .     A
O9     Zn14    1.903   .     S
O9     C11     1.294   .     A
O10    C12     1.294   .     A
O10    Zn13    1.903   .     S
C11    C15     1.452   .     S
C12    C16     1.453   .     S
Zn13   N55     2.010   .     S
Zn14   N56     2.010   .     S
C15    C19     1.395   .     A
C15    C21     1.385   .     A
C16    C20     1.395   .     A
C16    C22     1.385   .     A
C17    H37     1.080   .     S
C17    C25     1.410   .     A
C17    C19     1.392   .     A
C18    C26     1.410   .     A
C18    H38     1.080   .     S
C18    C20     1.392   .     A
C19    H36     1.083   .     S
C20    H35     1.083   .     S
C21    H34     1.074   .     S
C21    C23     1.397   .     A
C22    C24     1.397   .     A
C22    H33     1.075   .     S
C23    C27     1.423   .     A
C23    C25     1.424   .     A
C24    C26     1.424   .     A
C24    C28     1.423   .     A
C25    C751    1.399   .     S
C26    C752    1.399   1_554 S
C27    C30     1.419   .     A
C27    C748    1.414   .     S
C28    C29     1.419   .     A
C28    C747    1.414   1_554 S
C29    H39     1.074   .     S
C29    C31     1.387   .     A
C30    H40     1.074   .     S
C30    C32     1.387   .     A
C31    I57     2.132   .     S
C31    C745    1.399   1_554 S
C32    I58     2.132   .     S
C32    C746    1.399   .     S
C41    C46     1.409   .     A
C41    I59     2.163   .     S
C41    C283    1.396   .     S
C42    I60     2.163   .     S
C42    C45     1.409   .     A
C42    C524    1.396   1_545 S
C43    C45     1.427   .     A
C43    C61     1.526   .     S
C43    C521    1.396   1_545 S
C44    C71     1.527   .     S
C44    C46     1.427   .     A
C44    C282    1.396   .     S
C47    H49     1.081   .     S
C47    N56     1.364   .     A
C47    C131    1.414   .     S
C48    N55     1.364   .     A
C48    H50     1.082   .     S
C48    C212    1.413   1_455 S
C51    N55     1.371   .     A
C51    H53     1.079   .     S
C51    C207    1.414   1_455 S
C52    H54     1.079   .     S
C52    N56     1.370   .     A
C52    C128    1.413   .     S
C61    H70     1.103   .     S
C61    H69     1.109   .     S
C61    C62     1.539   .     S
C62    H67     1.110   .     S
C62    H68     1.108   .     S
C62    C143    1.524   .     S
C63    H65     1.105   .     S
C63    H66     1.110   .     S
C63    C222    1.524   1_455 S
C63    H224    1.104   1_455 S
H64    C143    1.104   .     S
C71    H79     1.109   .     S
C71    H80     1.103   .     S
C71    C72     1.539   .     S
C72    H77     1.110   .     S
C72    H78     1.108   .     S
C72    C73     1.524   .     S
C73    H74     1.104   .     S
C73    H76     1.110   .     S
C73    H235    1.105   1_455 S
H75    C153    1.105   .     S
O81    C85     1.285   .     A
O81    Zn93    1.998   .     S
O82    C86     1.285   .     A
O82    Zn94    1.998   .     S
O83    Zn94    1.985   .     S
O83    C85     1.299   .     A
O84    Zn93    1.985   .     S
O84    C86     1.299   .     A
C85    C126    1.458   .     S
C86    C125    1.458   .     S
O87    C91     1.289   .     A
O87    Zn93    1.964   .     S
O88    Zn94    1.964   .     S
O88    C92     1.290   .     A
O89    Zn94    1.903   .     S
O89    C91     1.294   .     A
O90    C92     1.294   .     A
O90    Zn93    1.903   .     S
C91    C95     1.452   .     S
C92    C96     1.453   .     S
Zn93   N135    2.010   .     S
Zn94   N136    2.010   .     S
C95    C99     1.395   .     A
C95    C101    1.385   .     A
C96    C100    1.395   .     A
C96    C102    1.385   .     A
C97    H117    1.080   .     S
C97    C105    1.410   .     A
C97    C99     1.392   .     A
C98    C106    1.410   .     A
C98    H118    1.080   .     S
C98    C100    1.392   .     A
C99    H116    1.083   .     S
C100   H115    1.083   .     S
C101   H114    1.074   .     S
C101   C103    1.397   .     A
C102   C104    1.397   .     A
C102   H113    1.075   .     S
C103   C107    1.423   .     A
C103   C105    1.424   .     A
C104   C106    1.424   .     A
C104   C108    1.423   .     A
C105   C831    1.399   .     S
C106   C832    1.399   1_554 S
C107   C110    1.419   .     A
C107   C828    1.414   .     S
C108   C109    1.419   .     A
C108   C827    1.414   1_554 S
C109   H119    1.074   .     S
C109   C111    1.387   .     A
C110   H120    1.074   .     S
C110   C112    1.387   .     A
C111   I137    2.132   .     S
C111   C825    1.399   1_554 S
C112   I138    2.132   .     S
C112   C826    1.399   .     S
C121   C126    1.409   .     A
C121   I139    2.163   .     S
C121   C363    1.396   .     S
C122   I140    2.163   .     S
C122   C125    1.409   .     A
C122   C604    1.396   1_545 S
C123   C125    1.427   .     A
C123   C141    1.526   .     S
C123   C601    1.396   1_545 S
C124   C151    1.527   .     S
C124   C126    1.427   .     A
C124   C362    1.396   .     S
C127   H129    1.081   .     S
C127   N136    1.364   .     A
C127   C211    1.414   .     S
C128   N135    1.364   .     A
C128   H130    1.082   .     S
C131   N135    1.371   .     A
C131   H133    1.079   .     S
C132   H134    1.079   .     S
C132   N136    1.370   .     A
C132   C208    1.413   .     S
C141   H150    1.103   .     S
C141   H149    1.109   .     S
C141   C142    1.539   .     S
C142   H147    1.110   .     S
C142   H148    1.108   .     S
C142   C223    1.524   .     S
C143   H145    1.105   .     S
C143   H146    1.110   .     S
H144   C223    1.104   .     S
C151   H159    1.109   .     S
C151   H160    1.103   .     S
C151   C152    1.539   .     S
C152   H157    1.110   .     S
C152   H158    1.108   .     S
C152   C153    1.524   .     S
C153   H154    1.104   .     S
C153   H156    1.110   .     S
H155   C233    1.105   .     S
O161   C165    1.285   .     A
O161   Zn173   1.998   .     S
O162   C166    1.285   .     A
O162   Zn174   1.998   .     S
O163   Zn174   1.985   .     S
O163   C165    1.299   .     A
O164   Zn173   1.985   .     S
O164   C166    1.299   .     A
C165   C206    1.458   .     S
C166   C205    1.458   .     S
O167   C171    1.289   .     A
O167   Zn173   1.964   .     S
O168   Zn174   1.964   .     S
O168   C172    1.290   .     A
O169   Zn174   1.903   .     S
O169   C171    1.294   .     A
O170   C172    1.294   .     A
O170   Zn173   1.903   .     S
C171   C175    1.452   .     S
C172   C176    1.453   .     S
Zn173  N215    2.010   .     S
Zn174  N216    2.010   .     S
C175   C179    1.395   .     A
C175   C181    1.385   .     A
C176   C180    1.395   .     A
C176   C182    1.385   .     A
C177   H197    1.080   .     S
C177   C185    1.410   .     A
C177   C179    1.392   .     A
C178   C186    1.410   .     A
C178   H198    1.080   .     S
C178   C180    1.392   .     A
C179   H196    1.083   .     S
C180   H195    1.083   .     S
C181   H194    1.074   .     S
C181   C183    1.397   .     A
C182   C184    1.397   .     A
C182   H193    1.075   .     S
C183   C187    1.423   .     A
C183   C185    1.424   .     A
C184   C186    1.424   .     A
C184   C188    1.423   .     A
C185   C911    1.399   .     S
C186   C912    1.399   1_554 S
C187   C190    1.419   .     A
C187   C908    1.414   .     S
C188   C189    1.419   .     A
C188   C907    1.414   1_554 S
C189   H199    1.074   .     S
C189   C191    1.387   .     A
C190   H200    1.074   .     S
C190   C192    1.387   .     A
C191   I217    2.132   .     S
C191   C905    1.399   1_554 S
C192   I218    2.132   .     S
C192   C906    1.399   .     S
C201   C206    1.409   .     A
C201   I219    2.163   .     S
C201   C443    1.396   .     S
C202   I220    2.163   .     S
C202   C205    1.409   .     A
C202   C684    1.396   1_545 S
C203   C205    1.427   .     A
C203   C221    1.526   .     S
C203   C681    1.396   1_545 S
C204   C231    1.527   .     S
C204   C206    1.427   .     A
C204   C442    1.396   .     S
C207   H209    1.081   .     S
C207   N216    1.364   .     A
C207   C51     1.414   1_655 S
C208   N215    1.364   .     A
C208   H210    1.082   .     S
C211   N215    1.371   .     A
C211   H213    1.079   .     S
C212   H214    1.079   .     S
C212   N216    1.370   .     A
C212   C48     1.413   1_655 S
C221   H230    1.103   .     S
C221   H229    1.109   .     S
C221   C222    1.539   .     S
C222   H227    1.110   .     S
C222   H228    1.108   .     S
C222   C63     1.524   1_655 S
C223   H225    1.105   .     S
C223   H226    1.110   .     S
H224   C63     1.104   1_655 S
C231   H239    1.109   .     S
C231   H240    1.103   .     S
C231   C232    1.539   .     S
C232   H237    1.110   .     S
C232   H238    1.108   .     S
C232   C233    1.524   .     S
C233   H234    1.104   .     S
C233   H236    1.110   .     S
H235   C73     1.105   1_655 S
O241   C245    1.285   .     A
O241   Zn253   1.998   .     S
O242   C246    1.285   .     A
O242   Zn254   1.998   .     S
O243   Zn254   1.985   .     S
O243   C245    1.299   .     A
O244   Zn253   1.985   .     S
O244   C246    1.299   .     A
C245   C286    1.458   .     S
C246   C285    1.458   .     S
O247   C251    1.289   .     A
O247   Zn253   1.964   .     S
O248   Zn254   1.964   .     S
O248   C252    1.290   .     A
O249   Zn254   1.903   .     S
O249   C251    1.294   .     A
O250   C252    1.294   .     A
O250   Zn253   1.903   .     S
C251   C255    1.452   .     S
C252   C256    1.453   .     S
Zn253  N295    2.010   .     S
Zn254  N296    2.010   .     S
C255   C259    1.395   .     A
C255   C261    1.385   .     A
C256   C260    1.395   .     A
C256   C262    1.385   .     A
C257   H277    1.080   .     S
C257   C265    1.410   .     A
C257   C259    1.392   .     A
C258   C266    1.410   .     A
C258   H278    1.080   .     S
C258   C260    1.392   .     A
C259   H276    1.083   .     S
C260   H275    1.083   .     S
C261   H274    1.074   .     S
C261   C263    1.397   .     A
C262   C264    1.397   .     A
C262   H273    1.075   .     S
C263   C267    1.423   .     A
C263   C265    1.424   .     A
C264   C266    1.424   .     A
C264   C268    1.423   .     A
C265   C991    1.399   .     S
C266   C992    1.399   1_554 S
C267   C270    1.419   .     A
C267   C988    1.414   .     S
C268   C269    1.419   .     A
C268   C987    1.414   1_554 S
C269   H279    1.074   .     S
C269   C271    1.387   .     A
C270   H280    1.074   .     S
C270   C272    1.387   .     A
C271   I297    2.132   .     S
C271   C985    1.399   1_554 S
C272   I298    2.132   .     S
C272   C986    1.399   .     S
C281   C286    1.409   .     A
C281   I299    2.163   .     S
C281   C523    1.396   .     S
C282   I300    2.163   .     S
C282   C285    1.409   .     A
C283   C285    1.427   .     A
C283   C301    1.526   .     S
C284   C311    1.527   .     S
C284   C286    1.427   .     A
C284   C522    1.396   .     S
C287   H289    1.081   .     S
C287   N296    1.364   .     A
C287   C371    1.414   .     S
C288   N295    1.364   .     A
C288   H290    1.082   .     S
C288   C452    1.413   1_455 S
C291   N295    1.371   .     A
C291   H293    1.079   .     S
C291   C447    1.414   1_455 S
C292   H294    1.079   .     S
C292   N296    1.370   .     A
C292   C368    1.413   .     S
C301   H310    1.103   .     S
C301   H309    1.109   .     S
C301   C302    1.539   .     S
C302   H307    1.110   .     S
C302   H308    1.108   .     S
C302   C383    1.524   .     S
C303   H305    1.105   .     S
C303   H306    1.110   .     S
C303   C462    1.524   1_455 S
C303   H464    1.104   1_455 S
H304   C383    1.104   .     S
C311   H319    1.109   .     S
C311   H320    1.103   .     S
C311   C312    1.539   .     S
C312   H317    1.110   .     S
C312   H318    1.108   .     S
C312   C313    1.524   .     S
C313   H314    1.104   .     S
C313   H316    1.110   .     S
C313   H475    1.105   1_455 S
H315   C393    1.105   .     S
O321   C325    1.285   .     A
O321   Zn333   1.998   .     S
O322   C326    1.285   .     A
O322   Zn334   1.998   .     S
O323   Zn334   1.985   .     S
O323   C325    1.299   .     A
O324   Zn333   1.985   .     S
O324   C326    1.299   .     A
C325   C366    1.458   .     S
C326   C365    1.458   .     S
O327   C331    1.289   .     A
O327   Zn333   1.964   .     S
O328   Zn334   1.964   .     S
O328   C332    1.290   .     A
O329   Zn334   1.903   .     S
O329   C331    1.294   .     A
O330   C332    1.294   .     A
O330   Zn333   1.903   .     S
C331   C335    1.452   .     S
C332   C336    1.453   .     S
Zn333  N375    2.010   .     S
Zn334  N376    2.010   .     S
C335   C339    1.395   .     A
C335   C341    1.385   .     A
C336   C340    1.395   .     A
C336   C342    1.385   .     A
C337   H357    1.080   .     S
C337   C345    1.410   .     A
C337   C339    1.392   .     A
C338   C346    1.410   .     A
C338   H358    1.080   .     S
C338   C340    1.392   .     A
C339   H356    1.083   .     S
C340   H355    1.083   .     S
C341   H354    1.074   .     S
C341   C343    1.397   .     A
C342   C344    1.397   .     A
C342   H353    1.075   .     S
C343   C347    1.423   .     A
C343   C345    1.424   .     A
C344   C346    1.424   .     A
C344   C348    1.423   .     A
C345   C1071   1.399   .     S
C346   C1072   1.399   1_554 S
C347   C350    1.419   .     A
C347   C1068   1.414   .     S
C348   C349    1.419   .     A
C348   C1067   1.414   1_554 S
C349   H359    1.074   .     S
C349   C351    1.387   .     A
C350   H360    1.074   .     S
C350   C352    1.387   .     A
C351   I377    2.132   .     S
C351   C1065   1.399   1_554 S
C352   I378    2.132   .     S
C352   C1066   1.399   .     S
C361   C366    1.409   .     A
C361   I379    2.163   .     S
C361   C603    1.396   .     S
C362   I380    2.163   .     S
C362   C365    1.409   .     A
C363   C365    1.427   .     A
C363   C381    1.526   .     S
C364   C391    1.527   .     S
C364   C366    1.427   .     A
C364   C602    1.396   .     S
C367   H369    1.081   .     S
C367   N376    1.364   .     A
C367   C451    1.414   .     S
C368   N375    1.364   .     A
C368   H370    1.082   .     S
C371   N375    1.371   .     A
C371   H373    1.079   .     S
C372   H374    1.079   .     S
C372   N376    1.370   .     A
C372   C448    1.413   .     S
C381   H390    1.103   .     S
C381   H389    1.109   .     S
C381   C382    1.539   .     S
C382   H387    1.110   .     S
C382   H388    1.108   .     S
C382   C463    1.524   .     S
C383   H385    1.105   .     S
C383   H386    1.110   .     S
H384   C463    1.104   .     S
C391   H399    1.109   .     S
C391   H400    1.103   .     S
C391   C392    1.539   .     S
C392   H397    1.110   .     S
C392   H398    1.108   .     S
C392   C393    1.524   .     S
C393   H394    1.104   .     S
C393   H396    1.110   .     S
H395   C473    1.105   .     S
O401   C405    1.285   .     A
O401   Zn413   1.998   .     S
O402   C406    1.285   .     A
O402   Zn414   1.998   .     S
O403   Zn414   1.985   .     S
O403   C405    1.299   .     A
O404   Zn413   1.985   .     S
O404   C406    1.299   .     A
C405   C446    1.458   .     S
C406   C445    1.458   .     S
O407   C411    1.289   .     A
O407   Zn413   1.964   .     S
O408   Zn414   1.964   .     S
O408   C412    1.290   .     A
O409   Zn414   1.903   .     S
O409   C411    1.294   .     A
O410   C412    1.294   .     A
O410   Zn413   1.903   .     S
C411   C415    1.452   .     S
C412   C416    1.453   .     S
Zn413  N455    2.010   .     S
Zn414  N456    2.010   .     S
C415   C419    1.395   .     A
C415   C421    1.385   .     A
C416   C420    1.395   .     A
C416   C422    1.385   .     A
C417   H437    1.080   .     S
C417   C425    1.410   .     A
C417   C419    1.392   .     A
C418   C426    1.410   .     A
C418   H438    1.080   .     S
C418   C420    1.392   .     A
C419   H436    1.083   .     S
C420   H435    1.083   .     S
C421   H434    1.074   .     S
C421   C423    1.397   .     A
C422   C424    1.397   .     A
C422   H433    1.075   .     S
C423   C427    1.423   .     A
C423   C425    1.424   .     A
C424   C426    1.424   .     A
C424   C428    1.423   .     A
C425   C1151   1.399   .     S
C426   C1152   1.399   1_554 S
C427   C430    1.419   .     A
C427   C1148   1.414   .     S
C428   C429    1.419   .     A
C428   C1147   1.414   1_554 S
C429   H439    1.074   .     S
C429   C431    1.387   .     A
C430   H440    1.074   .     S
C430   C432    1.387   .     A
C431   I457    2.132   .     S
C431   C1145   1.399   1_554 S
C432   I458    2.132   .     S
C432   C1146   1.399   .     S
C441   C446    1.409   .     A
C441   I459    2.163   .     S
C441   C683    1.396   .     S
C442   I460    2.163   .     S
C442   C445    1.409   .     A
C443   C445    1.427   .     A
C443   C461    1.526   .     S
C444   C471    1.527   .     S
C444   C446    1.427   .     A
C444   C682    1.396   .     S
C447   H449    1.081   .     S
C447   N456    1.364   .     A
C447   C291    1.414   1_655 S
C448   N455    1.364   .     A
C448   H450    1.082   .     S
C451   N455    1.371   .     A
C451   H453    1.079   .     S
C452   H454    1.079   .     S
C452   N456    1.370   .     A
C452   C288    1.413   1_655 S
C461   H470    1.103   .     S
C461   H469    1.109   .     S
C461   C462    1.539   .     S
C462   H467    1.110   .     S
C462   H468    1.108   .     S
C462   C303    1.524   1_655 S
C463   H465    1.105   .     S
C463   H466    1.110   .     S
H464   C303    1.104   1_655 S
C471   H479    1.109   .     S
C471   H480    1.103   .     S
C471   C472    1.539   .     S
C472   H477    1.110   .     S
C472   H478    1.108   .     S
C472   C473    1.524   .     S
C473   H474    1.104   .     S
C473   H476    1.110   .     S
H475   C313    1.105   1_655 S
O481   C485    1.285   .     A
O481   Zn493   1.998   .     S
O482   C486    1.285   .     A
O482   Zn494   1.998   .     S
O483   Zn494   1.985   .     S
O483   C485    1.299   .     A
O484   Zn493   1.985   .     S
O484   C486    1.299   .     A
C485   C526    1.458   .     S
C486   C525    1.458   .     S
O487   C491    1.289   .     A
O487   Zn493   1.964   .     S
O488   Zn494   1.964   .     S
O488   C492    1.290   .     A
O489   Zn494   1.903   .     S
O489   C491    1.294   .     A
O490   C492    1.294   .     A
O490   Zn493   1.903   .     S
C491   C495    1.452   .     S
C492   C496    1.453   .     S
Zn493  N535    2.010   .     S
Zn494  N536    2.010   .     S
C495   C499    1.395   .     A
C495   C501    1.385   .     A
C496   C500    1.395   .     A
C496   C502    1.385   .     A
C497   H517    1.080   .     S
C497   C505    1.410   .     A
C497   C499    1.392   .     A
C498   C506    1.410   .     A
C498   H518    1.080   .     S
C498   C500    1.392   .     A
C499   H516    1.083   .     S
C500   H515    1.083   .     S
C501   H514    1.074   .     S
C501   C503    1.397   .     A
C502   C504    1.397   .     A
C502   H513    1.075   .     S
C503   C507    1.423   .     A
C503   C505    1.424   .     A
C504   C506    1.424   .     A
C504   C508    1.423   .     A
C505   C1231   1.399   .     S
C506   C1232   1.399   1_554 S
C507   C510    1.419   .     A
C507   C1228   1.414   .     S
C508   C509    1.419   .     A
C508   C1227   1.414   1_554 S
C509   H519    1.074   .     S
C509   C511    1.387   .     A
C510   H520    1.074   .     S
C510   C512    1.387   .     A
C511   I537    2.132   .     S
C511   C1225   1.399   1_554 S
C512   I538    2.132   .     S
C512   C1226   1.399   .     S
C521   C526    1.409   .     A
C521   I539    2.163   .     S
C521   C43     1.396   1_565 S
C522   I540    2.163   .     S
C522   C525    1.409   .     A
C523   C525    1.427   .     A
C523   C541    1.526   .     S
C524   C551    1.527   .     S
C524   C526    1.427   .     A
C524   C42     1.396   1_565 S
C527   H529    1.081   .     S
C527   N536    1.364   .     A
C527   C611    1.414   .     S
C528   N535    1.364   .     A
C528   H530    1.082   .     S
C528   C692    1.413   1_455 S
C531   N535    1.371   .     A
C531   H533    1.079   .     S
C531   C687    1.414   1_455 S
C532   H534    1.079   .     S
C532   N536    1.370   .     A
C532   C608    1.413   .     S
C541   H550    1.103   .     S
C541   H549    1.109   .     S
C541   C542    1.539   .     S
C542   H547    1.110   .     S
C542   H548    1.108   .     S
C542   C623    1.524   .     S
C543   H545    1.105   .     S
C543   H546    1.110   .     S
C543   C702    1.524   1_455 S
C543   H704    1.104   1_455 S
H544   C623    1.104   .     S
C551   H559    1.109   .     S
C551   H560    1.103   .     S
C551   C552    1.539   .     S
C552   H557    1.110   .     S
C552   H558    1.108   .     S
C552   C553    1.524   .     S
C553   H554    1.104   .     S
C553   H556    1.110   .     S
C553   H715    1.105   1_455 S
H555   C633    1.105   .     S
O561   C565    1.285   .     A
O561   Zn573   1.998   .     S
O562   C566    1.285   .     A
O562   Zn574   1.998   .     S
O563   Zn574   1.985   .     S
O563   C565    1.299   .     A
O564   Zn573   1.985   .     S
O564   C566    1.299   .     A
C565   C606    1.458   .     S
C566   C605    1.458   .     S
O567   C571    1.289   .     A
O567   Zn573   1.964   .     S
O568   Zn574   1.964   .     S
O568   C572    1.290   .     A
O569   Zn574   1.903   .     S
O569   C571    1.294   .     A
O570   C572    1.294   .     A
O570   Zn573   1.903   .     S
C571   C575    1.452   .     S
C572   C576    1.453   .     S
Zn573  N615    2.010   .     S
Zn574  N616    2.010   .     S
C575   C579    1.395   .     A
C575   C581    1.385   .     A
C576   C580    1.395   .     A
C576   C582    1.385   .     A
C577   H597    1.080   .     S
C577   C585    1.410   .     A
C577   C579    1.392   .     A
C578   C586    1.410   .     A
C578   H598    1.080   .     S
C578   C580    1.392   .     A
C579   H596    1.083   .     S
C580   H595    1.083   .     S
C581   H594    1.074   .     S
C581   C583    1.397   .     A
C582   C584    1.397   .     A
C582   H593    1.075   .     S
C583   C587    1.423   .     A
C583   C585    1.424   .     A
C584   C586    1.424   .     A
C584   C588    1.423   .     A
C585   C1311   1.399   .     S
C586   C1312   1.399   1_554 S
C587   C590    1.419   .     A
C587   C1308   1.414   .     S
C588   C589    1.419   .     A
C588   C1307   1.414   1_554 S
C589   H599    1.074   .     S
C589   C591    1.387   .     A
C590   H600    1.074   .     S
C590   C592    1.387   .     A
C591   I617    2.132   .     S
C591   C1305   1.399   1_554 S
C592   I618    2.132   .     S
C592   C1306   1.399   .     S
C601   C606    1.409   .     A
C601   I619    2.163   .     S
C601   C123    1.396   1_565 S
C602   I620    2.163   .     S
C602   C605    1.409   .     A
C603   C605    1.427   .     A
C603   C621    1.526   .     S
C604   C631    1.527   .     S
C604   C606    1.427   .     A
C604   C122    1.396   1_565 S
C607   H609    1.081   .     S
C607   N616    1.364   .     A
C607   C691    1.414   .     S
C608   N615    1.364   .     A
C608   H610    1.082   .     S
C611   N615    1.371   .     A
C611   H613    1.079   .     S
C612   H614    1.079   .     S
C612   N616    1.370   .     A
C612   C688    1.413   .     S
C621   H630    1.103   .     S
C621   H629    1.109   .     S
C621   C622    1.539   .     S
C622   H627    1.110   .     S
C622   H628    1.108   .     S
C622   C703    1.524   .     S
C623   H625    1.105   .     S
C623   H626    1.110   .     S
H624   C703    1.104   .     S
C631   H639    1.109   .     S
C631   H640    1.103   .     S
C631   C632    1.539   .     S
C632   H637    1.110   .     S
C632   H638    1.108   .     S
C632   C633    1.524   .     S
C633   H634    1.104   .     S
C633   H636    1.110   .     S
H635   C713    1.105   .     S
O641   C645    1.285   .     A
O641   Zn653   1.998   .     S
O642   C646    1.285   .     A
O642   Zn654   1.998   .     S
O643   Zn654   1.985   .     S
O643   C645    1.299   .     A
O644   Zn653   1.985   .     S
O644   C646    1.299   .     A
C645   C686    1.458   .     S
C646   C685    1.458   .     S
O647   C651    1.289   .     A
O647   Zn653   1.964   .     S
O648   Zn654   1.964   .     S
O648   C652    1.290   .     A
O649   Zn654   1.903   .     S
O649   C651    1.294   .     A
O650   C652    1.294   .     A
O650   Zn653   1.903   .     S
C651   C655    1.452   .     S
C652   C656    1.453   .     S
Zn653  N695    2.010   .     S
Zn654  N696    2.010   .     S
C655   C659    1.395   .     A
C655   C661    1.385   .     A
C656   C660    1.395   .     A
C656   C662    1.385   .     A
C657   H677    1.080   .     S
C657   C665    1.410   .     A
C657   C659    1.392   .     A
C658   C666    1.410   .     A
C658   H678    1.080   .     S
C658   C660    1.392   .     A
C659   H676    1.083   .     S
C660   H675    1.083   .     S
C661   H674    1.074   .     S
C661   C663    1.397   .     A
C662   C664    1.397   .     A
C662   H673    1.075   .     S
C663   C667    1.423   .     A
C663   C665    1.424   .     A
C664   C666    1.424   .     A
C664   C668    1.423   .     A
C665   C1391   1.399   .     S
C666   C1392   1.399   1_554 S
C667   C670    1.419   .     A
C667   C1388   1.414   .     S
C668   C669    1.419   .     A
C668   C1387   1.414   1_554 S
C669   H679    1.074   .     S
C669   C671    1.387   .     A
C670   H680    1.074   .     S
C670   C672    1.387   .     A
C671   I697    2.132   .     S
C671   C1385   1.399   1_554 S
C672   I698    2.132   .     S
C672   C1386   1.399   .     S
C681   C686    1.409   .     A
C681   I699    2.163   .     S
C681   C203    1.396   1_565 S
C682   I700    2.163   .     S
C682   C685    1.409   .     A
C683   C685    1.427   .     A
C683   C701    1.526   .     S
C684   C711    1.527   .     S
C684   C686    1.427   .     A
C684   C202    1.396   1_565 S
C687   H689    1.081   .     S
C687   N696    1.364   .     A
C687   C531    1.414   1_655 S
C688   N695    1.364   .     A
C688   H690    1.082   .     S
C691   N695    1.371   .     A
C691   H693    1.079   .     S
C692   H694    1.079   .     S
C692   N696    1.370   .     A
C692   C528    1.413   1_655 S
C701   H710    1.103   .     S
C701   H709    1.109   .     S
C701   C702    1.539   .     S
C702   H707    1.110   .     S
C702   H708    1.108   .     S
C702   C543    1.524   1_655 S
C703   H705    1.105   .     S
C703   H706    1.110   .     S
H704   C543    1.104   1_655 S
C711   H719    1.109   .     S
C711   H720    1.103   .     S
C711   C712    1.539   .     S
C712   H717    1.110   .     S
C712   H718    1.108   .     S
C712   C713    1.524   .     S
C713   H714    1.104   .     S
C713   H716    1.110   .     S
H715   C553    1.105   1_655 S
O721   C725    1.285   .     A
O721   Zn733   1.998   .     S
O722   C726    1.285   .     A
O722   Zn734   1.998   .     S
O723   Zn734   1.985   .     S
O723   C725    1.299   .     A
O724   Zn733   1.985   .     S
O724   C726    1.299   .     A
C725   C766    1.458   .     S
C726   C765    1.458   .     S
O727   C731    1.289   .     A
O727   Zn733   1.964   .     S
O728   Zn734   1.964   .     S
O728   C732    1.290   .     A
O729   Zn734   1.903   .     S
O729   C731    1.294   .     A
O730   C732    1.294   .     A
O730   Zn733   1.903   .     S
C731   C735    1.452   .     S
C732   C736    1.453   .     S
Zn733  N775    2.010   .     S
Zn734  N776    2.010   .     S
C735   C739    1.395   .     A
C735   C741    1.385   .     A
C736   C740    1.395   .     A
C736   C742    1.385   .     A
C737   H757    1.080   .     S
C737   C745    1.410   .     A
C737   C739    1.392   .     A
C738   C746    1.410   .     A
C738   H758    1.080   .     S
C738   C740    1.392   .     A
C739   H756    1.083   .     S
C740   H755    1.083   .     S
C741   H754    1.074   .     S
C741   C743    1.397   .     A
C742   C744    1.397   .     A
C742   H753    1.075   .     S
C743   C747    1.423   .     A
C743   C745    1.424   .     A
C744   C746    1.424   .     A
C744   C748    1.423   .     A
C745   C31     1.399   1_556 S
C747   C750    1.419   .     A
C747   C28     1.414   1_556 S
C748   C749    1.419   .     A
C749   H759    1.074   .     S
C749   C751    1.387   .     A
C750   H760    1.074   .     S
C750   C752    1.387   .     A
C751   I777    2.132   .     S
C752   I778    2.132   .     S
C752   C26     1.399   1_556 S
C761   C766    1.409   .     A
C761   I779    2.163   .     S
C761   C1003   1.396   .     S
C762   I780    2.163   .     S
C762   C765    1.409   .     A
C762   C1244   1.396   1_545 S
C763   C765    1.427   .     A
C763   C781    1.526   .     S
C763   C1241   1.396   1_545 S
C764   C791    1.527   .     S
C764   C766    1.427   .     A
C764   C1002   1.396   .     S
C767   H769    1.081   .     S
C767   N776    1.364   .     A
C767   C851    1.414   .     S
C768   N775    1.364   .     A
C768   H770    1.082   .     S
C768   C932    1.413   1_455 S
C771   N775    1.371   .     A
C771   H773    1.079   .     S
C771   C927    1.414   1_455 S
C772   H774    1.079   .     S
C772   N776    1.370   .     A
C772   C848    1.413   .     S
C781   H790    1.103   .     S
C781   H789    1.109   .     S
C781   C782    1.539   .     S
C782   H787    1.110   .     S
C782   H788    1.108   .     S
C782   C863    1.524   .     S
C783   H785    1.105   .     S
C783   H786    1.110   .     S
C783   C942    1.524   1_455 S
C783   H944    1.104   1_455 S
H784   C863    1.104   .     S
C791   H799    1.109   .     S
C791   H800    1.103   .     S
C791   C792    1.539   .     S
C792   H797    1.110   .     S
C792   H798    1.108   .     S
C792   C793    1.524   .     S
C793   H794    1.104   .     S
C793   H796    1.110   .     S
C793   H955    1.105   1_455 S
H795   C873    1.105   .     S
O801   C805    1.285   .     A
O801   Zn813   1.998   .     S
O802   C806    1.285   .     A
O802   Zn814   1.998   .     S
O803   Zn814   1.985   .     S
O803   C805    1.299   .     A
O804   Zn813   1.985   .     S
O804   C806    1.299   .     A
C805   C846    1.458   .     S
C806   C845    1.458   .     S
O807   C811    1.289   .     A
O807   Zn813   1.964   .     S
O808   Zn814   1.964   .     S
O808   C812    1.290   .     A
O809   Zn814   1.903   .     S
O809   C811    1.294   .     A
O810   C812    1.294   .     A
O810   Zn813   1.903   .     S
C811   C815    1.452   .     S
C812   C816    1.453   .     S
Zn813  N855    2.010   .     S
Zn814  N856    2.010   .     S
C815   C819    1.395   .     A
C815   C821    1.385   .     A
C816   C820    1.395   .     A
C816   C822    1.385   .     A
C817   H837    1.080   .     S
C817   C825    1.410   .     A
C817   C819    1.392   .     A
C818   C826    1.410   .     A
C818   H838    1.080   .     S
C818   C820    1.392   .     A
C819   H836    1.083   .     S
C820   H835    1.083   .     S
C821   H834    1.074   .     S
C821   C823    1.397   .     A
C822   C824    1.397   .     A
C822   H833    1.075   .     S
C823   C827    1.423   .     A
C823   C825    1.424   .     A
C824   C826    1.424   .     A
C824   C828    1.423   .     A
C825   C111    1.399   1_556 S
C827   C830    1.419   .     A
C827   C108    1.414   1_556 S
C828   C829    1.419   .     A
C829   H839    1.074   .     S
C829   C831    1.387   .     A
C830   H840    1.074   .     S
C830   C832    1.387   .     A
C831   I857    2.132   .     S
C832   I858    2.132   .     S
C832   C106    1.399   1_556 S
C841   C846    1.409   .     A
C841   I859    2.163   .     S
C841   C1083   1.396   .     S
C842   I860    2.163   .     S
C842   C845    1.409   .     A
C842   C1324   1.396   1_545 S
C843   C845    1.427   .     A
C843   C861    1.526   .     S
C843   C1321   1.396   1_545 S
C844   C871    1.527   .     S
C844   C846    1.427   .     A
C844   C1082   1.396   .     S
C847   H849    1.081   .     S
C847   N856    1.364   .     A
C847   C931    1.414   .     S
C848   N855    1.364   .     A
C848   H850    1.082   .     S
C851   N855    1.371   .     A
C851   H853    1.079   .     S
C852   H854    1.079   .     S
C852   N856    1.370   .     A
C852   C928    1.413   .     S
C861   H870    1.103   .     S
C861   H869    1.109   .     S
C861   C862    1.539   .     S
C862   H867    1.110   .     S
C862   H868    1.108   .     S
C862   C943    1.524   .     S
C863   H865    1.105   .     S
C863   H866    1.110   .     S
H864   C943    1.104   .     S
C871   H879    1.109   .     S
C871   H880    1.103   .     S
C871   C872    1.539   .     S
C872   H877    1.110   .     S
C872   H878    1.108   .     S
C872   C873    1.524   .     S
C873   H874    1.104   .     S
C873   H876    1.110   .     S
H875   C953    1.105   .     S
O881   C885    1.285   .     A
O881   Zn893   1.998   .     S
O882   C886    1.285   .     A
O882   Zn894   1.998   .     S
O883   Zn894   1.985   .     S
O883   C885    1.299   .     A
O884   Zn893   1.985   .     S
O884   C886    1.299   .     A
C885   C926    1.458   .     S
C886   C925    1.458   .     S
O887   C891    1.289   .     A
O887   Zn893   1.964   .     S
O888   Zn894   1.964   .     S
O888   C892    1.290   .     A
O889   Zn894   1.903   .     S
O889   C891    1.294   .     A
O890   C892    1.294   .     A
O890   Zn893   1.903   .     S
C891   C895    1.452   .     S
C892   C896    1.453   .     S
Zn893  N935    2.010   .     S
Zn894  N936    2.010   .     S
C895   C899    1.395   .     A
C895   C901    1.385   .     A
C896   C900    1.395   .     A
C896   C902    1.385   .     A
C897   H917    1.080   .     S
C897   C905    1.410   .     A
C897   C899    1.392   .     A
C898   C906    1.410   .     A
C898   H918    1.080   .     S
C898   C900    1.392   .     A
C899   H916    1.083   .     S
C900   H915    1.083   .     S
C901   H914    1.074   .     S
C901   C903    1.397   .     A
C902   C904    1.397   .     A
C902   H913    1.075   .     S
C903   C907    1.423   .     A
C903   C905    1.424   .     A
C904   C906    1.424   .     A
C904   C908    1.423   .     A
C905   C191    1.399   1_556 S
C907   C910    1.419   .     A
C907   C188    1.414   1_556 S
C908   C909    1.419   .     A
C909   H919    1.074   .     S
C909   C911    1.387   .     A
C910   H920    1.074   .     S
C910   C912    1.387   .     A
C911   I937    2.132   .     S
C912   I938    2.132   .     S
C912   C186    1.399   1_556 S
C921   C926    1.409   .     A
C921   I939    2.163   .     S
C921   C1163   1.396   .     S
C922   I940    2.163   .     S
C922   C925    1.409   .     A
C922   C1404   1.396   1_545 S
C923   C925    1.427   .     A
C923   C941    1.526   .     S
C923   C1401   1.396   1_545 S
C924   C951    1.527   .     S
C924   C926    1.427   .     A
C924   C1162   1.396   .     S
C927   H929    1.081   .     S
C927   N936    1.364   .     A
C927   C771    1.414   1_655 S
C928   N935    1.364   .     A
C928   H930    1.082   .     S
C931   N935    1.371   .     A
C931   H933    1.079   .     S
C932   H934    1.079   .     S
C932   N936    1.370   .     A
C932   C768    1.413   1_655 S
C941   H950    1.103   .     S
C941   H949    1.109   .     S
C941   C942    1.539   .     S
C942   H947    1.110   .     S
C942   H948    1.108   .     S
C942   C783    1.524   1_655 S
C943   H945    1.105   .     S
C943   H946    1.110   .     S
H944   C783    1.104   1_655 S
C951   H959    1.109   .     S
C951   H960    1.103   .     S
C951   C952    1.539   .     S
C952   H957    1.110   .     S
C952   H958    1.108   .     S
C952   C953    1.524   .     S
C953   H954    1.104   .     S
C953   H956    1.110   .     S
H955   C793    1.105   1_655 S
O961   C965    1.285   .     A
O961   Zn973   1.998   .     S
O962   C966    1.285   .     A
O962   Zn974   1.998   .     S
O963   Zn974   1.985   .     S
O963   C965    1.299   .     A
O964   Zn973   1.985   .     S
O964   C966    1.299   .     A
C965   C1006   1.458   .     S
C966   C1005   1.458   .     S
O967   C971    1.289   .     A
O967   Zn973   1.964   .     S
O968   Zn974   1.964   .     S
O968   C972    1.290   .     A
O969   Zn974   1.903   .     S
O969   C971    1.294   .     A
O970   C972    1.294   .     A
O970   Zn973   1.903   .     S
C971   C975    1.452   .     S
C972   C976    1.453   .     S
Zn973  N1015   2.010   .     S
Zn974  N1016   2.010   .     S
C975   C979    1.395   .     A
C975   C981    1.385   .     A
C976   C980    1.395   .     A
C976   C982    1.385   .     A
C977   H997    1.080   .     S
C977   C985    1.410   .     A
C977   C979    1.392   .     A
C978   C986    1.410   .     A
C978   H998    1.080   .     S
C978   C980    1.392   .     A
C979   H996    1.083   .     S
C980   H995    1.083   .     S
C981   H994    1.074   .     S
C981   C983    1.397   .     A
C982   C984    1.397   .     A
C982   H993    1.075   .     S
C983   C987    1.423   .     A
C983   C985    1.424   .     A
C984   C986    1.424   .     A
C984   C988    1.423   .     A
C985   C271    1.399   1_556 S
C987   C990    1.419   .     A
C987   C268    1.414   1_556 S
C988   C989    1.419   .     A
C989   H999    1.074   .     S
C989   C991    1.387   .     A
C990   H1000   1.074   .     S
C990   C992    1.387   .     A
C991   I1017   2.132   .     S
C992   I1018   2.132   .     S
C992   C266    1.399   1_556 S
C1001  C1006   1.409   .     A
C1001  I1019   2.163   .     S
C1001  C1243   1.396   .     S
C1002  I1020   2.163   .     S
C1002  C1005   1.409   .     A
C1003  C1005   1.427   .     A
C1003  C1021   1.526   .     S
C1004  C1031   1.527   .     S
C1004  C1006   1.427   .     A
C1004  C1242   1.396   .     S
C1007  H1009   1.081   .     S
C1007  N1016   1.364   .     A
C1007  C1091   1.414   .     S
C1008  N1015   1.364   .     A
C1008  H1010   1.082   .     S
C1008  C1172   1.413   1_455 S
C1011  N1015   1.371   .     A
C1011  H1013   1.079   .     S
C1011  C1167   1.414   1_455 S
C1012  H1014   1.079   .     S
C1012  N1016   1.370   .     A
C1012  C1088   1.413   .     S
C1021  H1030   1.103   .     S
C1021  H1029   1.109   .     S
C1021  C1022   1.539   .     S
C1022  H1027   1.110   .     S
C1022  H1028   1.108   .     S
C1022  C1103   1.524   .     S
C1023  H1025   1.105   .     S
C1023  H1026   1.110   .     S
C1023  C1182   1.524   1_455 S
C1023  H1184   1.104   1_455 S
H1024  C1103   1.104   .     S
C1031  H1039   1.109   .     S
C1031  H1040   1.103   .     S
C1031  C1032   1.539   .     S
C1032  H1037   1.110   .     S
C1032  H1038   1.108   .     S
C1032  C1033   1.524   .     S
C1033  H1034   1.104   .     S
C1033  H1036   1.110   .     S
C1033  H1195   1.105   1_455 S
H1035  C1113   1.105   .     S
O1041  C1045   1.285   .     A
O1041  Zn1053  1.998   .     S
O1042  C1046   1.285   .     A
O1042  Zn1054  1.998   .     S
O1043  Zn1054  1.985   .     S
O1043  C1045   1.299   .     A
O1044  Zn1053  1.985   .     S
O1044  C1046   1.299   .     A
C1045  C1086   1.458   .     S
C1046  C1085   1.458   .     S
O1047  C1051   1.289   .     A
O1047  Zn1053  1.964   .     S
O1048  Zn1054  1.964   .     S
O1048  C1052   1.290   .     A
O1049  Zn1054  1.903   .     S
O1049  C1051   1.294   .     A
O1050  C1052   1.294   .     A
O1050  Zn1053  1.903   .     S
C1051  C1055   1.452   .     S
C1052  C1056   1.453   .     S
Zn1053 N1095   2.010   .     S
Zn1054 N1096   2.010   .     S
C1055  C1059   1.395   .     A
C1055  C1061   1.385   .     A
C1056  C1060   1.395   .     A
C1056  C1062   1.385   .     A
C1057  H1077   1.080   .     S
C1057  C1065   1.410   .     A
C1057  C1059   1.392   .     A
C1058  C1066   1.410   .     A
C1058  H1078   1.080   .     S
C1058  C1060   1.392   .     A
C1059  H1076   1.083   .     S
C1060  H1075   1.083   .     S
C1061  H1074   1.074   .     S
C1061  C1063   1.397   .     A
C1062  C1064   1.397   .     A
C1062  H1073   1.075   .     S
C1063  C1067   1.423   .     A
C1063  C1065   1.424   .     A
C1064  C1066   1.424   .     A
C1064  C1068   1.423   .     A
C1065  C351    1.399   1_556 S
C1067  C1070   1.419   .     A
C1067  C348    1.414   1_556 S
C1068  C1069   1.419   .     A
C1069  H1079   1.074   .     S
C1069  C1071   1.387   .     A
C1070  H1080   1.074   .     S
C1070  C1072   1.387   .     A
C1071  I1097   2.132   .     S
C1072  I1098   2.132   .     S
C1072  C346    1.399   1_556 S
C1081  C1086   1.409   .     A
C1081  I1099   2.163   .     S
C1081  C1323   1.396   .     S
C1082  I1100   2.163   .     S
C1082  C1085   1.409   .     A
C1083  C1085   1.427   .     A
C1083  C1101   1.526   .     S
C1084  C1111   1.527   .     S
C1084  C1086   1.427   .     A
C1084  C1322   1.396   .     S
C1087  H1089   1.081   .     S
C1087  N1096   1.364   .     A
C1087  C1171   1.414   .     S
C1088  N1095   1.364   .     A
C1088  H1090   1.082   .     S
C1091  N1095   1.371   .     A
C1091  H1093   1.079   .     S
C1092  H1094   1.079   .     S
C1092  N1096   1.370   .     A
C1092  C1168   1.413   .     S
C1101  H1110   1.103   .     S
C1101  H1109   1.109   .     S
C1101  C1102   1.539   .     S
C1102  H1107   1.110   .     S
C1102  H1108   1.108   .     S
C1102  C1183   1.524   .     S
C1103  H1105   1.105   .     S
C1103  H1106   1.110   .     S
H1104  C1183   1.104   .     S
C1111  H1119   1.109   .     S
C1111  H1120   1.103   .     S
C1111  C1112   1.539   .     S
C1112  H1117   1.110   .     S
C1112  H1118   1.108   .     S
C1112  C1113   1.524   .     S
C1113  H1114   1.104   .     S
C1113  H1116   1.110   .     S
H1115  C1193   1.105   .     S
O1121  C1125   1.285   .     A
O1121  Zn1133  1.998   .     S
O1122  C1126   1.285   .     A
O1122  Zn1134  1.998   .     S
O1123  Zn1134  1.985   .     S
O1123  C1125   1.299   .     A
O1124  Zn1133  1.985   .     S
O1124  C1126   1.299   .     A
C1125  C1166   1.458   .     S
C1126  C1165   1.458   .     S
O1127  C1131   1.289   .     A
O1127  Zn1133  1.964   .     S
O1128  Zn1134  1.964   .     S
O1128  C1132   1.290   .     A
O1129  Zn1134  1.903   .     S
O1129  C1131   1.294   .     A
O1130  C1132   1.294   .     A
O1130  Zn1133  1.903   .     S
C1131  C1135   1.452   .     S
C1132  C1136   1.453   .     S
Zn1133 N1175   2.010   .     S
Zn1134 N1176   2.010   .     S
C1135  C1139   1.395   .     A
C1135  C1141   1.385   .     A
C1136  C1140   1.395   .     A
C1136  C1142   1.385   .     A
C1137  H1157   1.080   .     S
C1137  C1145   1.410   .     A
C1137  C1139   1.392   .     A
C1138  C1146   1.410   .     A
C1138  H1158   1.080   .     S
C1138  C1140   1.392   .     A
C1139  H1156   1.083   .     S
C1140  H1155   1.083   .     S
C1141  H1154   1.074   .     S
C1141  C1143   1.397   .     A
C1142  C1144   1.397   .     A
C1142  H1153   1.075   .     S
C1143  C1147   1.423   .     A
C1143  C1145   1.424   .     A
C1144  C1146   1.424   .     A
C1144  C1148   1.423   .     A
C1145  C431    1.399   1_556 S
C1147  C1150   1.419   .     A
C1147  C428    1.414   1_556 S
C1148  C1149   1.419   .     A
C1149  H1159   1.074   .     S
C1149  C1151   1.387   .     A
C1150  H1160   1.074   .     S
C1150  C1152   1.387   .     A
C1151  I1177   2.132   .     S
C1152  I1178   2.132   .     S
C1152  C426    1.399   1_556 S
C1161  C1166   1.409   .     A
C1161  I1179   2.163   .     S
C1161  C1403   1.396   .     S
C1162  I1180   2.163   .     S
C1162  C1165   1.409   .     A
C1163  C1165   1.427   .     A
C1163  C1181   1.526   .     S
C1164  C1191   1.527   .     S
C1164  C1166   1.427   .     A
C1164  C1402   1.396   .     S
C1167  H1169   1.081   .     S
C1167  N1176   1.364   .     A
C1167  C1011   1.414   1_655 S
C1168  N1175   1.364   .     A
C1168  H1170   1.082   .     S
C1171  N1175   1.371   .     A
C1171  H1173   1.079   .     S
C1172  H1174   1.079   .     S
C1172  N1176   1.370   .     A
C1172  C1008   1.413   1_655 S
C1181  H1190   1.103   .     S
C1181  H1189   1.109   .     S
C1181  C1182   1.539   .     S
C1182  H1187   1.110   .     S
C1182  H1188   1.108   .     S
C1182  C1023   1.524   1_655 S
C1183  H1185   1.105   .     S
C1183  H1186   1.110   .     S
H1184  C1023   1.104   1_655 S
C1191  H1199   1.109   .     S
C1191  H1200   1.103   .     S
C1191  C1192   1.539   .     S
C1192  H1197   1.110   .     S
C1192  H1198   1.108   .     S
C1192  C1193   1.524   .     S
C1193  H1194   1.104   .     S
C1193  H1196   1.110   .     S
H1195  C1033   1.105   1_655 S
O1201  C1205   1.285   .     A
O1201  Zn1213  1.998   .     S
O1202  C1206   1.285   .     A
O1202  Zn1214  1.998   .     S
O1203  Zn1214  1.985   .     S
O1203  C1205   1.299   .     A
O1204  Zn1213  1.985   .     S
O1204  C1206   1.299   .     A
C1205  C1246   1.458   .     S
C1206  C1245   1.458   .     S
O1207  C1211   1.289   .     A
O1207  Zn1213  1.964   .     S
O1208  Zn1214  1.964   .     S
O1208  C1212   1.290   .     A
O1209  Zn1214  1.903   .     S
O1209  C1211   1.294   .     A
O1210  C1212   1.294   .     A
O1210  Zn1213  1.903   .     S
C1211  C1215   1.452   .     S
C1212  C1216   1.453   .     S
Zn1213 N1255   2.010   .     S
Zn1214 N1256   2.010   .     S
C1215  C1219   1.395   .     A
C1215  C1221   1.385   .     A
C1216  C1220   1.395   .     A
C1216  C1222   1.385   .     A
C1217  H1237   1.080   .     S
C1217  C1225   1.410   .     A
C1217  C1219   1.392   .     A
C1218  C1226   1.410   .     A
C1218  H1238   1.080   .     S
C1218  C1220   1.392   .     A
C1219  H1236   1.083   .     S
C1220  H1235   1.083   .     S
C1221  H1234   1.074   .     S
C1221  C1223   1.397   .     A
C1222  C1224   1.397   .     A
C1222  H1233   1.075   .     S
C1223  C1227   1.423   .     A
C1223  C1225   1.424   .     A
C1224  C1226   1.424   .     A
C1224  C1228   1.423   .     A
C1225  C511    1.399   1_556 S
C1227  C1230   1.419   .     A
C1227  C508    1.414   1_556 S
C1228  C1229   1.419   .     A
C1229  H1239   1.074   .     S
C1229  C1231   1.387   .     A
C1230  H1240   1.074   .     S
C1230  C1232   1.387   .     A
C1231  I1257   2.132   .     S
C1232  I1258   2.132   .     S
C1232  C506    1.399   1_556 S
C1241  C1246   1.409   .     A
C1241  I1259   2.163   .     S
C1241  C763    1.396   1_565 S
C1242  I1260   2.163   .     S
C1242  C1245   1.409   .     A
C1243  C1245   1.427   .     A
C1243  C1261   1.526   .     S
C1244  C1271   1.527   .     S
C1244  C1246   1.427   .     A
C1244  C762    1.396   1_565 S
C1247  H1249   1.081   .     S
C1247  N1256   1.364   .     A
C1247  C1331   1.414   .     S
C1248  N1255   1.364   .     A
C1248  H1250   1.082   .     S
C1248  C1412   1.413   1_455 S
C1251  N1255   1.371   .     A
C1251  H1253   1.079   .     S
C1251  C1407   1.414   1_455 S
C1252  H1254   1.079   .     S
C1252  N1256   1.370   .     A
C1252  C1328   1.413   .     S
C1261  H1270   1.103   .     S
C1261  H1269   1.109   .     S
C1261  C1262   1.539   .     S
C1262  H1267   1.110   .     S
C1262  H1268   1.108   .     S
C1262  C1343   1.524   .     S
C1263  H1265   1.105   .     S
C1263  H1266   1.110   .     S
C1263  C1422   1.524   1_455 S
C1263  H1424   1.104   1_455 S
H1264  C1343   1.104   .     S
C1271  H1279   1.109   .     S
C1271  H1280   1.103   .     S
C1271  C1272   1.539   .     S
C1272  H1277   1.110   .     S
C1272  H1278   1.108   .     S
C1272  C1273   1.524   .     S
C1273  H1274   1.104   .     S
C1273  H1276   1.110   .     S
C1273  H1435   1.105   1_455 S
H1275  C1353   1.105   .     S
O1281  C1285   1.285   .     A
O1281  Zn1293  1.998   .     S
O1282  C1286   1.285   .     A
O1282  Zn1294  1.998   .     S
O1283  Zn1294  1.985   .     S
O1283  C1285   1.299   .     A
O1284  Zn1293  1.985   .     S
O1284  C1286   1.299   .     A
C1285  C1326   1.458   .     S
C1286  C1325   1.458   .     S
O1287  C1291   1.289   .     A
O1287  Zn1293  1.964   .     S
O1288  Zn1294  1.964   .     S
O1288  C1292   1.290   .     A
O1289  Zn1294  1.903   .     S
O1289  C1291   1.294   .     A
O1290  C1292   1.294   .     A
O1290  Zn1293  1.903   .     S
C1291  C1295   1.452   .     S
C1292  C1296   1.453   .     S
Zn1293 N1335   2.010   .     S
Zn1294 N1336   2.010   .     S
C1295  C1299   1.395   .     A
C1295  C1301   1.385   .     A
C1296  C1300   1.395   .     A
C1296  C1302   1.385   .     A
C1297  H1317   1.080   .     S
C1297  C1305   1.410   .     A
C1297  C1299   1.392   .     A
C1298  C1306   1.410   .     A
C1298  H1318   1.080   .     S
C1298  C1300   1.392   .     A
C1299  H1316   1.083   .     S
C1300  H1315   1.083   .     S
C1301  H1314   1.074   .     S
C1301  C1303   1.397   .     A
C1302  C1304   1.397   .     A
C1302  H1313   1.075   .     S
C1303  C1307   1.423   .     A
C1303  C1305   1.424   .     A
C1304  C1306   1.424   .     A
C1304  C1308   1.423   .     A
C1305  C591    1.399   1_556 S
C1307  C1310   1.419   .     A
C1307  C588    1.414   1_556 S
C1308  C1309   1.419   .     A
C1309  H1319   1.074   .     S
C1309  C1311   1.387   .     A
C1310  H1320   1.074   .     S
C1310  C1312   1.387   .     A
C1311  I1337   2.132   .     S
C1312  I1338   2.132   .     S
C1312  C586    1.399   1_556 S
C1321  C1326   1.409   .     A
C1321  I1339   2.163   .     S
C1321  C843    1.396   1_565 S
C1322  I1340   2.163   .     S
C1322  C1325   1.409   .     A
C1323  C1325   1.427   .     A
C1323  C1341   1.526   .     S
C1324  C1351   1.527   .     S
C1324  C1326   1.427   .     A
C1324  C842    1.396   1_565 S
C1327  H1329   1.081   .     S
C1327  N1336   1.364   .     A
C1327  C1411   1.414   .     S
C1328  N1335   1.364   .     A
C1328  H1330   1.082   .     S
C1331  N1335   1.371   .     A
C1331  H1333   1.079   .     S
C1332  H1334   1.079   .     S
C1332  N1336   1.370   .     A
C1332  C1408   1.413   .     S
C1341  H1350   1.103   .     S
C1341  H1349   1.109   .     S
C1341  C1342   1.539   .     S
C1342  H1347   1.110   .     S
C1342  H1348   1.108   .     S
C1342  C1423   1.524   .     S
C1343  H1345   1.105   .     S
C1343  H1346   1.110   .     S
H1344  C1423   1.104   .     S
C1351  H1359   1.109   .     S
C1351  H1360   1.103   .     S
C1351  C1352   1.539   .     S
C1352  H1357   1.110   .     S
C1352  H1358   1.108   .     S
C1352  C1353   1.524   .     S
C1353  H1354   1.104   .     S
C1353  H1356   1.110   .     S
H1355  C1433   1.105   .     S
O1361  C1365   1.285   .     A
O1361  Zn1373  1.998   .     S
O1362  C1366   1.285   .     A
O1362  Zn1374  1.998   .     S
O1363  Zn1374  1.985   .     S
O1363  C1365   1.299   .     A
O1364  Zn1373  1.985   .     S
O1364  C1366   1.299   .     A
C1365  C1406   1.458   .     S
C1366  C1405   1.458   .     S
O1367  C1371   1.289   .     A
O1367  Zn1373  1.964   .     S
O1368  Zn1374  1.964   .     S
O1368  C1372   1.290   .     A
O1369  Zn1374  1.903   .     S
O1369  C1371   1.294   .     A
O1370  C1372   1.294   .     A
O1370  Zn1373  1.903   .     S
C1371  C1375   1.452   .     S
C1372  C1376   1.453   .     S
Zn1373 N1415   2.010   .     S
Zn1374 N1416   2.010   .     S
C1375  C1379   1.395   .     A
C1375  C1381   1.385   .     A
C1376  C1380   1.395   .     A
C1376  C1382   1.385   .     A
C1377  H1397   1.080   .     S
C1377  C1385   1.410   .     A
C1377  C1379   1.392   .     A
C1378  C1386   1.410   .     A
C1378  H1398   1.080   .     S
C1378  C1380   1.392   .     A
C1379  H1396   1.083   .     S
C1380  H1395   1.083   .     S
C1381  H1394   1.074   .     S
C1381  C1383   1.397   .     A
C1382  C1384   1.397   .     A
C1382  H1393   1.075   .     S
C1383  C1387   1.423   .     A
C1383  C1385   1.424   .     A
C1384  C1386   1.424   .     A
C1384  C1388   1.423   .     A
C1385  C671    1.399   1_556 S
C1387  C1390   1.419   .     A
C1387  C668    1.414   1_556 S
C1388  C1389   1.419   .     A
C1389  H1399   1.074   .     S
C1389  C1391   1.387   .     A
C1390  H1400   1.074   .     S
C1390  C1392   1.387   .     A
C1391  I1417   2.132   .     S
C1392  I1418   2.132   .     S
C1392  C666    1.399   1_556 S
C1401  C1406   1.409   .     A
C1401  I1419   2.163   .     S
C1401  C923    1.396   1_565 S
C1402  I1420   2.163   .     S
C1402  C1405   1.409   .     A
C1403  C1405   1.427   .     A
C1403  C1421   1.526   .     S
C1404  C1431   1.527   .     S
C1404  C1406   1.427   .     A
C1404  C922    1.396   1_565 S
C1407  H1409   1.081   .     S
C1407  N1416   1.364   .     A
C1407  C1251   1.414   1_655 S
C1408  N1415   1.364   .     A
C1408  H1410   1.082   .     S
C1411  N1415   1.371   .     A
C1411  H1413   1.079   .     S
C1412  H1414   1.079   .     S
C1412  N1416   1.370   .     A
C1412  C1248   1.413   1_655 S
C1421  H1430   1.103   .     S
C1421  H1429   1.109   .     S
C1421  C1422   1.539   .     S
C1422  H1427   1.110   .     S
C1422  H1428   1.108   .     S
C1422  C1263   1.524   1_655 S
C1423  H1425   1.105   .     S
C1423  H1426   1.110   .     S
H1424  C1263   1.104   1_655 S
C1431  H1439   1.109   .     S
C1431  H1440   1.103   .     S
C1431  C1432   1.539   .     S
C1432  H1437   1.110   .     S
C1432  H1438   1.108   .     S
C1432  C1433   1.524   .     S
C1433  H1434   1.104   .     S
C1433  H1436   1.110   .     S
H1435  C1273   1.105   1_655 S
