data_str_m3_o10_o16_pcu_sym.113
_audit_creation_date              2020-01-03
_audit_creation_method            'Materials Studio'
_symmetry_space_group_name_H-M    'P1'
_symmetry_Int_Tables_number       1
_symmetry_cell_setting            triclinic
loop_
_symmetry_equiv_pos_as_xyz
  x,y,z
_cell_length_a                    23.7430
_cell_length_b                    25.6975
_cell_length_c                    25.0774
_cell_angle_alpha                 92.9614
_cell_angle_beta                  103.1553
_cell_angle_gamma                 93.5914
loop_
_atom_site_label
_atom_site_type_symbol
_atom_site_fract_x
_atom_site_fract_y
_atom_site_fract_z
_atom_site_U_iso_or_equiv
_atom_site_adp_type
_atom_site_occupancy
C1     C     0.01382   0.26432   0.24644   0.00000  Uiso   1.00
C2     C     0.06297   0.18170   0.41197   0.00000  Uiso   1.00
C3     C     0.01879   0.31771   0.23726   0.00000  Uiso   1.00
C4     C     0.03697   0.16948   0.35422   0.00000  Uiso   1.00
C5     C     0.31126   0.01392   0.24934   0.00000  Uiso   1.00
C6     C     0.31841   0.06860   0.24979   0.00000  Uiso   1.00
C7     C     0.29706   0.16284   0.14527   0.00000  Uiso   1.00
C8     C     0.28359   0.11404   0.49858   0.00000  Uiso   1.00
C9     C     0.27925   0.15864   0.08501   0.00000  Uiso   1.00
C10    C     0.04301   0.22392   0.43813   0.00000  Uiso   1.00
C11    C     0.08104   0.25451   0.48000   0.00000  Uiso   1.00
C12    C     0.15675   0.19535   0.47643   0.00000  Uiso   1.00
C13    C     0.13822   0.24194   0.49718   0.00000  Uiso   1.00
C14    C     0.21357   0.23526   0.33984   0.00000  Uiso   1.00
C15    C     0.19168   0.27717   0.37341   0.00000  Uiso   1.00
C16    C     0.15400   0.15788   0.09102   0.00000  Uiso   1.00
C17    C     0.10834   0.17713   0.11674   0.00000  Uiso   1.00
C18    C     0.05295   0.33051   0.16098   0.00000  Uiso   1.00
C19    C     0.11914   0.16531   0.43292   0.00000  Uiso   1.00
C20    C     0.20968   0.17511   0.00140   0.00000  Uiso   1.00
C21    C     0.23192   0.13481   0.47348   0.00000  Uiso   1.00
C22    C     0.19688   0.10912   0.42616   0.00000  Uiso   1.00
C23    C     0.13943   0.12080   0.40954   0.00000  Uiso   1.00
C24    C     0.23065   0.18285   0.05852   0.00000  Uiso   1.00
C25    C     0.30720   0.12603   0.05421   0.00000  Uiso   1.00
H26    H     0.00983   0.10483   0.07401   0.00000  Uiso   1.00
H27    H     0.25458   0.25158   0.33133   0.00000  Uiso   1.00
H28    H     0.22134   0.20060   0.36462   0.00000  Uiso   1.00
H29    H     0.14898   0.26350   0.38072   0.00000  Uiso   1.00
H30    H     0.22304   0.28606   0.41355   0.00000  Uiso   1.00
H31    H     0.18670   0.31341   0.35102   0.00000  Uiso   1.00
H32    H     0.17532   0.12628   0.11498   0.00000  Uiso   1.00
H33    H     0.13153   0.13922   0.05000   0.00000  Uiso   1.00
H34    H     0.07521   0.19557   0.08640   0.00000  Uiso   1.00
H35    H     0.09051   0.14094   0.13017   0.00000  Uiso   1.00
H36    H     0.12682   0.20571   0.15205   0.00000  Uiso   1.00
H37    H     0.27334   0.33126   0.26222   0.00000  Uiso   1.00
H38    H     0.01477   0.01875   0.14263   0.00000  Uiso   1.00
H39    H     0.04524   0.28842   0.14649   0.00000  Uiso   1.00
H40    H     0.09045   0.01361   0.14610   0.00000  Uiso   1.00
H41    H     0.15675   0.12138   0.21361   0.00000  Uiso   1.00
H42    H     0.21149   0.07590   0.40606   0.00000  Uiso   1.00
H43    H     0.30197   0.08421   0.47708   0.00000  Uiso   1.00
H44    H     0.00034   0.23702   0.42202   0.00000  Uiso   1.00
H45    H     0.16754   0.26810   0.02785   0.00000  Uiso   1.00
H46    H     0.06686   0.28928   0.49763   0.00000  Uiso   1.00
H47    H     0.11117   0.09489   0.37784   0.00000  Uiso   1.00
N48    N     0.14493   0.15223   0.23543   0.00000  Uiso   1.00
N49    N     0.18840   0.18110   0.26458   0.00000  Uiso   1.00
O50    O     0.29769   0.24629   0.25358   0.00000  Uiso   1.00
O51    O     0.19409   0.20044   0.08951   0.00000  Uiso   1.00
O52    O     0.06643   0.00370   0.21881   0.00000  Uiso   1.00
O53    O     0.05742   0.23704   0.24424   0.00000  Uiso   1.00
O54    O     0.31490   0.17358   0.33380   0.00000  Uiso   1.00
O55    O     0.07463   0.16433   0.32446   0.00000  Uiso   1.00
O56    O     0.27592   0.09629   0.25577   0.00000  Uiso   1.00
O57    O     0.03565   0.08704   0.24643   0.00000  Uiso   1.00
O58    O     0.25870   0.16901   0.17554   0.00000  Uiso   1.00
O59    O     0.01843   0.15976   0.16620   0.00000  Uiso   1.00
O60    O     0.17159   0.22222   0.29094   0.00000  Uiso   1.00
Zn61   Zn    0.27119   0.17284   0.25624   0.00000  Uiso   1.00
Zn62   Zn    0.06214   0.16049   0.24377   0.00000  Uiso   1.00
C63    C     0.34716   0.26432   0.24644   0.00000  Uiso   1.00
C64    C     0.39630   0.18170   0.41197   0.00000  Uiso   1.00
C65    C     0.35212   0.31771   0.23726   0.00000  Uiso   1.00
C66    C     0.37031   0.16948   0.35422   0.00000  Uiso   1.00
C67    C     0.64459   0.01392   0.24934   0.00000  Uiso   1.00
C68    C     0.65175   0.06860   0.24979   0.00000  Uiso   1.00
C69    C     0.63039   0.16284   0.14527   0.00000  Uiso   1.00
C70    C     0.61692   0.11404   0.49858   0.00000  Uiso   1.00
C71    C     0.61258   0.15864   0.08501   0.00000  Uiso   1.00
C72    C     0.37634   0.22392   0.43813   0.00000  Uiso   1.00
C73    C     0.41437   0.25451   0.48000   0.00000  Uiso   1.00
C74    C     0.49008   0.19535   0.47643   0.00000  Uiso   1.00
C75    C     0.47156   0.24194   0.49718   0.00000  Uiso   1.00
C76    C     0.54690   0.23526   0.33984   0.00000  Uiso   1.00
C77    C     0.52501   0.27717   0.37341   0.00000  Uiso   1.00
C78    C     0.48733   0.15788   0.09102   0.00000  Uiso   1.00
C79    C     0.44167   0.17713   0.11674   0.00000  Uiso   1.00
C80    C     0.38628   0.33051   0.16098   0.00000  Uiso   1.00
C81    C     0.45247   0.16531   0.43292   0.00000  Uiso   1.00
C82    C     0.54301   0.17511   0.00140   0.00000  Uiso   1.00
C83    C     0.56526   0.13481   0.47348   0.00000  Uiso   1.00
C84    C     0.53022   0.10912   0.42616   0.00000  Uiso   1.00
C85    C     0.47277   0.12080   0.40954   0.00000  Uiso   1.00
C86    C     0.56398   0.18285   0.05852   0.00000  Uiso   1.00
C87    C     0.64054   0.12603   0.05421   0.00000  Uiso   1.00
H88    H     0.34316   0.10483   0.07401   0.00000  Uiso   1.00
H89    H     0.58791   0.25158   0.33133   0.00000  Uiso   1.00
H90    H     0.55468   0.20060   0.36462   0.00000  Uiso   1.00
H91    H     0.48231   0.26350   0.38072   0.00000  Uiso   1.00
H92    H     0.55637   0.28606   0.41355   0.00000  Uiso   1.00
H93    H     0.52003   0.31341   0.35102   0.00000  Uiso   1.00
H94    H     0.50866   0.12628   0.11498   0.00000  Uiso   1.00
H95    H     0.46486   0.13922   0.05000   0.00000  Uiso   1.00
H96    H     0.40854   0.19557   0.08640   0.00000  Uiso   1.00
H97    H     0.42385   0.14094   0.13017   0.00000  Uiso   1.00
H98    H     0.46015   0.20571   0.15205   0.00000  Uiso   1.00
H99    H     0.60667   0.33126   0.26222   0.00000  Uiso   1.00
H100   H     0.34810   0.01875   0.14263   0.00000  Uiso   1.00
H101   H     0.37857   0.28842   0.14649   0.00000  Uiso   1.00
H102   H     0.42378   0.01361   0.14610   0.00000  Uiso   1.00
H103   H     0.49008   0.12138   0.21361   0.00000  Uiso   1.00
H104   H     0.54483   0.07590   0.40606   0.00000  Uiso   1.00
H105   H     0.63530   0.08421   0.47708   0.00000  Uiso   1.00
H106   H     0.33367   0.23702   0.42202   0.00000  Uiso   1.00
H107   H     0.50087   0.26810   0.02785   0.00000  Uiso   1.00
H108   H     0.40019   0.28928   0.49763   0.00000  Uiso   1.00
H109   H     0.44451   0.09489   0.37784   0.00000  Uiso   1.00
N110   N     0.47827   0.15223   0.23543   0.00000  Uiso   1.00
N111   N     0.52173   0.18110   0.26458   0.00000  Uiso   1.00
O112   O     0.63102   0.24629   0.25358   0.00000  Uiso   1.00
O113   O     0.52743   0.20044   0.08951   0.00000  Uiso   1.00
O114   O     0.39976   0.00370   0.21881   0.00000  Uiso   1.00
O115   O     0.39075   0.23704   0.24424   0.00000  Uiso   1.00
O116   O     0.64823   0.17358   0.33380   0.00000  Uiso   1.00
O117   O     0.40796   0.16433   0.32446   0.00000  Uiso   1.00
O118   O     0.60925   0.09629   0.25577   0.00000  Uiso   1.00
O119   O     0.36898   0.08704   0.24643   0.00000  Uiso   1.00
O120   O     0.59204   0.16901   0.17554   0.00000  Uiso   1.00
O121   O     0.35177   0.15976   0.16620   0.00000  Uiso   1.00
O122   O     0.50492   0.22222   0.29094   0.00000  Uiso   1.00
Zn123  Zn    0.60453   0.17284   0.25624   0.00000  Uiso   1.00
Zn124  Zn    0.39547   0.16049   0.24377   0.00000  Uiso   1.00
C125   C     0.68049   0.26432   0.24644   0.00000  Uiso   1.00
C126   C     0.72963   0.18170   0.41197   0.00000  Uiso   1.00
C127   C     0.68546   0.31771   0.23726   0.00000  Uiso   1.00
C128   C     0.70364   0.16948   0.35422   0.00000  Uiso   1.00
C129   C     0.97792   0.01392   0.24934   0.00000  Uiso   1.00
C130   C     0.98508   0.06860   0.24979   0.00000  Uiso   1.00
C131   C     0.96372   0.16284   0.14527   0.00000  Uiso   1.00
C132   C     0.95026   0.11404   0.49858   0.00000  Uiso   1.00
C133   C     0.94592   0.15864   0.08501   0.00000  Uiso   1.00
C134   C     0.70967   0.22392   0.43813   0.00000  Uiso   1.00
C135   C     0.74770   0.25451   0.48000   0.00000  Uiso   1.00
C136   C     0.82341   0.19535   0.47643   0.00000  Uiso   1.00
C137   C     0.80489   0.24194   0.49718   0.00000  Uiso   1.00
C138   C     0.88023   0.23526   0.33984   0.00000  Uiso   1.00
C139   C     0.85834   0.27717   0.37341   0.00000  Uiso   1.00
C140   C     0.82066   0.15788   0.09102   0.00000  Uiso   1.00
C141   C     0.77500   0.17713   0.11674   0.00000  Uiso   1.00
C142   C     0.71961   0.33051   0.16098   0.00000  Uiso   1.00
C143   C     0.78580   0.16531   0.43292   0.00000  Uiso   1.00
C144   C     0.87635   0.17511   0.00140   0.00000  Uiso   1.00
C145   C     0.89859   0.13481   0.47348   0.00000  Uiso   1.00
C146   C     0.86355   0.10912   0.42616   0.00000  Uiso   1.00
C147   C     0.80610   0.12080   0.40954   0.00000  Uiso   1.00
C148   C     0.89732   0.18285   0.05852   0.00000  Uiso   1.00
C149   C     0.97387   0.12603   0.05421   0.00000  Uiso   1.00
H150   H     0.67650   0.10483   0.07401   0.00000  Uiso   1.00
H151   H     0.92125   0.25158   0.33133   0.00000  Uiso   1.00
H152   H     0.88801   0.20060   0.36462   0.00000  Uiso   1.00
H153   H     0.81565   0.26350   0.38072   0.00000  Uiso   1.00
H154   H     0.88970   0.28606   0.41355   0.00000  Uiso   1.00
H155   H     0.85336   0.31341   0.35102   0.00000  Uiso   1.00
H156   H     0.84199   0.12628   0.11498   0.00000  Uiso   1.00
H157   H     0.79819   0.13922   0.05000   0.00000  Uiso   1.00
H158   H     0.74187   0.19557   0.08640   0.00000  Uiso   1.00
H159   H     0.75718   0.14094   0.13017   0.00000  Uiso   1.00
H160   H     0.79348   0.20571   0.15205   0.00000  Uiso   1.00
H161   H     0.94001   0.33126   0.26222   0.00000  Uiso   1.00
H162   H     0.68143   0.01875   0.14263   0.00000  Uiso   1.00
H163   H     0.71190   0.28842   0.14649   0.00000  Uiso   1.00
H164   H     0.75712   0.01361   0.14610   0.00000  Uiso   1.00
H165   H     0.82341   0.12138   0.21361   0.00000  Uiso   1.00
H166   H     0.87816   0.07590   0.40606   0.00000  Uiso   1.00
H167   H     0.96864   0.08421   0.47708   0.00000  Uiso   1.00
H168   H     0.66701   0.23702   0.42202   0.00000  Uiso   1.00
H169   H     0.83421   0.26810   0.02785   0.00000  Uiso   1.00
H170   H     0.73353   0.28928   0.49763   0.00000  Uiso   1.00
H171   H     0.77784   0.09489   0.37784   0.00000  Uiso   1.00
N172   N     0.81160   0.15223   0.23543   0.00000  Uiso   1.00
N173   N     0.85507   0.18110   0.26458   0.00000  Uiso   1.00
O174   O     0.96435   0.24629   0.25358   0.00000  Uiso   1.00
O175   O     0.86076   0.20044   0.08951   0.00000  Uiso   1.00
O176   O     0.73310   0.00370   0.21881   0.00000  Uiso   1.00
O177   O     0.72408   0.23704   0.24424   0.00000  Uiso   1.00
O178   O     0.98157   0.17358   0.33380   0.00000  Uiso   1.00
O179   O     0.74130   0.16433   0.32446   0.00000  Uiso   1.00
O180   O     0.94258   0.09629   0.25577   0.00000  Uiso   1.00
O181   O     0.70231   0.08704   0.24643   0.00000  Uiso   1.00
O182   O     0.92537   0.16901   0.17554   0.00000  Uiso   1.00
O183   O     0.68510   0.15976   0.16620   0.00000  Uiso   1.00
O184   O     0.83826   0.22222   0.29094   0.00000  Uiso   1.00
Zn185  Zn    0.93786   0.17284   0.25624   0.00000  Uiso   1.00
Zn186  Zn    0.72881   0.16049   0.24377   0.00000  Uiso   1.00
C187   C     0.01382   0.59766   0.24644   0.00000  Uiso   1.00
C188   C     0.06297   0.51503   0.41197   0.00000  Uiso   1.00
C189   C     0.01879   0.65104   0.23726   0.00000  Uiso   1.00
C190   C     0.03697   0.50281   0.35422   0.00000  Uiso   1.00
C191   C     0.31126   0.34726   0.24934   0.00000  Uiso   1.00
C192   C     0.31841   0.40193   0.24979   0.00000  Uiso   1.00
C193   C     0.29706   0.49617   0.14527   0.00000  Uiso   1.00
C194   C     0.28359   0.44737   0.49858   0.00000  Uiso   1.00
C195   C     0.27925   0.49197   0.08501   0.00000  Uiso   1.00
C196   C     0.04301   0.55726   0.43813   0.00000  Uiso   1.00
C197   C     0.08104   0.58784   0.48000   0.00000  Uiso   1.00
C198   C     0.15675   0.52869   0.47643   0.00000  Uiso   1.00
C199   C     0.13822   0.57527   0.49718   0.00000  Uiso   1.00
C200   C     0.21357   0.56859   0.33984   0.00000  Uiso   1.00
C201   C     0.19168   0.61050   0.37341   0.00000  Uiso   1.00
C202   C     0.15400   0.49121   0.09102   0.00000  Uiso   1.00
C203   C     0.10834   0.51046   0.11674   0.00000  Uiso   1.00
C204   C     0.05295   0.66384   0.16098   0.00000  Uiso   1.00
C205   C     0.11914   0.49864   0.43292   0.00000  Uiso   1.00
C206   C     0.20968   0.50844   0.00140   0.00000  Uiso   1.00
C207   C     0.23192   0.46815   0.47348   0.00000  Uiso   1.00
C208   C     0.19688   0.44245   0.42616   0.00000  Uiso   1.00
C209   C     0.13943   0.45414   0.40954   0.00000  Uiso   1.00
C210   C     0.23065   0.51619   0.05852   0.00000  Uiso   1.00
C211   C     0.30720   0.45936   0.05421   0.00000  Uiso   1.00
H212   H     0.00983   0.43817   0.07401   0.00000  Uiso   1.00
H213   H     0.25458   0.58491   0.33133   0.00000  Uiso   1.00
H214   H     0.22134   0.53393   0.36462   0.00000  Uiso   1.00
H215   H     0.14898   0.59683   0.38072   0.00000  Uiso   1.00
H216   H     0.22304   0.61939   0.41355   0.00000  Uiso   1.00
H217   H     0.18670   0.64674   0.35102   0.00000  Uiso   1.00
H218   H     0.17532   0.45961   0.11498   0.00000  Uiso   1.00
H219   H     0.13153   0.47255   0.05000   0.00000  Uiso   1.00
H220   H     0.07521   0.52891   0.08640   0.00000  Uiso   1.00
H221   H     0.09051   0.47427   0.13017   0.00000  Uiso   1.00
H222   H     0.12682   0.53905   0.15205   0.00000  Uiso   1.00
H223   H     0.27334   0.66460   0.26222   0.00000  Uiso   1.00
H224   H     0.01477   0.35209   0.14263   0.00000  Uiso   1.00
H225   H     0.04524   0.62176   0.14649   0.00000  Uiso   1.00
H226   H     0.09045   0.34695   0.14610   0.00000  Uiso   1.00
H227   H     0.15675   0.45472   0.21361   0.00000  Uiso   1.00
H228   H     0.21149   0.40924   0.40606   0.00000  Uiso   1.00
H229   H     0.30197   0.41754   0.47708   0.00000  Uiso   1.00
H230   H     0.00034   0.57036   0.42202   0.00000  Uiso   1.00
H231   H     0.16754   0.60143   0.02785   0.00000  Uiso   1.00
H232   H     0.06686   0.62261   0.49763   0.00000  Uiso   1.00
H233   H     0.11117   0.42822   0.37784   0.00000  Uiso   1.00
N234   N     0.14493   0.48556   0.23543   0.00000  Uiso   1.00
N235   N     0.18840   0.51444   0.26458   0.00000  Uiso   1.00
O236   O     0.29769   0.57963   0.25358   0.00000  Uiso   1.00
O237   O     0.19409   0.53377   0.08951   0.00000  Uiso   1.00
O238   O     0.06643   0.33703   0.21881   0.00000  Uiso   1.00
O239   O     0.05742   0.57038   0.24424   0.00000  Uiso   1.00
O240   O     0.31490   0.50691   0.33380   0.00000  Uiso   1.00
O241   O     0.07463   0.49766   0.32446   0.00000  Uiso   1.00
O242   O     0.27592   0.42962   0.25577   0.00000  Uiso   1.00
O243   O     0.03565   0.42037   0.24643   0.00000  Uiso   1.00
O244   O     0.25870   0.50234   0.17554   0.00000  Uiso   1.00
O245   O     0.01843   0.49309   0.16620   0.00000  Uiso   1.00
O246   O     0.17159   0.55556   0.29094   0.00000  Uiso   1.00
Zn247  Zn    0.27119   0.50618   0.25624   0.00000  Uiso   1.00
Zn248  Zn    0.06214   0.49382   0.24377   0.00000  Uiso   1.00
C249   C     0.34716   0.59766   0.24644   0.00000  Uiso   1.00
C250   C     0.39630   0.51503   0.41197   0.00000  Uiso   1.00
C251   C     0.35212   0.65104   0.23726   0.00000  Uiso   1.00
C252   C     0.37031   0.50281   0.35422   0.00000  Uiso   1.00
C253   C     0.64459   0.34726   0.24934   0.00000  Uiso   1.00
C254   C     0.65175   0.40193   0.24979   0.00000  Uiso   1.00
C255   C     0.63039   0.49617   0.14527   0.00000  Uiso   1.00
C256   C     0.61692   0.44737   0.49858   0.00000  Uiso   1.00
C257   C     0.61258   0.49197   0.08501   0.00000  Uiso   1.00
C258   C     0.37634   0.55726   0.43813   0.00000  Uiso   1.00
C259   C     0.41437   0.58784   0.48000   0.00000  Uiso   1.00
C260   C     0.49008   0.52869   0.47643   0.00000  Uiso   1.00
C261   C     0.47156   0.57527   0.49718   0.00000  Uiso   1.00
C262   C     0.54690   0.56859   0.33984   0.00000  Uiso   1.00
C263   C     0.52501   0.61050   0.37341   0.00000  Uiso   1.00
C264   C     0.48733   0.49121   0.09102   0.00000  Uiso   1.00
C265   C     0.44167   0.51046   0.11674   0.00000  Uiso   1.00
C266   C     0.38628   0.66384   0.16098   0.00000  Uiso   1.00
C267   C     0.45247   0.49864   0.43292   0.00000  Uiso   1.00
C268   C     0.54301   0.50844   0.00140   0.00000  Uiso   1.00
C269   C     0.56526   0.46815   0.47348   0.00000  Uiso   1.00
C270   C     0.53022   0.44245   0.42616   0.00000  Uiso   1.00
C271   C     0.47277   0.45414   0.40954   0.00000  Uiso   1.00
C272   C     0.56398   0.51619   0.05852   0.00000  Uiso   1.00
C273   C     0.64054   0.45936   0.05421   0.00000  Uiso   1.00
H274   H     0.34316   0.43817   0.07401   0.00000  Uiso   1.00
H275   H     0.58791   0.58491   0.33133   0.00000  Uiso   1.00
H276   H     0.55468   0.53393   0.36462   0.00000  Uiso   1.00
H277   H     0.48231   0.59683   0.38072   0.00000  Uiso   1.00
H278   H     0.55637   0.61939   0.41355   0.00000  Uiso   1.00
H279   H     0.52003   0.64674   0.35102   0.00000  Uiso   1.00
H280   H     0.50866   0.45961   0.11498   0.00000  Uiso   1.00
H281   H     0.46486   0.47255   0.05000   0.00000  Uiso   1.00
H282   H     0.40854   0.52891   0.08640   0.00000  Uiso   1.00
H283   H     0.42385   0.47427   0.13017   0.00000  Uiso   1.00
H284   H     0.46015   0.53905   0.15205   0.00000  Uiso   1.00
H285   H     0.60667   0.66460   0.26222   0.00000  Uiso   1.00
H286   H     0.34810   0.35209   0.14263   0.00000  Uiso   1.00
H287   H     0.37857   0.62176   0.14649   0.00000  Uiso   1.00
H288   H     0.42378   0.34695   0.14610   0.00000  Uiso   1.00
H289   H     0.49008   0.45472   0.21361   0.00000  Uiso   1.00
H290   H     0.54483   0.40924   0.40606   0.00000  Uiso   1.00
H291   H     0.63530   0.41754   0.47708   0.00000  Uiso   1.00
H292   H     0.33367   0.57036   0.42202   0.00000  Uiso   1.00
H293   H     0.50087   0.60143   0.02785   0.00000  Uiso   1.00
H294   H     0.40019   0.62261   0.49763   0.00000  Uiso   1.00
H295   H     0.44451   0.42822   0.37784   0.00000  Uiso   1.00
N296   N     0.47827   0.48556   0.23543   0.00000  Uiso   1.00
N297   N     0.52173   0.51444   0.26458   0.00000  Uiso   1.00
O298   O     0.63102   0.57963   0.25358   0.00000  Uiso   1.00
O299   O     0.52743   0.53377   0.08951   0.00000  Uiso   1.00
O300   O     0.39976   0.33703   0.21881   0.00000  Uiso   1.00
O301   O     0.39075   0.57038   0.24424   0.00000  Uiso   1.00
O302   O     0.64823   0.50691   0.33380   0.00000  Uiso   1.00
O303   O     0.40796   0.49766   0.32446   0.00000  Uiso   1.00
O304   O     0.60925   0.42962   0.25577   0.00000  Uiso   1.00
O305   O     0.36898   0.42037   0.24643   0.00000  Uiso   1.00
O306   O     0.59204   0.50234   0.17554   0.00000  Uiso   1.00
O307   O     0.35177   0.49309   0.16620   0.00000  Uiso   1.00
O308   O     0.50492   0.55556   0.29094   0.00000  Uiso   1.00
Zn309  Zn    0.60453   0.50618   0.25624   0.00000  Uiso   1.00
Zn310  Zn    0.39547   0.49382   0.24377   0.00000  Uiso   1.00
C311   C     0.68049   0.59766   0.24644   0.00000  Uiso   1.00
C312   C     0.72963   0.51503   0.41197   0.00000  Uiso   1.00
C313   C     0.68546   0.65104   0.23726   0.00000  Uiso   1.00
C314   C     0.70364   0.50281   0.35422   0.00000  Uiso   1.00
C315   C     0.97792   0.34726   0.24934   0.00000  Uiso   1.00
C316   C     0.98508   0.40193   0.24979   0.00000  Uiso   1.00
C317   C     0.96372   0.49617   0.14527   0.00000  Uiso   1.00
C318   C     0.95026   0.44737   0.49858   0.00000  Uiso   1.00
C319   C     0.94592   0.49197   0.08501   0.00000  Uiso   1.00
C320   C     0.70967   0.55726   0.43813   0.00000  Uiso   1.00
C321   C     0.74770   0.58784   0.48000   0.00000  Uiso   1.00
C322   C     0.82341   0.52869   0.47643   0.00000  Uiso   1.00
C323   C     0.80489   0.57527   0.49718   0.00000  Uiso   1.00
C324   C     0.88023   0.56859   0.33984   0.00000  Uiso   1.00
C325   C     0.85834   0.61050   0.37341   0.00000  Uiso   1.00
C326   C     0.82066   0.49121   0.09102   0.00000  Uiso   1.00
C327   C     0.77500   0.51046   0.11674   0.00000  Uiso   1.00
C328   C     0.71961   0.66384   0.16098   0.00000  Uiso   1.00
C329   C     0.78580   0.49864   0.43292   0.00000  Uiso   1.00
C330   C     0.87635   0.50844   0.00140   0.00000  Uiso   1.00
C331   C     0.89859   0.46815   0.47348   0.00000  Uiso   1.00
C332   C     0.86355   0.44245   0.42616   0.00000  Uiso   1.00
C333   C     0.80610   0.45414   0.40954   0.00000  Uiso   1.00
C334   C     0.89732   0.51619   0.05852   0.00000  Uiso   1.00
C335   C     0.97387   0.45936   0.05421   0.00000  Uiso   1.00
H336   H     0.67650   0.43817   0.07401   0.00000  Uiso   1.00
H337   H     0.92125   0.58491   0.33133   0.00000  Uiso   1.00
H338   H     0.88801   0.53393   0.36462   0.00000  Uiso   1.00
H339   H     0.81565   0.59683   0.38072   0.00000  Uiso   1.00
H340   H     0.88970   0.61939   0.41355   0.00000  Uiso   1.00
H341   H     0.85336   0.64674   0.35102   0.00000  Uiso   1.00
H342   H     0.84199   0.45961   0.11498   0.00000  Uiso   1.00
H343   H     0.79819   0.47255   0.05000   0.00000  Uiso   1.00
H344   H     0.74187   0.52891   0.08640   0.00000  Uiso   1.00
H345   H     0.75718   0.47427   0.13017   0.00000  Uiso   1.00
H346   H     0.79348   0.53905   0.15205   0.00000  Uiso   1.00
H347   H     0.94001   0.66460   0.26222   0.00000  Uiso   1.00
H348   H     0.68143   0.35209   0.14263   0.00000  Uiso   1.00
H349   H     0.71190   0.62176   0.14649   0.00000  Uiso   1.00
H350   H     0.75712   0.34695   0.14610   0.00000  Uiso   1.00
H351   H     0.82341   0.45472   0.21361   0.00000  Uiso   1.00
H352   H     0.87816   0.40924   0.40606   0.00000  Uiso   1.00
H353   H     0.96864   0.41754   0.47708   0.00000  Uiso   1.00
H354   H     0.66701   0.57036   0.42202   0.00000  Uiso   1.00
H355   H     0.83421   0.60143   0.02785   0.00000  Uiso   1.00
H356   H     0.73353   0.62261   0.49763   0.00000  Uiso   1.00
H357   H     0.77784   0.42822   0.37784   0.00000  Uiso   1.00
N358   N     0.81160   0.48556   0.23543   0.00000  Uiso   1.00
N359   N     0.85507   0.51444   0.26458   0.00000  Uiso   1.00
O360   O     0.96435   0.57963   0.25358   0.00000  Uiso   1.00
O361   O     0.86076   0.53377   0.08951   0.00000  Uiso   1.00
O362   O     0.73310   0.33703   0.21881   0.00000  Uiso   1.00
O363   O     0.72408   0.57038   0.24424   0.00000  Uiso   1.00
O364   O     0.98157   0.50691   0.33380   0.00000  Uiso   1.00
O365   O     0.74130   0.49766   0.32446   0.00000  Uiso   1.00
O366   O     0.94258   0.42962   0.25577   0.00000  Uiso   1.00
O367   O     0.70231   0.42037   0.24643   0.00000  Uiso   1.00
O368   O     0.92537   0.50234   0.17554   0.00000  Uiso   1.00
O369   O     0.68510   0.49309   0.16620   0.00000  Uiso   1.00
O370   O     0.83826   0.55556   0.29094   0.00000  Uiso   1.00
Zn371  Zn    0.93786   0.50618   0.25624   0.00000  Uiso   1.00
Zn372  Zn    0.72881   0.49382   0.24377   0.00000  Uiso   1.00
C373   C     0.01382   0.93099   0.24644   0.00000  Uiso   1.00
C374   C     0.06297   0.84837   0.41197   0.00000  Uiso   1.00
C375   C     0.01879   0.98438   0.23726   0.00000  Uiso   1.00
C376   C     0.03697   0.83614   0.35422   0.00000  Uiso   1.00
C377   C     0.31126   0.68059   0.24934   0.00000  Uiso   1.00
C378   C     0.31841   0.73527   0.24979   0.00000  Uiso   1.00
C379   C     0.29706   0.82950   0.14527   0.00000  Uiso   1.00
C380   C     0.28359   0.78070   0.49858   0.00000  Uiso   1.00
C381   C     0.27925   0.82530   0.08501   0.00000  Uiso   1.00
C382   C     0.04301   0.89059   0.43813   0.00000  Uiso   1.00
C383   C     0.08104   0.92117   0.48000   0.00000  Uiso   1.00
C384   C     0.15675   0.86202   0.47643   0.00000  Uiso   1.00
C385   C     0.13822   0.90861   0.49718   0.00000  Uiso   1.00
C386   C     0.21357   0.90193   0.33984   0.00000  Uiso   1.00
C387   C     0.19168   0.94383   0.37341   0.00000  Uiso   1.00
C388   C     0.15400   0.82455   0.09102   0.00000  Uiso   1.00
C389   C     0.10834   0.84379   0.11674   0.00000  Uiso   1.00
C390   C     0.05295   0.99718   0.16098   0.00000  Uiso   1.00
C391   C     0.11914   0.83197   0.43292   0.00000  Uiso   1.00
C392   C     0.20968   0.84177   0.00140   0.00000  Uiso   1.00
C393   C     0.23192   0.80148   0.47348   0.00000  Uiso   1.00
C394   C     0.19688   0.77579   0.42616   0.00000  Uiso   1.00
C395   C     0.13943   0.78747   0.40954   0.00000  Uiso   1.00
C396   C     0.23065   0.84952   0.05852   0.00000  Uiso   1.00
C397   C     0.30720   0.79269   0.05421   0.00000  Uiso   1.00
H398   H     0.00983   0.77150   0.07401   0.00000  Uiso   1.00
H399   H     0.25458   0.91824   0.33133   0.00000  Uiso   1.00
H400   H     0.22134   0.86726   0.36462   0.00000  Uiso   1.00
H401   H     0.14898   0.93016   0.38072   0.00000  Uiso   1.00
H402   H     0.22304   0.95273   0.41355   0.00000  Uiso   1.00
H403   H     0.18670   0.98007   0.35102   0.00000  Uiso   1.00
H404   H     0.17532   0.79294   0.11498   0.00000  Uiso   1.00
H405   H     0.13153   0.80588   0.05000   0.00000  Uiso   1.00
H406   H     0.07521   0.86224   0.08640   0.00000  Uiso   1.00
H407   H     0.09051   0.80761   0.13017   0.00000  Uiso   1.00
H408   H     0.12682   0.87238   0.15205   0.00000  Uiso   1.00
H409   H     0.27334   0.99793   0.26222   0.00000  Uiso   1.00
H410   H     0.01477   0.68542   0.14263   0.00000  Uiso   1.00
H411   H     0.04524   0.95509   0.14649   0.00000  Uiso   1.00
H412   H     0.09045   0.68028   0.14610   0.00000  Uiso   1.00
H413   H     0.15675   0.78805   0.21361   0.00000  Uiso   1.00
H414   H     0.21149   0.74257   0.40606   0.00000  Uiso   1.00
H415   H     0.30197   0.75087   0.47708   0.00000  Uiso   1.00
H416   H     0.00034   0.90369   0.42202   0.00000  Uiso   1.00
H417   H     0.16754   0.93477   0.02785   0.00000  Uiso   1.00
H418   H     0.06686   0.95595   0.49763   0.00000  Uiso   1.00
H419   H     0.11117   0.76155   0.37784   0.00000  Uiso   1.00
N420   N     0.14493   0.81890   0.23543   0.00000  Uiso   1.00
N421   N     0.18840   0.84777   0.26458   0.00000  Uiso   1.00
O422   O     0.29769   0.91296   0.25358   0.00000  Uiso   1.00
O423   O     0.19409   0.86710   0.08951   0.00000  Uiso   1.00
O424   O     0.06643   0.67036   0.21881   0.00000  Uiso   1.00
O425   O     0.05742   0.90371   0.24424   0.00000  Uiso   1.00
O426   O     0.31490   0.84024   0.33380   0.00000  Uiso   1.00
O427   O     0.07463   0.83099   0.32446   0.00000  Uiso   1.00
O428   O     0.27592   0.76296   0.25577   0.00000  Uiso   1.00
O429   O     0.03565   0.75371   0.24643   0.00000  Uiso   1.00
O430   O     0.25870   0.83567   0.17554   0.00000  Uiso   1.00
O431   O     0.01843   0.82642   0.16620   0.00000  Uiso   1.00
O432   O     0.17159   0.88889   0.29094   0.00000  Uiso   1.00
Zn433  Zn    0.27119   0.83951   0.25624   0.00000  Uiso   1.00
Zn434  Zn    0.06214   0.82716   0.24377   0.00000  Uiso   1.00
C435   C     0.34716   0.93099   0.24644   0.00000  Uiso   1.00
C436   C     0.39630   0.84837   0.41197   0.00000  Uiso   1.00
C437   C     0.35212   0.98438   0.23726   0.00000  Uiso   1.00
C438   C     0.37031   0.83614   0.35422   0.00000  Uiso   1.00
C439   C     0.64459   0.68059   0.24934   0.00000  Uiso   1.00
C440   C     0.65175   0.73527   0.24979   0.00000  Uiso   1.00
C441   C     0.63039   0.82950   0.14527   0.00000  Uiso   1.00
C442   C     0.61692   0.78070   0.49858   0.00000  Uiso   1.00
C443   C     0.61258   0.82530   0.08501   0.00000  Uiso   1.00
C444   C     0.37634   0.89059   0.43813   0.00000  Uiso   1.00
C445   C     0.41437   0.92117   0.48000   0.00000  Uiso   1.00
C446   C     0.49008   0.86202   0.47643   0.00000  Uiso   1.00
C447   C     0.47156   0.90861   0.49718   0.00000  Uiso   1.00
C448   C     0.54690   0.90193   0.33984   0.00000  Uiso   1.00
C449   C     0.52501   0.94383   0.37341   0.00000  Uiso   1.00
C450   C     0.48733   0.82455   0.09102   0.00000  Uiso   1.00
C451   C     0.44167   0.84379   0.11674   0.00000  Uiso   1.00
C452   C     0.38628   0.99718   0.16098   0.00000  Uiso   1.00
C453   C     0.45247   0.83197   0.43292   0.00000  Uiso   1.00
C454   C     0.54301   0.84177   0.00140   0.00000  Uiso   1.00
C455   C     0.56526   0.80148   0.47348   0.00000  Uiso   1.00
C456   C     0.53022   0.77579   0.42616   0.00000  Uiso   1.00
C457   C     0.47277   0.78747   0.40954   0.00000  Uiso   1.00
C458   C     0.56398   0.84952   0.05852   0.00000  Uiso   1.00
C459   C     0.64054   0.79269   0.05421   0.00000  Uiso   1.00
H460   H     0.34316   0.77150   0.07401   0.00000  Uiso   1.00
H461   H     0.58791   0.91824   0.33133   0.00000  Uiso   1.00
H462   H     0.55468   0.86726   0.36462   0.00000  Uiso   1.00
H463   H     0.48231   0.93016   0.38072   0.00000  Uiso   1.00
H464   H     0.55637   0.95273   0.41355   0.00000  Uiso   1.00
H465   H     0.52003   0.98007   0.35102   0.00000  Uiso   1.00
H466   H     0.50866   0.79294   0.11498   0.00000  Uiso   1.00
H467   H     0.46486   0.80588   0.05000   0.00000  Uiso   1.00
H468   H     0.40854   0.86224   0.08640   0.00000  Uiso   1.00
H469   H     0.42385   0.80761   0.13017   0.00000  Uiso   1.00
H470   H     0.46015   0.87238   0.15205   0.00000  Uiso   1.00
H471   H     0.60667   0.99793   0.26222   0.00000  Uiso   1.00
H472   H     0.34810   0.68542   0.14263   0.00000  Uiso   1.00
H473   H     0.37857   0.95509   0.14649   0.00000  Uiso   1.00
H474   H     0.42378   0.68028   0.14610   0.00000  Uiso   1.00
H475   H     0.49008   0.78805   0.21361   0.00000  Uiso   1.00
H476   H     0.54483   0.74257   0.40606   0.00000  Uiso   1.00
H477   H     0.63530   0.75087   0.47708   0.00000  Uiso   1.00
H478   H     0.33367   0.90369   0.42202   0.00000  Uiso   1.00
H479   H     0.50087   0.93477   0.02785   0.00000  Uiso   1.00
H480   H     0.40019   0.95595   0.49763   0.00000  Uiso   1.00
H481   H     0.44451   0.76155   0.37784   0.00000  Uiso   1.00
N482   N     0.47827   0.81890   0.23543   0.00000  Uiso   1.00
N483   N     0.52173   0.84777   0.26458   0.00000  Uiso   1.00
O484   O     0.63102   0.91296   0.25358   0.00000  Uiso   1.00
O485   O     0.52743   0.86710   0.08951   0.00000  Uiso   1.00
O486   O     0.39976   0.67036   0.21881   0.00000  Uiso   1.00
O487   O     0.39075   0.90371   0.24424   0.00000  Uiso   1.00
O488   O     0.64823   0.84024   0.33380   0.00000  Uiso   1.00
O489   O     0.40796   0.83099   0.32446   0.00000  Uiso   1.00
O490   O     0.60925   0.76296   0.25577   0.00000  Uiso   1.00
O491   O     0.36898   0.75371   0.24643   0.00000  Uiso   1.00
O492   O     0.59204   0.83567   0.17554   0.00000  Uiso   1.00
O493   O     0.35177   0.82642   0.16620   0.00000  Uiso   1.00
O494   O     0.50492   0.88889   0.29094   0.00000  Uiso   1.00
Zn495  Zn    0.60453   0.83951   0.25624   0.00000  Uiso   1.00
Zn496  Zn    0.39547   0.82716   0.24377   0.00000  Uiso   1.00
C497   C     0.68049   0.93099   0.24644   0.00000  Uiso   1.00
C498   C     0.72963   0.84837   0.41197   0.00000  Uiso   1.00
C499   C     0.68546   0.98438   0.23726   0.00000  Uiso   1.00
C500   C     0.70364   0.83614   0.35422   0.00000  Uiso   1.00
C501   C     0.97792   0.68059   0.24934   0.00000  Uiso   1.00
C502   C     0.98508   0.73527   0.24979   0.00000  Uiso   1.00
C503   C     0.96372   0.82950   0.14527   0.00000  Uiso   1.00
C504   C     0.95026   0.78070   0.49858   0.00000  Uiso   1.00
C505   C     0.94592   0.82530   0.08501   0.00000  Uiso   1.00
C506   C     0.70967   0.89059   0.43813   0.00000  Uiso   1.00
C507   C     0.74770   0.92117   0.48000   0.00000  Uiso   1.00
C508   C     0.82341   0.86202   0.47643   0.00000  Uiso   1.00
C509   C     0.80489   0.90861   0.49718   0.00000  Uiso   1.00
C510   C     0.88023   0.90193   0.33984   0.00000  Uiso   1.00
C511   C     0.85834   0.94383   0.37341   0.00000  Uiso   1.00
C512   C     0.82066   0.82455   0.09102   0.00000  Uiso   1.00
C513   C     0.77500   0.84379   0.11674   0.00000  Uiso   1.00
C514   C     0.71961   0.99718   0.16098   0.00000  Uiso   1.00
C515   C     0.78580   0.83197   0.43292   0.00000  Uiso   1.00
C516   C     0.87635   0.84177   0.00140   0.00000  Uiso   1.00
C517   C     0.89859   0.80148   0.47348   0.00000  Uiso   1.00
C518   C     0.86355   0.77579   0.42616   0.00000  Uiso   1.00
C519   C     0.80610   0.78747   0.40954   0.00000  Uiso   1.00
C520   C     0.89732   0.84952   0.05852   0.00000  Uiso   1.00
C521   C     0.97387   0.79269   0.05421   0.00000  Uiso   1.00
H522   H     0.67650   0.77150   0.07401   0.00000  Uiso   1.00
H523   H     0.92125   0.91824   0.33133   0.00000  Uiso   1.00
H524   H     0.88801   0.86726   0.36462   0.00000  Uiso   1.00
H525   H     0.81565   0.93016   0.38072   0.00000  Uiso   1.00
H526   H     0.88970   0.95273   0.41355   0.00000  Uiso   1.00
H527   H     0.85336   0.98007   0.35102   0.00000  Uiso   1.00
H528   H     0.84199   0.79294   0.11498   0.00000  Uiso   1.00
H529   H     0.79819   0.80588   0.05000   0.00000  Uiso   1.00
H530   H     0.74187   0.86224   0.08640   0.00000  Uiso   1.00
H531   H     0.75718   0.80761   0.13017   0.00000  Uiso   1.00
H532   H     0.79348   0.87238   0.15205   0.00000  Uiso   1.00
H533   H     0.94001   0.99793   0.26222   0.00000  Uiso   1.00
H534   H     0.68143   0.68542   0.14263   0.00000  Uiso   1.00
H535   H     0.71190   0.95509   0.14649   0.00000  Uiso   1.00
H536   H     0.75712   0.68028   0.14610   0.00000  Uiso   1.00
H537   H     0.82341   0.78805   0.21361   0.00000  Uiso   1.00
H538   H     0.87816   0.74257   0.40606   0.00000  Uiso   1.00
H539   H     0.96864   0.75087   0.47708   0.00000  Uiso   1.00
H540   H     0.66701   0.90369   0.42202   0.00000  Uiso   1.00
H541   H     0.83421   0.93477   0.02785   0.00000  Uiso   1.00
H542   H     0.73353   0.95595   0.49763   0.00000  Uiso   1.00
H543   H     0.77784   0.76155   0.37784   0.00000  Uiso   1.00
N544   N     0.81160   0.81890   0.23543   0.00000  Uiso   1.00
N545   N     0.85507   0.84777   0.26458   0.00000  Uiso   1.00
O546   O     0.96435   0.91296   0.25358   0.00000  Uiso   1.00
O547   O     0.86076   0.86710   0.08951   0.00000  Uiso   1.00
O548   O     0.73310   0.67036   0.21881   0.00000  Uiso   1.00
O549   O     0.72408   0.90371   0.24424   0.00000  Uiso   1.00
O550   O     0.98157   0.84024   0.33380   0.00000  Uiso   1.00
O551   O     0.74130   0.83099   0.32446   0.00000  Uiso   1.00
O552   O     0.94258   0.76296   0.25577   0.00000  Uiso   1.00
O553   O     0.70231   0.75371   0.24643   0.00000  Uiso   1.00
O554   O     0.92537   0.83567   0.17554   0.00000  Uiso   1.00
O555   O     0.68510   0.82642   0.16620   0.00000  Uiso   1.00
O556   O     0.83826   0.88889   0.29094   0.00000  Uiso   1.00
Zn557  Zn    0.93786   0.83951   0.25624   0.00000  Uiso   1.00
Zn558  Zn    0.72881   0.82716   0.24377   0.00000  Uiso   1.00
C559   C     0.01382   0.26432   0.74644   0.00000  Uiso   1.00
C560   C     0.06297   0.18170   0.91197   0.00000  Uiso   1.00
C561   C     0.01879   0.31771   0.73726   0.00000  Uiso   1.00
C562   C     0.03697   0.16948   0.85422   0.00000  Uiso   1.00
C563   C     0.31126   0.01392   0.74934   0.00000  Uiso   1.00
C564   C     0.31841   0.06860   0.74979   0.00000  Uiso   1.00
C565   C     0.29706   0.16284   0.64527   0.00000  Uiso   1.00
C566   C     0.28359   0.11404   0.99858   0.00000  Uiso   1.00
C567   C     0.27925   0.15864   0.58501   0.00000  Uiso   1.00
C568   C     0.04301   0.22392   0.93813   0.00000  Uiso   1.00
C569   C     0.08104   0.25451   0.98000   0.00000  Uiso   1.00
C570   C     0.15675   0.19535   0.97643   0.00000  Uiso   1.00
C571   C     0.13822   0.24194   0.99718   0.00000  Uiso   1.00
C572   C     0.21357   0.23526   0.83984   0.00000  Uiso   1.00
C573   C     0.19168   0.27717   0.87341   0.00000  Uiso   1.00
C574   C     0.15400   0.15788   0.59102   0.00000  Uiso   1.00
C575   C     0.10834   0.17713   0.61674   0.00000  Uiso   1.00
C576   C     0.05295   0.33051   0.66098   0.00000  Uiso   1.00
C577   C     0.11914   0.16531   0.93292   0.00000  Uiso   1.00
C578   C     0.20968   0.17511   0.50140   0.00000  Uiso   1.00
C579   C     0.23192   0.13481   0.97348   0.00000  Uiso   1.00
C580   C     0.19688   0.10912   0.92616   0.00000  Uiso   1.00
C581   C     0.13943   0.12080   0.90954   0.00000  Uiso   1.00
C582   C     0.23065   0.18285   0.55852   0.00000  Uiso   1.00
C583   C     0.30720   0.12603   0.55421   0.00000  Uiso   1.00
H584   H     0.00983   0.10483   0.57401   0.00000  Uiso   1.00
H585   H     0.25458   0.25158   0.83133   0.00000  Uiso   1.00
H586   H     0.22134   0.20060   0.86462   0.00000  Uiso   1.00
H587   H     0.14898   0.26350   0.88072   0.00000  Uiso   1.00
H588   H     0.22304   0.28606   0.91355   0.00000  Uiso   1.00
H589   H     0.18670   0.31341   0.85102   0.00000  Uiso   1.00
H590   H     0.17532   0.12628   0.61498   0.00000  Uiso   1.00
H591   H     0.13153   0.13922   0.55000   0.00000  Uiso   1.00
H592   H     0.07521   0.19557   0.58640   0.00000  Uiso   1.00
H593   H     0.09051   0.14094   0.63017   0.00000  Uiso   1.00
H594   H     0.12682   0.20571   0.65205   0.00000  Uiso   1.00
H595   H     0.27334   0.33126   0.76222   0.00000  Uiso   1.00
H596   H     0.01477   0.01875   0.64263   0.00000  Uiso   1.00
H597   H     0.04524   0.28842   0.64649   0.00000  Uiso   1.00
H598   H     0.09045   0.01361   0.64610   0.00000  Uiso   1.00
H599   H     0.15675   0.12138   0.71361   0.00000  Uiso   1.00
H600   H     0.21149   0.07590   0.90606   0.00000  Uiso   1.00
H601   H     0.30197   0.08421   0.97708   0.00000  Uiso   1.00
H602   H     0.00034   0.23702   0.92202   0.00000  Uiso   1.00
H603   H     0.16754   0.26810   0.52785   0.00000  Uiso   1.00
H604   H     0.06686   0.28928   0.99763   0.00000  Uiso   1.00
H605   H     0.11117   0.09489   0.87784   0.00000  Uiso   1.00
N606   N     0.14493   0.15223   0.73543   0.00000  Uiso   1.00
N607   N     0.18840   0.18110   0.76458   0.00000  Uiso   1.00
O608   O     0.29769   0.24629   0.75358   0.00000  Uiso   1.00
O609   O     0.19409   0.20044   0.58951   0.00000  Uiso   1.00
O610   O     0.06643   0.00370   0.71881   0.00000  Uiso   1.00
O611   O     0.05742   0.23704   0.74424   0.00000  Uiso   1.00
O612   O     0.31490   0.17358   0.83380   0.00000  Uiso   1.00
O613   O     0.07463   0.16433   0.82446   0.00000  Uiso   1.00
O614   O     0.27592   0.09629   0.75577   0.00000  Uiso   1.00
O615   O     0.03565   0.08704   0.74643   0.00000  Uiso   1.00
O616   O     0.25870   0.16901   0.67554   0.00000  Uiso   1.00
O617   O     0.01843   0.15976   0.66620   0.00000  Uiso   1.00
O618   O     0.17159   0.22222   0.79094   0.00000  Uiso   1.00
Zn619  Zn    0.27119   0.17284   0.75624   0.00000  Uiso   1.00
Zn620  Zn    0.06214   0.16049   0.74377   0.00000  Uiso   1.00
C621   C     0.34716   0.26432   0.74644   0.00000  Uiso   1.00
C622   C     0.39630   0.18170   0.91197   0.00000  Uiso   1.00
C623   C     0.35212   0.31771   0.73726   0.00000  Uiso   1.00
C624   C     0.37031   0.16948   0.85422   0.00000  Uiso   1.00
C625   C     0.64459   0.01392   0.74934   0.00000  Uiso   1.00
C626   C     0.65175   0.06860   0.74979   0.00000  Uiso   1.00
C627   C     0.63039   0.16284   0.64527   0.00000  Uiso   1.00
C628   C     0.61692   0.11404   0.99858   0.00000  Uiso   1.00
C629   C     0.61258   0.15864   0.58501   0.00000  Uiso   1.00
C630   C     0.37634   0.22392   0.93813   0.00000  Uiso   1.00
C631   C     0.41437   0.25451   0.98000   0.00000  Uiso   1.00
C632   C     0.49008   0.19535   0.97643   0.00000  Uiso   1.00
C633   C     0.47156   0.24194   0.99718   0.00000  Uiso   1.00
C634   C     0.54690   0.23526   0.83984   0.00000  Uiso   1.00
C635   C     0.52501   0.27717   0.87341   0.00000  Uiso   1.00
C636   C     0.48733   0.15788   0.59102   0.00000  Uiso   1.00
C637   C     0.44167   0.17713   0.61674   0.00000  Uiso   1.00
C638   C     0.38628   0.33051   0.66098   0.00000  Uiso   1.00
C639   C     0.45247   0.16531   0.93292   0.00000  Uiso   1.00
C640   C     0.54301   0.17511   0.50140   0.00000  Uiso   1.00
C641   C     0.56526   0.13481   0.97348   0.00000  Uiso   1.00
C642   C     0.53022   0.10912   0.92616   0.00000  Uiso   1.00
C643   C     0.47277   0.12080   0.90954   0.00000  Uiso   1.00
C644   C     0.56398   0.18285   0.55852   0.00000  Uiso   1.00
C645   C     0.64054   0.12603   0.55421   0.00000  Uiso   1.00
H646   H     0.34316   0.10483   0.57401   0.00000  Uiso   1.00
H647   H     0.58791   0.25158   0.83133   0.00000  Uiso   1.00
H648   H     0.55468   0.20060   0.86462   0.00000  Uiso   1.00
H649   H     0.48231   0.26350   0.88072   0.00000  Uiso   1.00
H650   H     0.55637   0.28606   0.91355   0.00000  Uiso   1.00
H651   H     0.52003   0.31341   0.85102   0.00000  Uiso   1.00
H652   H     0.50866   0.12628   0.61498   0.00000  Uiso   1.00
H653   H     0.46486   0.13922   0.55000   0.00000  Uiso   1.00
H654   H     0.40854   0.19557   0.58640   0.00000  Uiso   1.00
H655   H     0.42385   0.14094   0.63017   0.00000  Uiso   1.00
H656   H     0.46015   0.20571   0.65205   0.00000  Uiso   1.00
H657   H     0.60667   0.33126   0.76222   0.00000  Uiso   1.00
H658   H     0.34810   0.01875   0.64263   0.00000  Uiso   1.00
H659   H     0.37857   0.28842   0.64649   0.00000  Uiso   1.00
H660   H     0.42378   0.01361   0.64610   0.00000  Uiso   1.00
H661   H     0.49008   0.12138   0.71361   0.00000  Uiso   1.00
H662   H     0.54483   0.07590   0.90606   0.00000  Uiso   1.00
H663   H     0.63530   0.08421   0.97708   0.00000  Uiso   1.00
H664   H     0.33367   0.23702   0.92202   0.00000  Uiso   1.00
H665   H     0.50087   0.26810   0.52785   0.00000  Uiso   1.00
H666   H     0.40019   0.28928   0.99763   0.00000  Uiso   1.00
H667   H     0.44451   0.09489   0.87784   0.00000  Uiso   1.00
N668   N     0.47827   0.15223   0.73543   0.00000  Uiso   1.00
N669   N     0.52173   0.18110   0.76458   0.00000  Uiso   1.00
O670   O     0.63102   0.24629   0.75358   0.00000  Uiso   1.00
O671   O     0.52743   0.20044   0.58951   0.00000  Uiso   1.00
O672   O     0.39976   0.00370   0.71881   0.00000  Uiso   1.00
O673   O     0.39075   0.23704   0.74424   0.00000  Uiso   1.00
O674   O     0.64823   0.17358   0.83380   0.00000  Uiso   1.00
O675   O     0.40796   0.16433   0.82446   0.00000  Uiso   1.00
O676   O     0.60925   0.09629   0.75577   0.00000  Uiso   1.00
O677   O     0.36898   0.08704   0.74643   0.00000  Uiso   1.00
O678   O     0.59204   0.16901   0.67554   0.00000  Uiso   1.00
O679   O     0.35177   0.15976   0.66620   0.00000  Uiso   1.00
O680   O     0.50492   0.22222   0.79094   0.00000  Uiso   1.00
Zn681  Zn    0.60453   0.17284   0.75624   0.00000  Uiso   1.00
Zn682  Zn    0.39547   0.16049   0.74377   0.00000  Uiso   1.00
C683   C     0.68049   0.26432   0.74644   0.00000  Uiso   1.00
C684   C     0.72963   0.18170   0.91197   0.00000  Uiso   1.00
C685   C     0.68546   0.31771   0.73726   0.00000  Uiso   1.00
C686   C     0.70364   0.16948   0.85422   0.00000  Uiso   1.00
C687   C     0.97792   0.01392   0.74934   0.00000  Uiso   1.00
C688   C     0.98508   0.06860   0.74979   0.00000  Uiso   1.00
C689   C     0.96372   0.16284   0.64527   0.00000  Uiso   1.00
C690   C     0.95026   0.11404   0.99858   0.00000  Uiso   1.00
C691   C     0.94592   0.15864   0.58501   0.00000  Uiso   1.00
C692   C     0.70967   0.22392   0.93813   0.00000  Uiso   1.00
C693   C     0.74770   0.25451   0.98000   0.00000  Uiso   1.00
C694   C     0.82341   0.19535   0.97643   0.00000  Uiso   1.00
C695   C     0.80489   0.24194   0.99718   0.00000  Uiso   1.00
C696   C     0.88023   0.23526   0.83984   0.00000  Uiso   1.00
C697   C     0.85834   0.27717   0.87341   0.00000  Uiso   1.00
C698   C     0.82066   0.15788   0.59102   0.00000  Uiso   1.00
C699   C     0.77500   0.17713   0.61674   0.00000  Uiso   1.00
C700   C     0.71961   0.33051   0.66098   0.00000  Uiso   1.00
C701   C     0.78580   0.16531   0.93292   0.00000  Uiso   1.00
C702   C     0.87635   0.17511   0.50140   0.00000  Uiso   1.00
C703   C     0.89859   0.13481   0.97348   0.00000  Uiso   1.00
C704   C     0.86355   0.10912   0.92616   0.00000  Uiso   1.00
C705   C     0.80610   0.12080   0.90954   0.00000  Uiso   1.00
C706   C     0.89732   0.18285   0.55852   0.00000  Uiso   1.00
C707   C     0.97387   0.12603   0.55421   0.00000  Uiso   1.00
H708   H     0.67650   0.10483   0.57401   0.00000  Uiso   1.00
H709   H     0.92125   0.25158   0.83133   0.00000  Uiso   1.00
H710   H     0.88801   0.20060   0.86462   0.00000  Uiso   1.00
H711   H     0.81565   0.26350   0.88072   0.00000  Uiso   1.00
H712   H     0.88970   0.28606   0.91355   0.00000  Uiso   1.00
H713   H     0.85336   0.31341   0.85102   0.00000  Uiso   1.00
H714   H     0.84199   0.12628   0.61498   0.00000  Uiso   1.00
H715   H     0.79819   0.13922   0.55000   0.00000  Uiso   1.00
H716   H     0.74187   0.19557   0.58640   0.00000  Uiso   1.00
H717   H     0.75718   0.14094   0.63017   0.00000  Uiso   1.00
H718   H     0.79348   0.20571   0.65205   0.00000  Uiso   1.00
H719   H     0.94001   0.33126   0.76222   0.00000  Uiso   1.00
H720   H     0.68143   0.01875   0.64263   0.00000  Uiso   1.00
H721   H     0.71190   0.28842   0.64649   0.00000  Uiso   1.00
H722   H     0.75712   0.01361   0.64610   0.00000  Uiso   1.00
H723   H     0.82341   0.12138   0.71361   0.00000  Uiso   1.00
H724   H     0.87816   0.07590   0.90606   0.00000  Uiso   1.00
H725   H     0.96864   0.08421   0.97708   0.00000  Uiso   1.00
H726   H     0.66701   0.23702   0.92202   0.00000  Uiso   1.00
H727   H     0.83421   0.26810   0.52785   0.00000  Uiso   1.00
H728   H     0.73353   0.28928   0.99763   0.00000  Uiso   1.00
H729   H     0.77784   0.09489   0.87784   0.00000  Uiso   1.00
N730   N     0.81160   0.15223   0.73543   0.00000  Uiso   1.00
N731   N     0.85507   0.18110   0.76458   0.00000  Uiso   1.00
O732   O     0.96435   0.24629   0.75358   0.00000  Uiso   1.00
O733   O     0.86076   0.20044   0.58951   0.00000  Uiso   1.00
O734   O     0.73310   0.00370   0.71881   0.00000  Uiso   1.00
O735   O     0.72408   0.23704   0.74424   0.00000  Uiso   1.00
O736   O     0.98157   0.17358   0.83380   0.00000  Uiso   1.00
O737   O     0.74130   0.16433   0.82446   0.00000  Uiso   1.00
O738   O     0.94258   0.09629   0.75577   0.00000  Uiso   1.00
O739   O     0.70231   0.08704   0.74643   0.00000  Uiso   1.00
O740   O     0.92537   0.16901   0.67554   0.00000  Uiso   1.00
O741   O     0.68510   0.15976   0.66620   0.00000  Uiso   1.00
O742   O     0.83826   0.22222   0.79094   0.00000  Uiso   1.00
Zn743  Zn    0.93786   0.17284   0.75624   0.00000  Uiso   1.00
Zn744  Zn    0.72881   0.16049   0.74377   0.00000  Uiso   1.00
C745   C     0.01382   0.59766   0.74644   0.00000  Uiso   1.00
C746   C     0.06297   0.51503   0.91197   0.00000  Uiso   1.00
C747   C     0.01879   0.65104   0.73726   0.00000  Uiso   1.00
C748   C     0.03697   0.50281   0.85422   0.00000  Uiso   1.00
C749   C     0.31126   0.34726   0.74934   0.00000  Uiso   1.00
C750   C     0.31841   0.40193   0.74979   0.00000  Uiso   1.00
C751   C     0.29706   0.49617   0.64527   0.00000  Uiso   1.00
C752   C     0.28359   0.44737   0.99858   0.00000  Uiso   1.00
C753   C     0.27925   0.49197   0.58501   0.00000  Uiso   1.00
C754   C     0.04301   0.55726   0.93813   0.00000  Uiso   1.00
C755   C     0.08104   0.58784   0.98000   0.00000  Uiso   1.00
C756   C     0.15675   0.52869   0.97643   0.00000  Uiso   1.00
C757   C     0.13822   0.57527   0.99718   0.00000  Uiso   1.00
C758   C     0.21357   0.56859   0.83984   0.00000  Uiso   1.00
C759   C     0.19168   0.61050   0.87341   0.00000  Uiso   1.00
C760   C     0.15400   0.49121   0.59102   0.00000  Uiso   1.00
C761   C     0.10834   0.51046   0.61674   0.00000  Uiso   1.00
C762   C     0.05295   0.66384   0.66098   0.00000  Uiso   1.00
C763   C     0.11914   0.49864   0.93292   0.00000  Uiso   1.00
C764   C     0.20968   0.50844   0.50140   0.00000  Uiso   1.00
C765   C     0.23192   0.46815   0.97348   0.00000  Uiso   1.00
C766   C     0.19688   0.44245   0.92616   0.00000  Uiso   1.00
C767   C     0.13943   0.45414   0.90954   0.00000  Uiso   1.00
C768   C     0.23065   0.51619   0.55852   0.00000  Uiso   1.00
C769   C     0.30720   0.45936   0.55421   0.00000  Uiso   1.00
H770   H     0.00983   0.43817   0.57401   0.00000  Uiso   1.00
H771   H     0.25458   0.58491   0.83133   0.00000  Uiso   1.00
H772   H     0.22134   0.53393   0.86462   0.00000  Uiso   1.00
H773   H     0.14898   0.59683   0.88072   0.00000  Uiso   1.00
H774   H     0.22304   0.61939   0.91355   0.00000  Uiso   1.00
H775   H     0.18670   0.64674   0.85102   0.00000  Uiso   1.00
H776   H     0.17532   0.45961   0.61498   0.00000  Uiso   1.00
H777   H     0.13153   0.47255   0.55000   0.00000  Uiso   1.00
H778   H     0.07521   0.52891   0.58640   0.00000  Uiso   1.00
H779   H     0.09051   0.47427   0.63017   0.00000  Uiso   1.00
H780   H     0.12682   0.53905   0.65205   0.00000  Uiso   1.00
H781   H     0.27334   0.66460   0.76222   0.00000  Uiso   1.00
H782   H     0.01477   0.35209   0.64263   0.00000  Uiso   1.00
H783   H     0.04524   0.62176   0.64649   0.00000  Uiso   1.00
H784   H     0.09045   0.34695   0.64610   0.00000  Uiso   1.00
H785   H     0.15675   0.45472   0.71361   0.00000  Uiso   1.00
H786   H     0.21149   0.40924   0.90606   0.00000  Uiso   1.00
H787   H     0.30197   0.41754   0.97708   0.00000  Uiso   1.00
H788   H     0.00034   0.57036   0.92202   0.00000  Uiso   1.00
H789   H     0.16754   0.60143   0.52785   0.00000  Uiso   1.00
H790   H     0.06686   0.62261   0.99763   0.00000  Uiso   1.00
H791   H     0.11117   0.42822   0.87784   0.00000  Uiso   1.00
N792   N     0.14493   0.48556   0.73543   0.00000  Uiso   1.00
N793   N     0.18840   0.51444   0.76458   0.00000  Uiso   1.00
O794   O     0.29769   0.57963   0.75358   0.00000  Uiso   1.00
O795   O     0.19409   0.53377   0.58951   0.00000  Uiso   1.00
O796   O     0.06643   0.33703   0.71881   0.00000  Uiso   1.00
O797   O     0.05742   0.57038   0.74424   0.00000  Uiso   1.00
O798   O     0.31490   0.50691   0.83380   0.00000  Uiso   1.00
O799   O     0.07463   0.49766   0.82446   0.00000  Uiso   1.00
O800   O     0.27592   0.42962   0.75577   0.00000  Uiso   1.00
O801   O     0.03565   0.42037   0.74643   0.00000  Uiso   1.00
O802   O     0.25870   0.50234   0.67554   0.00000  Uiso   1.00
O803   O     0.01843   0.49309   0.66620   0.00000  Uiso   1.00
O804   O     0.17159   0.55556   0.79094   0.00000  Uiso   1.00
Zn805  Zn    0.27119   0.50618   0.75624   0.00000  Uiso   1.00
Zn806  Zn    0.06214   0.49382   0.74377   0.00000  Uiso   1.00
C807   C     0.34716   0.59766   0.74644   0.00000  Uiso   1.00
C808   C     0.39630   0.51503   0.91197   0.00000  Uiso   1.00
C809   C     0.35212   0.65104   0.73726   0.00000  Uiso   1.00
C810   C     0.37031   0.50281   0.85422   0.00000  Uiso   1.00
C811   C     0.64459   0.34726   0.74934   0.00000  Uiso   1.00
C812   C     0.65175   0.40193   0.74979   0.00000  Uiso   1.00
C813   C     0.63039   0.49617   0.64527   0.00000  Uiso   1.00
C814   C     0.61692   0.44737   0.99858   0.00000  Uiso   1.00
C815   C     0.61258   0.49197   0.58501   0.00000  Uiso   1.00
C816   C     0.37634   0.55726   0.93813   0.00000  Uiso   1.00
C817   C     0.41437   0.58784   0.98000   0.00000  Uiso   1.00
C818   C     0.49008   0.52869   0.97643   0.00000  Uiso   1.00
C819   C     0.47156   0.57527   0.99718   0.00000  Uiso   1.00
C820   C     0.54690   0.56859   0.83984   0.00000  Uiso   1.00
C821   C     0.52501   0.61050   0.87341   0.00000  Uiso   1.00
C822   C     0.48733   0.49121   0.59102   0.00000  Uiso   1.00
C823   C     0.44167   0.51046   0.61674   0.00000  Uiso   1.00
C824   C     0.38628   0.66384   0.66098   0.00000  Uiso   1.00
C825   C     0.45247   0.49864   0.93292   0.00000  Uiso   1.00
C826   C     0.54301   0.50844   0.50140   0.00000  Uiso   1.00
C827   C     0.56526   0.46815   0.97348   0.00000  Uiso   1.00
C828   C     0.53022   0.44245   0.92616   0.00000  Uiso   1.00
C829   C     0.47277   0.45414   0.90954   0.00000  Uiso   1.00
C830   C     0.56398   0.51619   0.55852   0.00000  Uiso   1.00
C831   C     0.64054   0.45936   0.55421   0.00000  Uiso   1.00
H832   H     0.34316   0.43817   0.57401   0.00000  Uiso   1.00
H833   H     0.58791   0.58491   0.83133   0.00000  Uiso   1.00
H834   H     0.55468   0.53393   0.86462   0.00000  Uiso   1.00
H835   H     0.48231   0.59683   0.88072   0.00000  Uiso   1.00
H836   H     0.55637   0.61939   0.91355   0.00000  Uiso   1.00
H837   H     0.52003   0.64674   0.85102   0.00000  Uiso   1.00
H838   H     0.50866   0.45961   0.61498   0.00000  Uiso   1.00
H839   H     0.46486   0.47255   0.55000   0.00000  Uiso   1.00
H840   H     0.40854   0.52891   0.58640   0.00000  Uiso   1.00
H841   H     0.42385   0.47427   0.63017   0.00000  Uiso   1.00
H842   H     0.46015   0.53905   0.65205   0.00000  Uiso   1.00
H843   H     0.60667   0.66460   0.76222   0.00000  Uiso   1.00
H844   H     0.34810   0.35209   0.64263   0.00000  Uiso   1.00
H845   H     0.37857   0.62176   0.64649   0.00000  Uiso   1.00
H846   H     0.42378   0.34695   0.64610   0.00000  Uiso   1.00
H847   H     0.49008   0.45472   0.71361   0.00000  Uiso   1.00
H848   H     0.54483   0.40924   0.90606   0.00000  Uiso   1.00
H849   H     0.63530   0.41754   0.97708   0.00000  Uiso   1.00
H850   H     0.33367   0.57036   0.92202   0.00000  Uiso   1.00
H851   H     0.50087   0.60143   0.52785   0.00000  Uiso   1.00
H852   H     0.40019   0.62261   0.99763   0.00000  Uiso   1.00
H853   H     0.44451   0.42822   0.87784   0.00000  Uiso   1.00
N854   N     0.47827   0.48556   0.73543   0.00000  Uiso   1.00
N855   N     0.52173   0.51444   0.76458   0.00000  Uiso   1.00
O856   O     0.63102   0.57963   0.75358   0.00000  Uiso   1.00
O857   O     0.52743   0.53377   0.58951   0.00000  Uiso   1.00
O858   O     0.39976   0.33703   0.71881   0.00000  Uiso   1.00
O859   O     0.39075   0.57038   0.74424   0.00000  Uiso   1.00
O860   O     0.64823   0.50691   0.83380   0.00000  Uiso   1.00
O861   O     0.40796   0.49766   0.82446   0.00000  Uiso   1.00
O862   O     0.60925   0.42962   0.75577   0.00000  Uiso   1.00
O863   O     0.36898   0.42037   0.74643   0.00000  Uiso   1.00
O864   O     0.59204   0.50234   0.67554   0.00000  Uiso   1.00
O865   O     0.35177   0.49309   0.66620   0.00000  Uiso   1.00
O866   O     0.50492   0.55556   0.79094   0.00000  Uiso   1.00
Zn867  Zn    0.60453   0.50618   0.75624   0.00000  Uiso   1.00
Zn868  Zn    0.39547   0.49382   0.74377   0.00000  Uiso   1.00
C869   C     0.68049   0.59766   0.74644   0.00000  Uiso   1.00
C870   C     0.72963   0.51503   0.91197   0.00000  Uiso   1.00
C871   C     0.68546   0.65104   0.73726   0.00000  Uiso   1.00
C872   C     0.70364   0.50281   0.85422   0.00000  Uiso   1.00
C873   C     0.97792   0.34726   0.74934   0.00000  Uiso   1.00
C874   C     0.98508   0.40193   0.74979   0.00000  Uiso   1.00
C875   C     0.96372   0.49617   0.64527   0.00000  Uiso   1.00
C876   C     0.95026   0.44737   0.99858   0.00000  Uiso   1.00
C877   C     0.94592   0.49197   0.58501   0.00000  Uiso   1.00
C878   C     0.70967   0.55726   0.93813   0.00000  Uiso   1.00
C879   C     0.74770   0.58784   0.98000   0.00000  Uiso   1.00
C880   C     0.82341   0.52869   0.97643   0.00000  Uiso   1.00
C881   C     0.80489   0.57527   0.99718   0.00000  Uiso   1.00
C882   C     0.88023   0.56859   0.83984   0.00000  Uiso   1.00
C883   C     0.85834   0.61050   0.87341   0.00000  Uiso   1.00
C884   C     0.82066   0.49121   0.59102   0.00000  Uiso   1.00
C885   C     0.77500   0.51046   0.61674   0.00000  Uiso   1.00
C886   C     0.71961   0.66384   0.66098   0.00000  Uiso   1.00
C887   C     0.78580   0.49864   0.93292   0.00000  Uiso   1.00
C888   C     0.87635   0.50844   0.50140   0.00000  Uiso   1.00
C889   C     0.89859   0.46815   0.97348   0.00000  Uiso   1.00
C890   C     0.86355   0.44245   0.92616   0.00000  Uiso   1.00
C891   C     0.80610   0.45414   0.90954   0.00000  Uiso   1.00
C892   C     0.89732   0.51619   0.55852   0.00000  Uiso   1.00
C893   C     0.97387   0.45936   0.55421   0.00000  Uiso   1.00
H894   H     0.67650   0.43817   0.57401   0.00000  Uiso   1.00
H895   H     0.92125   0.58491   0.83133   0.00000  Uiso   1.00
H896   H     0.88801   0.53393   0.86462   0.00000  Uiso   1.00
H897   H     0.81565   0.59683   0.88072   0.00000  Uiso   1.00
H898   H     0.88970   0.61939   0.91355   0.00000  Uiso   1.00
H899   H     0.85336   0.64674   0.85102   0.00000  Uiso   1.00
H900   H     0.84199   0.45961   0.61498   0.00000  Uiso   1.00
H901   H     0.79819   0.47255   0.55000   0.00000  Uiso   1.00
H902   H     0.74187   0.52891   0.58640   0.00000  Uiso   1.00
H903   H     0.75718   0.47427   0.63017   0.00000  Uiso   1.00
H904   H     0.79348   0.53905   0.65205   0.00000  Uiso   1.00
H905   H     0.94001   0.66460   0.76222   0.00000  Uiso   1.00
H906   H     0.68143   0.35209   0.64263   0.00000  Uiso   1.00
H907   H     0.71190   0.62176   0.64649   0.00000  Uiso   1.00
H908   H     0.75712   0.34695   0.64610   0.00000  Uiso   1.00
H909   H     0.82341   0.45472   0.71361   0.00000  Uiso   1.00
H910   H     0.87816   0.40924   0.90606   0.00000  Uiso   1.00
H911   H     0.96864   0.41754   0.97708   0.00000  Uiso   1.00
H912   H     0.66701   0.57036   0.92202   0.00000  Uiso   1.00
H913   H     0.83421   0.60143   0.52785   0.00000  Uiso   1.00
H914   H     0.73353   0.62261   0.99763   0.00000  Uiso   1.00
H915   H     0.77784   0.42822   0.87784   0.00000  Uiso   1.00
N916   N     0.81160   0.48556   0.73543   0.00000  Uiso   1.00
N917   N     0.85507   0.51444   0.76458   0.00000  Uiso   1.00
O918   O     0.96435   0.57963   0.75358   0.00000  Uiso   1.00
O919   O     0.86076   0.53377   0.58951   0.00000  Uiso   1.00
O920   O     0.73310   0.33703   0.71881   0.00000  Uiso   1.00
O921   O     0.72408   0.57038   0.74424   0.00000  Uiso   1.00
O922   O     0.98157   0.50691   0.83380   0.00000  Uiso   1.00
O923   O     0.74130   0.49766   0.82446   0.00000  Uiso   1.00
O924   O     0.94258   0.42962   0.75577   0.00000  Uiso   1.00
O925   O     0.70231   0.42037   0.74643   0.00000  Uiso   1.00
O926   O     0.92537   0.50234   0.67554   0.00000  Uiso   1.00
O927   O     0.68510   0.49309   0.66620   0.00000  Uiso   1.00
O928   O     0.83826   0.55556   0.79094   0.00000  Uiso   1.00
Zn929  Zn    0.93786   0.50618   0.75624   0.00000  Uiso   1.00
Zn930  Zn    0.72881   0.49382   0.74377   0.00000  Uiso   1.00
C931   C     0.01382   0.93099   0.74644   0.00000  Uiso   1.00
C932   C     0.06297   0.84837   0.91197   0.00000  Uiso   1.00
C933   C     0.01879   0.98438   0.73726   0.00000  Uiso   1.00
C934   C     0.03697   0.83614   0.85422   0.00000  Uiso   1.00
C935   C     0.31126   0.68059   0.74934   0.00000  Uiso   1.00
C936   C     0.31841   0.73527   0.74979   0.00000  Uiso   1.00
C937   C     0.29706   0.82950   0.64527   0.00000  Uiso   1.00
C938   C     0.28359   0.78070   0.99858   0.00000  Uiso   1.00
C939   C     0.27925   0.82530   0.58501   0.00000  Uiso   1.00
C940   C     0.04301   0.89059   0.93813   0.00000  Uiso   1.00
C941   C     0.08104   0.92117   0.98000   0.00000  Uiso   1.00
C942   C     0.15675   0.86202   0.97643   0.00000  Uiso   1.00
C943   C     0.13822   0.90861   0.99718   0.00000  Uiso   1.00
C944   C     0.21357   0.90193   0.83984   0.00000  Uiso   1.00
C945   C     0.19168   0.94383   0.87341   0.00000  Uiso   1.00
C946   C     0.15400   0.82455   0.59102   0.00000  Uiso   1.00
C947   C     0.10834   0.84379   0.61674   0.00000  Uiso   1.00
C948   C     0.05295   0.99718   0.66098   0.00000  Uiso   1.00
C949   C     0.11914   0.83197   0.93292   0.00000  Uiso   1.00
C950   C     0.20968   0.84177   0.50140   0.00000  Uiso   1.00
C951   C     0.23192   0.80148   0.97348   0.00000  Uiso   1.00
C952   C     0.19688   0.77579   0.92616   0.00000  Uiso   1.00
C953   C     0.13943   0.78747   0.90954   0.00000  Uiso   1.00
C954   C     0.23065   0.84952   0.55852   0.00000  Uiso   1.00
C955   C     0.30720   0.79269   0.55421   0.00000  Uiso   1.00
H956   H     0.00983   0.77150   0.57401   0.00000  Uiso   1.00
H957   H     0.25458   0.91824   0.83133   0.00000  Uiso   1.00
H958   H     0.22134   0.86726   0.86462   0.00000  Uiso   1.00
H959   H     0.14898   0.93016   0.88072   0.00000  Uiso   1.00
H960   H     0.22304   0.95273   0.91355   0.00000  Uiso   1.00
H961   H     0.18670   0.98007   0.85102   0.00000  Uiso   1.00
H962   H     0.17532   0.79294   0.61498   0.00000  Uiso   1.00
H963   H     0.13153   0.80588   0.55000   0.00000  Uiso   1.00
H964   H     0.07521   0.86224   0.58640   0.00000  Uiso   1.00
H965   H     0.09051   0.80761   0.63017   0.00000  Uiso   1.00
H966   H     0.12682   0.87238   0.65205   0.00000  Uiso   1.00
H967   H     0.27334   0.99793   0.76222   0.00000  Uiso   1.00
H968   H     0.01477   0.68542   0.64263   0.00000  Uiso   1.00
H969   H     0.04524   0.95509   0.64649   0.00000  Uiso   1.00
H970   H     0.09045   0.68028   0.64610   0.00000  Uiso   1.00
H971   H     0.15675   0.78805   0.71361   0.00000  Uiso   1.00
H972   H     0.21149   0.74257   0.90606   0.00000  Uiso   1.00
H973   H     0.30197   0.75087   0.97708   0.00000  Uiso   1.00
H974   H     0.00034   0.90369   0.92202   0.00000  Uiso   1.00
H975   H     0.16754   0.93477   0.52785   0.00000  Uiso   1.00
H976   H     0.06686   0.95595   0.99763   0.00000  Uiso   1.00
H977   H     0.11117   0.76155   0.87784   0.00000  Uiso   1.00
N978   N     0.14493   0.81890   0.73543   0.00000  Uiso   1.00
N979   N     0.18840   0.84777   0.76458   0.00000  Uiso   1.00
O980   O     0.29769   0.91296   0.75358   0.00000  Uiso   1.00
O981   O     0.19409   0.86710   0.58951   0.00000  Uiso   1.00
O982   O     0.06643   0.67036   0.71881   0.00000  Uiso   1.00
O983   O     0.05742   0.90371   0.74424   0.00000  Uiso   1.00
O984   O     0.31490   0.84024   0.83380   0.00000  Uiso   1.00
O985   O     0.07463   0.83099   0.82446   0.00000  Uiso   1.00
O986   O     0.27592   0.76296   0.75577   0.00000  Uiso   1.00
O987   O     0.03565   0.75371   0.74643   0.00000  Uiso   1.00
O988   O     0.25870   0.83567   0.67554   0.00000  Uiso   1.00
O989   O     0.01843   0.82642   0.66620   0.00000  Uiso   1.00
O990   O     0.17159   0.88889   0.79094   0.00000  Uiso   1.00
Zn991  Zn    0.27119   0.83951   0.75624   0.00000  Uiso   1.00
Zn992  Zn    0.06214   0.82716   0.74377   0.00000  Uiso   1.00
C993   C     0.34716   0.93099   0.74644   0.00000  Uiso   1.00
C994   C     0.39630   0.84837   0.91197   0.00000  Uiso   1.00
C995   C     0.35212   0.98438   0.73726   0.00000  Uiso   1.00
C996   C     0.37031   0.83614   0.85422   0.00000  Uiso   1.00
C997   C     0.64459   0.68059   0.74934   0.00000  Uiso   1.00
C998   C     0.65175   0.73527   0.74979   0.00000  Uiso   1.00
C999   C     0.63039   0.82950   0.64527   0.00000  Uiso   1.00
C1000  C     0.61692   0.78070   0.99858   0.00000  Uiso   1.00
C1001  C     0.61258   0.82530   0.58501   0.00000  Uiso   1.00
C1002  C     0.37634   0.89059   0.93813   0.00000  Uiso   1.00
C1003  C     0.41437   0.92117   0.98000   0.00000  Uiso   1.00
C1004  C     0.49008   0.86202   0.97643   0.00000  Uiso   1.00
C1005  C     0.47156   0.90861   0.99718   0.00000  Uiso   1.00
C1006  C     0.54690   0.90193   0.83984   0.00000  Uiso   1.00
C1007  C     0.52501   0.94383   0.87341   0.00000  Uiso   1.00
C1008  C     0.48733   0.82455   0.59102   0.00000  Uiso   1.00
C1009  C     0.44167   0.84379   0.61674   0.00000  Uiso   1.00
C1010  C     0.38628   0.99718   0.66098   0.00000  Uiso   1.00
C1011  C     0.45247   0.83197   0.93292   0.00000  Uiso   1.00
C1012  C     0.54301   0.84177   0.50140   0.00000  Uiso   1.00
C1013  C     0.56526   0.80148   0.97348   0.00000  Uiso   1.00
C1014  C     0.53022   0.77579   0.92616   0.00000  Uiso   1.00
C1015  C     0.47277   0.78747   0.90954   0.00000  Uiso   1.00
C1016  C     0.56398   0.84952   0.55852   0.00000  Uiso   1.00
C1017  C     0.64054   0.79269   0.55421   0.00000  Uiso   1.00
H1018  H     0.34316   0.77150   0.57401   0.00000  Uiso   1.00
H1019  H     0.58791   0.91824   0.83133   0.00000  Uiso   1.00
H1020  H     0.55468   0.86726   0.86462   0.00000  Uiso   1.00
H1021  H     0.48231   0.93016   0.88072   0.00000  Uiso   1.00
H1022  H     0.55637   0.95273   0.91355   0.00000  Uiso   1.00
H1023  H     0.52003   0.98007   0.85102   0.00000  Uiso   1.00
H1024  H     0.50866   0.79294   0.61498   0.00000  Uiso   1.00
H1025  H     0.46486   0.80588   0.55000   0.00000  Uiso   1.00
H1026  H     0.40854   0.86224   0.58640   0.00000  Uiso   1.00
H1027  H     0.42385   0.80761   0.63017   0.00000  Uiso   1.00
H1028  H     0.46015   0.87238   0.65205   0.00000  Uiso   1.00
H1029  H     0.60667   0.99793   0.76222   0.00000  Uiso   1.00
H1030  H     0.34810   0.68542   0.64263   0.00000  Uiso   1.00
H1031  H     0.37857   0.95509   0.64649   0.00000  Uiso   1.00
H1032  H     0.42378   0.68028   0.64610   0.00000  Uiso   1.00
H1033  H     0.49008   0.78805   0.71361   0.00000  Uiso   1.00
H1034  H     0.54483   0.74257   0.90606   0.00000  Uiso   1.00
H1035  H     0.63530   0.75087   0.97708   0.00000  Uiso   1.00
H1036  H     0.33367   0.90369   0.92202   0.00000  Uiso   1.00
H1037  H     0.50087   0.93477   0.52785   0.00000  Uiso   1.00
H1038  H     0.40019   0.95595   0.99763   0.00000  Uiso   1.00
H1039  H     0.44451   0.76155   0.87784   0.00000  Uiso   1.00
N1040  N     0.47827   0.81890   0.73543   0.00000  Uiso   1.00
N1041  N     0.52173   0.84777   0.76458   0.00000  Uiso   1.00
O1042  O     0.63102   0.91296   0.75358   0.00000  Uiso   1.00
O1043  O     0.52743   0.86710   0.58951   0.00000  Uiso   1.00
O1044  O     0.39976   0.67036   0.71881   0.00000  Uiso   1.00
O1045  O     0.39075   0.90371   0.74424   0.00000  Uiso   1.00
O1046  O     0.64823   0.84024   0.83380   0.00000  Uiso   1.00
O1047  O     0.40796   0.83099   0.82446   0.00000  Uiso   1.00
O1048  O     0.60925   0.76296   0.75577   0.00000  Uiso   1.00
O1049  O     0.36898   0.75371   0.74643   0.00000  Uiso   1.00
O1050  O     0.59204   0.83567   0.67554   0.00000  Uiso   1.00
O1051  O     0.35177   0.82642   0.66620   0.00000  Uiso   1.00
O1052  O     0.50492   0.88889   0.79094   0.00000  Uiso   1.00
Zn1053 Zn    0.60453   0.83951   0.75624   0.00000  Uiso   1.00
Zn1054 Zn    0.39547   0.82716   0.74377   0.00000  Uiso   1.00
C1055  C     0.68049   0.93099   0.74644   0.00000  Uiso   1.00
C1056  C     0.72963   0.84837   0.91197   0.00000  Uiso   1.00
C1057  C     0.68546   0.98438   0.73726   0.00000  Uiso   1.00
C1058  C     0.70364   0.83614   0.85422   0.00000  Uiso   1.00
C1059  C     0.97792   0.68059   0.74934   0.00000  Uiso   1.00
C1060  C     0.98508   0.73527   0.74979   0.00000  Uiso   1.00
C1061  C     0.96372   0.82950   0.64527   0.00000  Uiso   1.00
C1062  C     0.95026   0.78070   0.99858   0.00000  Uiso   1.00
C1063  C     0.94592   0.82530   0.58501   0.00000  Uiso   1.00
C1064  C     0.70967   0.89059   0.93813   0.00000  Uiso   1.00
C1065  C     0.74770   0.92117   0.98000   0.00000  Uiso   1.00
C1066  C     0.82341   0.86202   0.97643   0.00000  Uiso   1.00
C1067  C     0.80489   0.90861   0.99718   0.00000  Uiso   1.00
C1068  C     0.88023   0.90193   0.83984   0.00000  Uiso   1.00
C1069  C     0.85834   0.94383   0.87341   0.00000  Uiso   1.00
C1070  C     0.82066   0.82455   0.59102   0.00000  Uiso   1.00
C1071  C     0.77500   0.84379   0.61674   0.00000  Uiso   1.00
C1072  C     0.71961   0.99718   0.66098   0.00000  Uiso   1.00
C1073  C     0.78580   0.83197   0.93292   0.00000  Uiso   1.00
C1074  C     0.87635   0.84177   0.50140   0.00000  Uiso   1.00
C1075  C     0.89859   0.80148   0.97348   0.00000  Uiso   1.00
C1076  C     0.86355   0.77579   0.92616   0.00000  Uiso   1.00
C1077  C     0.80610   0.78747   0.90954   0.00000  Uiso   1.00
C1078  C     0.89732   0.84952   0.55852   0.00000  Uiso   1.00
C1079  C     0.97387   0.79269   0.55421   0.00000  Uiso   1.00
H1080  H     0.67650   0.77150   0.57401   0.00000  Uiso   1.00
H1081  H     0.92125   0.91824   0.83133   0.00000  Uiso   1.00
H1082  H     0.88801   0.86726   0.86462   0.00000  Uiso   1.00
H1083  H     0.81565   0.93016   0.88072   0.00000  Uiso   1.00
H1084  H     0.88970   0.95273   0.91355   0.00000  Uiso   1.00
H1085  H     0.85336   0.98007   0.85102   0.00000  Uiso   1.00
H1086  H     0.84199   0.79294   0.61498   0.00000  Uiso   1.00
H1087  H     0.79819   0.80588   0.55000   0.00000  Uiso   1.00
H1088  H     0.74187   0.86224   0.58640   0.00000  Uiso   1.00
H1089  H     0.75718   0.80761   0.63017   0.00000  Uiso   1.00
H1090  H     0.79348   0.87238   0.65205   0.00000  Uiso   1.00
H1091  H     0.94001   0.99793   0.76222   0.00000  Uiso   1.00
H1092  H     0.68143   0.68542   0.64263   0.00000  Uiso   1.00
H1093  H     0.71190   0.95509   0.64649   0.00000  Uiso   1.00
H1094  H     0.75712   0.68028   0.64610   0.00000  Uiso   1.00
H1095  H     0.82341   0.78805   0.71361   0.00000  Uiso   1.00
H1096  H     0.87816   0.74257   0.90606   0.00000  Uiso   1.00
H1097  H     0.96864   0.75087   0.97708   0.00000  Uiso   1.00
H1098  H     0.66701   0.90369   0.92202   0.00000  Uiso   1.00
H1099  H     0.83421   0.93477   0.52785   0.00000  Uiso   1.00
H1100  H     0.73353   0.95595   0.99763   0.00000  Uiso   1.00
H1101  H     0.77784   0.76155   0.87784   0.00000  Uiso   1.00
N1102  N     0.81160   0.81890   0.73543   0.00000  Uiso   1.00
N1103  N     0.85507   0.84777   0.76458   0.00000  Uiso   1.00
O1104  O     0.96435   0.91296   0.75358   0.00000  Uiso   1.00
O1105  O     0.86076   0.86710   0.58951   0.00000  Uiso   1.00
O1106  O     0.73310   0.67036   0.71881   0.00000  Uiso   1.00
O1107  O     0.72408   0.90371   0.74424   0.00000  Uiso   1.00
O1108  O     0.98157   0.84024   0.83380   0.00000  Uiso   1.00
O1109  O     0.74130   0.83099   0.82446   0.00000  Uiso   1.00
O1110  O     0.94258   0.76296   0.75577   0.00000  Uiso   1.00
O1111  O     0.70231   0.75371   0.74643   0.00000  Uiso   1.00
O1112  O     0.92537   0.83567   0.67554   0.00000  Uiso   1.00
O1113  O     0.68510   0.82642   0.66620   0.00000  Uiso   1.00
O1114  O     0.83826   0.88889   0.79094   0.00000  Uiso   1.00
Zn1115 Zn    0.93786   0.83951   0.75624   0.00000  Uiso   1.00
Zn1116 Zn    0.72881   0.82716   0.74377   0.00000  Uiso   1.00
loop_
_geom_bond_atom_site_label_1
_geom_bond_atom_site_label_2
_geom_bond_distance
_geom_bond_site_symmetry_2
_ccdc_geom_bond_type
C1     O53     1.296   .     A
C1     C3      1.405   .     S
C1     O174    1.289   1_455 S
C2     C4      1.449   .     S
C2     C10     1.402   .     A
C2     C19     1.416   .     A
C3     C315    1.346   1_455 S
C3     O238    1.390   .     S
C4     O55     1.297   .     A
C4     O178    1.312   1_455 S
C5     C6      1.404   .     S
C5     C437    1.346   1_545 S
C5     H409    1.088   1_545 S
C6     O56     1.302   .     A
C6     O119    1.285   .     S
C7     O58     1.323   .     A
C7     C9      1.470   .     S
C7     O121    1.295   .     S
C8     H43     1.084   .     S
C8     C21     1.397   .     A
C8     C583    1.390   .     S
C9     C24     1.394   .     A
C9     C25     1.405   .     A
C10    C11     1.389   .     A
C10    H44     1.083   .     S
C11    C13     1.392   .     A
C11    H46     1.083   .     S
C12    C19     1.403   .     A
C12    C13     1.415   .     A
C12    C578    1.414   .     S
C13    H603    1.083   .     S
C14    O60     1.403   .     S
C14    H28     1.113   .     S
C14    H27     1.106   .     S
C14    C15     1.521   .     S
C15    H31     1.111   .     S
C15    H29     1.110   .     S
C15    H30     1.111   .     S
C16    H33     1.114   .     S
C16    H32     1.114   .     S
C16    O51     1.412   .     S
C16    C17     1.479   .     S
C17    H34     1.111   .     S
C17    H36     1.110   .     S
C17    H35     1.098   .     S
C18    H39     1.113   .     S
C18    H224    1.114   .     S
C18    H226    1.109   .     S
C18    O238    1.411   .     S
C19    C23     1.419   .     A
C20    C24     1.405   .     A
C20    C570    1.414   1_554 S
C20    C579    1.415   1_554 S
C21    C22     1.392   .     A
C21    C578    1.415   .     S
C22    H42     1.084   .     S
C22    C23     1.389   .     A
C23    H47     1.083   .     S
C24    O51     1.372   .     S
C25    C566    1.390   1_554 S
C25    H88     1.080   .     S
H26    C149    1.080   1_455 S
H37    C191    1.088   .     S
H38    C390    1.114   1_545 S
H40    C390    1.109   1_545 S
H41    N48     1.029   .     S
H45    C571    1.083   1_554 S
N48    Zn62    2.046   .     S
N48    N49     1.286   .     D
N49    O60     1.347   .     S
N49    Zn61    2.046   .     S
O50    Zn61    1.961   .     S
O50    C63     1.289   .     S
O52    C390    1.411   1_545 S
O52    C375    1.390   1_545 S
O53    Zn62    1.977   .     S
O54    Zn61    1.984   .     S
O54    C66     1.312   .     S
O55    Zn62    1.974   .     S
O56    Zn61    1.977   .     S
O57    Zn62    1.961   .     S
O57    C130    1.285   1_455 S
O58    Zn61    1.974   .     S
O59    Zn62    1.984   .     S
O59    C131    1.295   1_455 S
C63    O115    1.296   .     A
C63    C65     1.405   .     S
C64    C66     1.449   .     S
C64    C72     1.402   .     A
C64    C81     1.416   .     A
C65    C191    1.346   .     S
C65    O300    1.390   .     S
C66    O117    1.297   .     A
C67    C68     1.404   .     S
C67    C499    1.346   1_545 S
C67    H471    1.088   1_545 S
C68    O118    1.302   .     A
C68    O181    1.285   .     S
C69    O120    1.323   .     A
C69    C71     1.470   .     S
C69    O183    1.295   .     S
C70    H105    1.084   .     S
C70    C83     1.397   .     A
C70    C645    1.390   .     S
C71    C86     1.394   .     A
C71    C87     1.405   .     A
C72    C73     1.389   .     A
C72    H106    1.083   .     S
C73    C75     1.392   .     A
C73    H108    1.083   .     S
C74    C81     1.403   .     A
C74    C75     1.415   .     A
C74    C640    1.414   .     S
C75    H665    1.083   .     S
C76    O122    1.403   .     S
C76    H90     1.113   .     S
C76    H89     1.106   .     S
C76    C77     1.521   .     S
C77    H93     1.111   .     S
C77    H91     1.110   .     S
C77    H92     1.111   .     S
C78    H95     1.114   .     S
C78    H94     1.114   .     S
C78    O113    1.412   .     S
C78    C79     1.479   .     S
C79    H96     1.111   .     S
C79    H98     1.110   .     S
C79    H97     1.098   .     S
C80    H101    1.113   .     S
C80    H286    1.114   .     S
C80    H288    1.109   .     S
C80    O300    1.411   .     S
C81    C85     1.419   .     A
C82    C86     1.405   .     A
C82    C632    1.414   1_554 S
C82    C641    1.415   1_554 S
C83    C84     1.392   .     A
C83    C640    1.415   .     S
C84    H104    1.084   .     S
C84    C85     1.389   .     A
C85    H109    1.083   .     S
C86    O113    1.372   .     S
C87    C628    1.390   1_554 S
C87    H150    1.080   .     S
H99    C253    1.088   .     S
H100   C452    1.114   1_545 S
H102   C452    1.109   1_545 S
H103   N110    1.029   .     S
H107   C633    1.083   1_554 S
N110   Zn124   2.046   .     S
N110   N111    1.286   .     D
N111   O122    1.347   .     S
N111   Zn123   2.046   .     S
O112   Zn123   1.961   .     S
O112   C125    1.289   .     S
O114   C452    1.411   1_545 S
O114   C437    1.390   1_545 S
O115   Zn124   1.977   .     S
O116   Zn123   1.984   .     S
O116   C128    1.312   .     S
O117   Zn124   1.974   .     S
O118   Zn123   1.977   .     S
O119   Zn124   1.961   .     S
O120   Zn123   1.974   .     S
O121   Zn124   1.984   .     S
C125   O177    1.296   .     A
C125   C127    1.405   .     S
C126   C128    1.449   .     S
C126   C134    1.402   .     A
C126   C143    1.416   .     A
C127   C253    1.346   .     S
C127   O362    1.390   .     S
C128   O179    1.297   .     A
C129   C130    1.404   .     S
C129   C375    1.346   1_645 S
C129   H533    1.088   1_545 S
C130   O180    1.302   .     A
C130   O57     1.285   1_655 S
C131   O182    1.323   .     A
C131   C133    1.470   .     S
C131   O59     1.295   1_655 S
C132   H167    1.084   .     S
C132   C145    1.397   .     A
C132   C707    1.390   .     S
C133   C148    1.394   .     A
C133   C149    1.405   .     A
C134   C135    1.389   .     A
C134   H168    1.083   .     S
C135   C137    1.392   .     A
C135   H170    1.083   .     S
C136   C143    1.403   .     A
C136   C137    1.415   .     A
C136   C702    1.414   .     S
C137   H727    1.083   .     S
C138   O184    1.403   .     S
C138   H152    1.113   .     S
C138   H151    1.106   .     S
C138   C139    1.521   .     S
C139   H155    1.111   .     S
C139   H153    1.110   .     S
C139   H154    1.111   .     S
C140   H157    1.114   .     S
C140   H156    1.114   .     S
C140   O175    1.412   .     S
C140   C141    1.479   .     S
C141   H158    1.111   .     S
C141   H160    1.110   .     S
C141   H159    1.098   .     S
C142   H163    1.113   .     S
C142   H348    1.114   .     S
C142   H350    1.109   .     S
C142   O362    1.411   .     S
C143   C147    1.419   .     A
C144   C148    1.405   .     A
C144   C694    1.414   1_554 S
C144   C703    1.415   1_554 S
C145   C146    1.392   .     A
C145   C702    1.415   .     S
C146   H166    1.084   .     S
C146   C147    1.389   .     A
C147   H171    1.083   .     S
C148   O175    1.372   .     S
C149   C690    1.390   1_554 S
C149   H26     1.080   1_655 S
H161   C315    1.088   .     S
H162   C514    1.114   1_545 S
H164   C514    1.109   1_545 S
H165   N172    1.029   .     S
H169   C695    1.083   1_554 S
N172   Zn186   2.046   .     S
N172   N173    1.286   .     D
N173   O184    1.347   .     S
N173   Zn185   2.046   .     S
O174   Zn185   1.961   .     S
O174   C1      1.289   1_655 S
O176   C514    1.411   1_545 S
O176   C499    1.390   1_545 S
O177   Zn186   1.977   .     S
O178   Zn185   1.984   .     S
O178   C4      1.312   1_655 S
O179   Zn186   1.974   .     S
O180   Zn185   1.977   .     S
O181   Zn186   1.961   .     S
O182   Zn185   1.974   .     S
O183   Zn186   1.984   .     S
C187   O239    1.296   .     A
C187   C189    1.405   .     S
C187   O360    1.289   1_455 S
C188   C190    1.449   .     S
C188   C196    1.402   .     A
C188   C205    1.416   .     A
C189   C501    1.346   1_455 S
C189   O424    1.390   .     S
C190   O241    1.297   .     A
C190   O364    1.312   1_455 S
C191   C192    1.404   .     S
C192   O242    1.302   .     A
C192   O305    1.285   .     S
C193   O244    1.323   .     A
C193   C195    1.470   .     S
C193   O307    1.295   .     S
C194   H229    1.084   .     S
C194   C207    1.397   .     A
C194   C769    1.390   .     S
C195   C210    1.394   .     A
C195   C211    1.405   .     A
C196   C197    1.389   .     A
C196   H230    1.083   .     S
C197   C199    1.392   .     A
C197   H232    1.083   .     S
C198   C205    1.403   .     A
C198   C199    1.415   .     A
C198   C764    1.414   .     S
C199   H789    1.083   .     S
C200   O246    1.403   .     S
C200   H214    1.113   .     S
C200   H213    1.106   .     S
C200   C201    1.521   .     S
C201   H217    1.111   .     S
C201   H215    1.110   .     S
C201   H216    1.111   .     S
C202   H219    1.114   .     S
C202   H218    1.114   .     S
C202   O237    1.412   .     S
C202   C203    1.479   .     S
C203   H220    1.111   .     S
C203   H222    1.110   .     S
C203   H221    1.098   .     S
C204   H225    1.113   .     S
C204   H410    1.114   .     S
C204   H412    1.109   .     S
C204   O424    1.411   .     S
C205   C209    1.419   .     A
C206   C210    1.405   .     A
C206   C756    1.414   1_554 S
C206   C765    1.415   1_554 S
C207   C208    1.392   .     A
C207   C764    1.415   .     S
C208   H228    1.084   .     S
C208   C209    1.389   .     A
C209   H233    1.083   .     S
C210   O237    1.372   .     S
C211   C752    1.390   1_554 S
C211   H274    1.080   .     S
H212   C335    1.080   1_455 S
H223   C377    1.088   .     S
H227   N234    1.029   .     S
H231   C757    1.083   1_554 S
N234   Zn248   2.046   .     S
N234   N235    1.286   .     D
N235   O246    1.347   .     S
N235   Zn247   2.046   .     S
O236   Zn247   1.961   .     S
O236   C249    1.289   .     S
O239   Zn248   1.977   .     S
O240   Zn247   1.984   .     S
O240   C252    1.312   .     S
O241   Zn248   1.974   .     S
O242   Zn247   1.977   .     S
O243   Zn248   1.961   .     S
O243   C316    1.285   1_455 S
O244   Zn247   1.974   .     S
O245   Zn248   1.984   .     S
O245   C317    1.295   1_455 S
C249   O301    1.296   .     A
C249   C251    1.405   .     S
C250   C252    1.449   .     S
C250   C258    1.402   .     A
C250   C267    1.416   .     A
C251   C377    1.346   .     S
C251   O486    1.390   .     S
C252   O303    1.297   .     A
C253   C254    1.404   .     S
C254   O304    1.302   .     A
C254   O367    1.285   .     S
C255   O306    1.323   .     A
C255   C257    1.470   .     S
C255   O369    1.295   .     S
C256   H291    1.084   .     S
C256   C269    1.397   .     A
C256   C831    1.390   .     S
C257   C272    1.394   .     A
C257   C273    1.405   .     A
C258   C259    1.389   .     A
C258   H292    1.083   .     S
C259   C261    1.392   .     A
C259   H294    1.083   .     S
C260   C267    1.403   .     A
C260   C261    1.415   .     A
C260   C826    1.414   .     S
C261   H851    1.083   .     S
C262   O308    1.403   .     S
C262   H276    1.113   .     S
C262   H275    1.106   .     S
C262   C263    1.521   .     S
C263   H279    1.111   .     S
C263   H277    1.110   .     S
C263   H278    1.111   .     S
C264   H281    1.114   .     S
C264   H280    1.114   .     S
C264   O299    1.412   .     S
C264   C265    1.479   .     S
C265   H282    1.111   .     S
C265   H284    1.110   .     S
C265   H283    1.098   .     S
C266   H287    1.113   .     S
C266   H472    1.114   .     S
C266   H474    1.109   .     S
C266   O486    1.411   .     S
C267   C271    1.419   .     A
C268   C272    1.405   .     A
C268   C818    1.414   1_554 S
C268   C827    1.415   1_554 S
C269   C270    1.392   .     A
C269   C826    1.415   .     S
C270   H290    1.084   .     S
C270   C271    1.389   .     A
C271   H295    1.083   .     S
C272   O299    1.372   .     S
C273   C814    1.390   1_554 S
C273   H336    1.080   .     S
H285   C439    1.088   .     S
H289   N296    1.029   .     S
H293   C819    1.083   1_554 S
N296   Zn310   2.046   .     S
N296   N297    1.286   .     D
N297   O308    1.347   .     S
N297   Zn309   2.046   .     S
O298   Zn309   1.961   .     S
O298   C311    1.289   .     S
O301   Zn310   1.977   .     S
O302   Zn309   1.984   .     S
O302   C314    1.312   .     S
O303   Zn310   1.974   .     S
O304   Zn309   1.977   .     S
O305   Zn310   1.961   .     S
O306   Zn309   1.974   .     S
O307   Zn310   1.984   .     S
C311   O363    1.296   .     A
C311   C313    1.405   .     S
C312   C314    1.449   .     S
C312   C320    1.402   .     A
C312   C329    1.416   .     A
C313   C439    1.346   .     S
C313   O548    1.390   .     S
C314   O365    1.297   .     A
C315   C316    1.404   .     S
C315   C3      1.346   1_655 S
C316   O366    1.302   .     A
C316   O243    1.285   1_655 S
C317   O368    1.323   .     A
C317   C319    1.470   .     S
C317   O245    1.295   1_655 S
C318   H353    1.084   .     S
C318   C331    1.397   .     A
C318   C893    1.390   .     S
C319   C334    1.394   .     A
C319   C335    1.405   .     A
C320   C321    1.389   .     A
C320   H354    1.083   .     S
C321   C323    1.392   .     A
C321   H356    1.083   .     S
C322   C329    1.403   .     A
C322   C323    1.415   .     A
C322   C888    1.414   .     S
C323   H913    1.083   .     S
C324   O370    1.403   .     S
C324   H338    1.113   .     S
C324   H337    1.106   .     S
C324   C325    1.521   .     S
C325   H341    1.111   .     S
C325   H339    1.110   .     S
C325   H340    1.111   .     S
C326   H343    1.114   .     S
C326   H342    1.114   .     S
C326   O361    1.412   .     S
C326   C327    1.479   .     S
C327   H344    1.111   .     S
C327   H346    1.110   .     S
C327   H345    1.098   .     S
C328   H349    1.113   .     S
C328   H534    1.114   .     S
C328   H536    1.109   .     S
C328   O548    1.411   .     S
C329   C333    1.419   .     A
C330   C334    1.405   .     A
C330   C880    1.414   1_554 S
C330   C889    1.415   1_554 S
C331   C332    1.392   .     A
C331   C888    1.415   .     S
C332   H352    1.084   .     S
C332   C333    1.389   .     A
C333   H357    1.083   .     S
C334   O361    1.372   .     S
C335   C876    1.390   1_554 S
C335   H212    1.080   1_655 S
H347   C501    1.088   .     S
H351   N358    1.029   .     S
H355   C881    1.083   1_554 S
N358   Zn372   2.046   .     S
N358   N359    1.286   .     D
N359   O370    1.347   .     S
N359   Zn371   2.046   .     S
O360   Zn371   1.961   .     S
O360   C187    1.289   1_655 S
O363   Zn372   1.977   .     S
O364   Zn371   1.984   .     S
O364   C190    1.312   1_655 S
O365   Zn372   1.974   .     S
O366   Zn371   1.977   .     S
O367   Zn372   1.961   .     S
O368   Zn371   1.974   .     S
O369   Zn372   1.984   .     S
C373   O425    1.296   .     A
C373   C375    1.405   .     S
C373   O546    1.289   1_455 S
C374   C376    1.449   .     S
C374   C382    1.402   .     A
C374   C391    1.416   .     A
C375   C129    1.346   1_465 S
C375   O52     1.390   1_565 S
C376   O427    1.297   .     A
C376   O550    1.312   1_455 S
C377   C378    1.404   .     S
C378   O428    1.302   .     A
C378   O491    1.285   .     S
C379   O430    1.323   .     A
C379   C381    1.470   .     S
C379   O493    1.295   .     S
C380   H415    1.084   .     S
C380   C393    1.397   .     A
C380   C955    1.390   .     S
C381   C396    1.394   .     A
C381   C397    1.405   .     A
C382   C383    1.389   .     A
C382   H416    1.083   .     S
C383   C385    1.392   .     A
C383   H418    1.083   .     S
C384   C391    1.403   .     A
C384   C385    1.415   .     A
C384   C950    1.414   .     S
C385   H975    1.083   .     S
C386   O432    1.403   .     S
C386   H400    1.113   .     S
C386   H399    1.106   .     S
C386   C387    1.521   .     S
C387   H403    1.111   .     S
C387   H401    1.110   .     S
C387   H402    1.111   .     S
C388   H405    1.114   .     S
C388   H404    1.114   .     S
C388   O423    1.412   .     S
C388   C389    1.479   .     S
C389   H406    1.111   .     S
C389   H408    1.110   .     S
C389   H407    1.098   .     S
C390   H411    1.113   .     S
C390   H38     1.114   1_565 S
C390   H40     1.109   1_565 S
C390   O52     1.411   1_565 S
C391   C395    1.419   .     A
C392   C396    1.405   .     A
C392   C942    1.414   1_554 S
C392   C951    1.415   1_554 S
C393   C394    1.392   .     A
C393   C950    1.415   .     S
C394   H414    1.084   .     S
C394   C395    1.389   .     A
C395   H419    1.083   .     S
C396   O423    1.372   .     S
C397   C938    1.390   1_554 S
C397   H460    1.080   .     S
H398   C521    1.080   1_455 S
H409   C5      1.088   1_565 S
H413   N420    1.029   .     S
H417   C943    1.083   1_554 S
N420   Zn434   2.046   .     S
N420   N421    1.286   .     D
N421   O432    1.347   .     S
N421   Zn433   2.046   .     S
O422   Zn433   1.961   .     S
O422   C435    1.289   .     S
O425   Zn434   1.977   .     S
O426   Zn433   1.984   .     S
O426   C438    1.312   .     S
O427   Zn434   1.974   .     S
O428   Zn433   1.977   .     S
O429   Zn434   1.961   .     S
O429   C502    1.285   1_455 S
O430   Zn433   1.974   .     S
O431   Zn434   1.984   .     S
O431   C503    1.295   1_455 S
C435   O487    1.296   .     A
C435   C437    1.405   .     S
C436   C438    1.449   .     S
C436   C444    1.402   .     A
C436   C453    1.416   .     A
C437   C5      1.346   1_565 S
C437   O114    1.390   1_565 S
C438   O489    1.297   .     A
C439   C440    1.404   .     S
C440   O490    1.302   .     A
C440   O553    1.285   .     S
C441   O492    1.323   .     A
C441   C443    1.470   .     S
C441   O555    1.295   .     S
C442   H477    1.084   .     S
C442   C455    1.397   .     A
C442   C1017   1.390   .     S
C443   C458    1.394   .     A
C443   C459    1.405   .     A
C444   C445    1.389   .     A
C444   H478    1.083   .     S
C445   C447    1.392   .     A
C445   H480    1.083   .     S
C446   C453    1.403   .     A
C446   C447    1.415   .     A
C446   C1012   1.414   .     S
C447   H1037   1.083   .     S
C448   O494    1.403   .     S
C448   H462    1.113   .     S
C448   H461    1.106   .     S
C448   C449    1.521   .     S
C449   H465    1.111   .     S
C449   H463    1.110   .     S
C449   H464    1.111   .     S
C450   H467    1.114   .     S
C450   H466    1.114   .     S
C450   O485    1.412   .     S
C450   C451    1.479   .     S
C451   H468    1.111   .     S
C451   H470    1.110   .     S
C451   H469    1.098   .     S
C452   H473    1.113   .     S
C452   H100    1.114   1_565 S
C452   H102    1.109   1_565 S
C452   O114    1.411   1_565 S
C453   C457    1.419   .     A
C454   C458    1.405   .     A
C454   C1004   1.414   1_554 S
C454   C1013   1.415   1_554 S
C455   C456    1.392   .     A
C455   C1012   1.415   .     S
C456   H476    1.084   .     S
C456   C457    1.389   .     A
C457   H481    1.083   .     S
C458   O485    1.372   .     S
C459   C1000   1.390   1_554 S
C459   H522    1.080   .     S
H471   C67     1.088   1_565 S
H475   N482    1.029   .     S
H479   C1005   1.083   1_554 S
N482   Zn496   2.046   .     S
N482   N483    1.286   .     D
N483   O494    1.347   .     S
N483   Zn495   2.046   .     S
O484   Zn495   1.961   .     S
O484   C497    1.289   .     S
O487   Zn496   1.977   .     S
O488   Zn495   1.984   .     S
O488   C500    1.312   .     S
O489   Zn496   1.974   .     S
O490   Zn495   1.977   .     S
O491   Zn496   1.961   .     S
O492   Zn495   1.974   .     S
O493   Zn496   1.984   .     S
C497   O549    1.296   .     A
C497   C499    1.405   .     S
C498   C500    1.449   .     S
C498   C506    1.402   .     A
C498   C515    1.416   .     A
C499   C67     1.346   1_565 S
C499   O176    1.390   1_565 S
C500   O551    1.297   .     A
C501   C502    1.404   .     S
C501   C189    1.346   1_655 S
C502   O552    1.302   .     A
C502   O429    1.285   1_655 S
C503   O554    1.323   .     A
C503   C505    1.470   .     S
C503   O431    1.295   1_655 S
C504   H539    1.084   .     S
C504   C517    1.397   .     A
C504   C1079   1.390   .     S
C505   C520    1.394   .     A
C505   C521    1.405   .     A
C506   C507    1.389   .     A
C506   H540    1.083   .     S
C507   C509    1.392   .     A
C507   H542    1.083   .     S
C508   C515    1.403   .     A
C508   C509    1.415   .     A
C508   C1074   1.414   .     S
C509   H1099   1.083   .     S
C510   O556    1.403   .     S
C510   H524    1.113   .     S
C510   H523    1.106   .     S
C510   C511    1.521   .     S
C511   H527    1.111   .     S
C511   H525    1.110   .     S
C511   H526    1.111   .     S
C512   H529    1.114   .     S
C512   H528    1.114   .     S
C512   O547    1.412   .     S
C512   C513    1.479   .     S
C513   H530    1.111   .     S
C513   H532    1.110   .     S
C513   H531    1.098   .     S
C514   H535    1.113   .     S
C514   H162    1.114   1_565 S
C514   H164    1.109   1_565 S
C514   O176    1.411   1_565 S
C515   C519    1.419   .     A
C516   C520    1.405   .     A
C516   C1066   1.414   1_554 S
C516   C1075   1.415   1_554 S
C517   C518    1.392   .     A
C517   C1074   1.415   .     S
C518   H538    1.084   .     S
C518   C519    1.389   .     A
C519   H543    1.083   .     S
C520   O547    1.372   .     S
C521   C1062   1.390   1_554 S
C521   H398    1.080   1_655 S
H533   C129    1.088   1_565 S
H537   N544    1.029   .     S
H541   C1067   1.083   1_554 S
N544   Zn558   2.046   .     S
N544   N545    1.286   .     D
N545   O556    1.347   .     S
N545   Zn557   2.046   .     S
O546   Zn557   1.961   .     S
O546   C373    1.289   1_655 S
O549   Zn558   1.977   .     S
O550   Zn557   1.984   .     S
O550   C376    1.312   1_655 S
O551   Zn558   1.974   .     S
O552   Zn557   1.977   .     S
O553   Zn558   1.961   .     S
O554   Zn557   1.974   .     S
O555   Zn558   1.984   .     S
C559   O611    1.296   .     A
C559   C561    1.405   .     S
C559   O732    1.289   1_455 S
C560   C562    1.449   .     S
C560   C568    1.402   .     A
C560   C577    1.416   .     A
C561   C873    1.346   1_455 S
C561   O796    1.390   .     S
C562   O613    1.297   .     A
C562   O736    1.312   1_455 S
C563   C564    1.404   .     S
C563   C995    1.346   1_545 S
C563   H967    1.088   1_545 S
C564   O614    1.302   .     A
C564   O677    1.285   .     S
C565   O616    1.323   .     A
C565   C567    1.470   .     S
C565   O679    1.295   .     S
C566   H601    1.084   .     S
C566   C579    1.397   .     A
C566   C25     1.390   1_556 S
C567   C582    1.394   .     A
C567   C583    1.405   .     A
C568   C569    1.389   .     A
C568   H602    1.083   .     S
C569   C571    1.392   .     A
C569   H604    1.083   .     S
C570   C577    1.403   .     A
C570   C571    1.415   .     A
C570   C20     1.414   1_556 S
C571   H45     1.083   1_556 S
C572   O618    1.403   .     S
C572   H586    1.113   .     S
C572   H585    1.106   .     S
C572   C573    1.521   .     S
C573   H589    1.111   .     S
C573   H587    1.110   .     S
C573   H588    1.111   .     S
C574   H591    1.114   .     S
C574   H590    1.114   .     S
C574   O609    1.412   .     S
C574   C575    1.479   .     S
C575   H592    1.111   .     S
C575   H594    1.110   .     S
C575   H593    1.098   .     S
C576   H597    1.113   .     S
C576   H782    1.114   .     S
C576   H784    1.109   .     S
C576   O796    1.411   .     S
C577   C581    1.419   .     A
C578   C582    1.405   .     A
C579   C580    1.392   .     A
C579   C20     1.415   1_556 S
C580   H600    1.084   .     S
C580   C581    1.389   .     A
C581   H605    1.083   .     S
C582   O609    1.372   .     S
C583   H646    1.080   .     S
H584   C707    1.080   1_455 S
H595   C749    1.088   .     S
H596   C948    1.114   1_545 S
H598   C948    1.109   1_545 S
H599   N606    1.029   .     S
N606   Zn620   2.046   .     S
N606   N607    1.286   .     D
N607   O618    1.347   .     S
N607   Zn619   2.046   .     S
O608   Zn619   1.961   .     S
O608   C621    1.289   .     S
O610   C948    1.411   1_545 S
O610   C933    1.390   1_545 S
O611   Zn620   1.977   .     S
O612   Zn619   1.984   .     S
O612   C624    1.312   .     S
O613   Zn620   1.974   .     S
O614   Zn619   1.977   .     S
O615   Zn620   1.961   .     S
O615   C688    1.285   1_455 S
O616   Zn619   1.974   .     S
O617   Zn620   1.984   .     S
O617   C689    1.295   1_455 S
C621   O673    1.296   .     A
C621   C623    1.405   .     S
C622   C624    1.449   .     S
C622   C630    1.402   .     A
C622   C639    1.416   .     A
C623   C749    1.346   .     S
C623   O858    1.390   .     S
C624   O675    1.297   .     A
C625   C626    1.404   .     S
C625   C1057   1.346   1_545 S
C625   H1029   1.088   1_545 S
C626   O676    1.302   .     A
C626   O739    1.285   .     S
C627   O678    1.323   .     A
C627   C629    1.470   .     S
C627   O741    1.295   .     S
C628   H663    1.084   .     S
C628   C641    1.397   .     A
C628   C87     1.390   1_556 S
C629   C644    1.394   .     A
C629   C645    1.405   .     A
C630   C631    1.389   .     A
C630   H664    1.083   .     S
C631   C633    1.392   .     A
C631   H666    1.083   .     S
C632   C639    1.403   .     A
C632   C633    1.415   .     A
C632   C82     1.414   1_556 S
C633   H107    1.083   1_556 S
C634   O680    1.403   .     S
C634   H648    1.113   .     S
C634   H647    1.106   .     S
C634   C635    1.521   .     S
C635   H651    1.111   .     S
C635   H649    1.110   .     S
C635   H650    1.111   .     S
C636   H653    1.114   .     S
C636   H652    1.114   .     S
C636   O671    1.412   .     S
C636   C637    1.479   .     S
C637   H654    1.111   .     S
C637   H656    1.110   .     S
C637   H655    1.098   .     S
C638   H659    1.113   .     S
C638   H844    1.114   .     S
C638   H846    1.109   .     S
C638   O858    1.411   .     S
C639   C643    1.419   .     A
C640   C644    1.405   .     A
C641   C642    1.392   .     A
C641   C82     1.415   1_556 S
C642   H662    1.084   .     S
C642   C643    1.389   .     A
C643   H667    1.083   .     S
C644   O671    1.372   .     S
C645   H708    1.080   .     S
H657   C811    1.088   .     S
H658   C1010   1.114   1_545 S
H660   C1010   1.109   1_545 S
H661   N668    1.029   .     S
N668   Zn682   2.046   .     S
N668   N669    1.286   .     D
N669   O680    1.347   .     S
N669   Zn681   2.046   .     S
O670   Zn681   1.961   .     S
O670   C683    1.289   .     S
O672   C1010   1.411   1_545 S
O672   C995    1.390   1_545 S
O673   Zn682   1.977   .     S
O674   Zn681   1.984   .     S
O674   C686    1.312   .     S
O675   Zn682   1.974   .     S
O676   Zn681   1.977   .     S
O677   Zn682   1.961   .     S
O678   Zn681   1.974   .     S
O679   Zn682   1.984   .     S
C683   O735    1.296   .     A
C683   C685    1.405   .     S
C684   C686    1.449   .     S
C684   C692    1.402   .     A
C684   C701    1.416   .     A
C685   C811    1.346   .     S
C685   O920    1.390   .     S
C686   O737    1.297   .     A
C687   C688    1.404   .     S
C687   C933    1.346   1_645 S
C687   H1091   1.088   1_545 S
C688   O738    1.302   .     A
C688   O615    1.285   1_655 S
C689   O740    1.323   .     A
C689   C691    1.470   .     S
C689   O617    1.295   1_655 S
C690   H725    1.084   .     S
C690   C703    1.397   .     A
C690   C149    1.390   1_556 S
C691   C706    1.394   .     A
C691   C707    1.405   .     A
C692   C693    1.389   .     A
C692   H726    1.083   .     S
C693   C695    1.392   .     A
C693   H728    1.083   .     S
C694   C701    1.403   .     A
C694   C695    1.415   .     A
C694   C144    1.414   1_556 S
C695   H169    1.083   1_556 S
C696   O742    1.403   .     S
C696   H710    1.113   .     S
C696   H709    1.106   .     S
C696   C697    1.521   .     S
C697   H713    1.111   .     S
C697   H711    1.110   .     S
C697   H712    1.111   .     S
C698   H715    1.114   .     S
C698   H714    1.114   .     S
C698   O733    1.412   .     S
C698   C699    1.479   .     S
C699   H716    1.111   .     S
C699   H718    1.110   .     S
C699   H717    1.098   .     S
C700   H721    1.113   .     S
C700   H906    1.114   .     S
C700   H908    1.109   .     S
C700   O920    1.411   .     S
C701   C705    1.419   .     A
C702   C706    1.405   .     A
C703   C704    1.392   .     A
C703   C144    1.415   1_556 S
C704   H724    1.084   .     S
C704   C705    1.389   .     A
C705   H729    1.083   .     S
C706   O733    1.372   .     S
C707   H584    1.080   1_655 S
H719   C873    1.088   .     S
H720   C1072   1.114   1_545 S
H722   C1072   1.109   1_545 S
H723   N730    1.029   .     S
N730   Zn744   2.046   .     S
N730   N731    1.286   .     D
N731   O742    1.347   .     S
N731   Zn743   2.046   .     S
O732   Zn743   1.961   .     S
O732   C559    1.289   1_655 S
O734   C1072   1.411   1_545 S
O734   C1057   1.390   1_545 S
O735   Zn744   1.977   .     S
O736   Zn743   1.984   .     S
O736   C562    1.312   1_655 S
O737   Zn744   1.974   .     S
O738   Zn743   1.977   .     S
O739   Zn744   1.961   .     S
O740   Zn743   1.974   .     S
O741   Zn744   1.984   .     S
C745   O797    1.296   .     A
C745   C747    1.405   .     S
C745   O918    1.289   1_455 S
C746   C748    1.449   .     S
C746   C754    1.402   .     A
C746   C763    1.416   .     A
C747   C1059   1.346   1_455 S
C747   O982    1.390   .     S
C748   O799    1.297   .     A
C748   O922    1.312   1_455 S
C749   C750    1.404   .     S
C750   O800    1.302   .     A
C750   O863    1.285   .     S
C751   O802    1.323   .     A
C751   C753    1.470   .     S
C751   O865    1.295   .     S
C752   H787    1.084   .     S
C752   C765    1.397   .     A
C752   C211    1.390   1_556 S
C753   C768    1.394   .     A
C753   C769    1.405   .     A
C754   C755    1.389   .     A
C754   H788    1.083   .     S
C755   C757    1.392   .     A
C755   H790    1.083   .     S
C756   C763    1.403   .     A
C756   C757    1.415   .     A
C756   C206    1.414   1_556 S
C757   H231    1.083   1_556 S
C758   O804    1.403   .     S
C758   H772    1.113   .     S
C758   H771    1.106   .     S
C758   C759    1.521   .     S
C759   H775    1.111   .     S
C759   H773    1.110   .     S
C759   H774    1.111   .     S
C760   H777    1.114   .     S
C760   H776    1.114   .     S
C760   O795    1.412   .     S
C760   C761    1.479   .     S
C761   H778    1.111   .     S
C761   H780    1.110   .     S
C761   H779    1.098   .     S
C762   H783    1.113   .     S
C762   H968    1.114   .     S
C762   H970    1.109   .     S
C762   O982    1.411   .     S
C763   C767    1.419   .     A
C764   C768    1.405   .     A
C765   C766    1.392   .     A
C765   C206    1.415   1_556 S
C766   H786    1.084   .     S
C766   C767    1.389   .     A
C767   H791    1.083   .     S
C768   O795    1.372   .     S
C769   H832    1.080   .     S
H770   C893    1.080   1_455 S
H781   C935    1.088   .     S
H785   N792    1.029   .     S
N792   Zn806   2.046   .     S
N792   N793    1.286   .     D
N793   O804    1.347   .     S
N793   Zn805   2.046   .     S
O794   Zn805   1.961   .     S
O794   C807    1.289   .     S
O797   Zn806   1.977   .     S
O798   Zn805   1.984   .     S
O798   C810    1.312   .     S
O799   Zn806   1.974   .     S
O800   Zn805   1.977   .     S
O801   Zn806   1.961   .     S
O801   C874    1.285   1_455 S
O802   Zn805   1.974   .     S
O803   Zn806   1.984   .     S
O803   C875    1.295   1_455 S
C807   O859    1.296   .     A
C807   C809    1.405   .     S
C808   C810    1.449   .     S
C808   C816    1.402   .     A
C808   C825    1.416   .     A
C809   C935    1.346   .     S
C809   O1044   1.390   .     S
C810   O861    1.297   .     A
C811   C812    1.404   .     S
C812   O862    1.302   .     A
C812   O925    1.285   .     S
C813   O864    1.323   .     A
C813   C815    1.470   .     S
C813   O927    1.295   .     S
C814   H849    1.084   .     S
C814   C827    1.397   .     A
C814   C273    1.390   1_556 S
C815   C830    1.394   .     A
C815   C831    1.405   .     A
C816   C817    1.389   .     A
C816   H850    1.083   .     S
C817   C819    1.392   .     A
C817   H852    1.083   .     S
C818   C825    1.403   .     A
C818   C819    1.415   .     A
C818   C268    1.414   1_556 S
C819   H293    1.083   1_556 S
C820   O866    1.403   .     S
C820   H834    1.113   .     S
C820   H833    1.106   .     S
C820   C821    1.521   .     S
C821   H837    1.111   .     S
C821   H835    1.110   .     S
C821   H836    1.111   .     S
C822   H839    1.114   .     S
C822   H838    1.114   .     S
C822   O857    1.412   .     S
C822   C823    1.479   .     S
C823   H840    1.111   .     S
C823   H842    1.110   .     S
C823   H841    1.098   .     S
C824   H845    1.113   .     S
C824   H1030   1.114   .     S
C824   H1032   1.109   .     S
C824   O1044   1.411   .     S
C825   C829    1.419   .     A
C826   C830    1.405   .     A
C827   C828    1.392   .     A
C827   C268    1.415   1_556 S
C828   H848    1.084   .     S
C828   C829    1.389   .     A
C829   H853    1.083   .     S
C830   O857    1.372   .     S
C831   H894    1.080   .     S
H843   C997    1.088   .     S
H847   N854    1.029   .     S
N854   Zn868   2.046   .     S
N854   N855    1.286   .     D
N855   O866    1.347   .     S
N855   Zn867   2.046   .     S
O856   Zn867   1.961   .     S
O856   C869    1.289   .     S
O859   Zn868   1.977   .     S
O860   Zn867   1.984   .     S
O860   C872    1.312   .     S
O861   Zn868   1.974   .     S
O862   Zn867   1.977   .     S
O863   Zn868   1.961   .     S
O864   Zn867   1.974   .     S
O865   Zn868   1.984   .     S
C869   O921    1.296   .     A
C869   C871    1.405   .     S
C870   C872    1.449   .     S
C870   C878    1.402   .     A
C870   C887    1.416   .     A
C871   C997    1.346   .     S
C871   O1106   1.390   .     S
C872   O923    1.297   .     A
C873   C874    1.404   .     S
C873   C561    1.346   1_655 S
C874   O924    1.302   .     A
C874   O801    1.285   1_655 S
C875   O926    1.323   .     A
C875   C877    1.470   .     S
C875   O803    1.295   1_655 S
C876   H911    1.084   .     S
C876   C889    1.397   .     A
C876   C335    1.390   1_556 S
C877   C892    1.394   .     A
C877   C893    1.405   .     A
C878   C879    1.389   .     A
C878   H912    1.083   .     S
C879   C881    1.392   .     A
C879   H914    1.083   .     S
C880   C887    1.403   .     A
C880   C881    1.415   .     A
C880   C330    1.414   1_556 S
C881   H355    1.083   1_556 S
C882   O928    1.403   .     S
C882   H896    1.113   .     S
C882   H895    1.106   .     S
C882   C883    1.521   .     S
C883   H899    1.111   .     S
C883   H897    1.110   .     S
C883   H898    1.111   .     S
C884   H901    1.114   .     S
C884   H900    1.114   .     S
C884   O919    1.412   .     S
C884   C885    1.479   .     S
C885   H902    1.111   .     S
C885   H904    1.110   .     S
C885   H903    1.098   .     S
C886   H907    1.113   .     S
C886   H1092   1.114   .     S
C886   H1094   1.109   .     S
C886   O1106   1.411   .     S
C887   C891    1.419   .     A
C888   C892    1.405   .     A
C889   C890    1.392   .     A
C889   C330    1.415   1_556 S
C890   H910    1.084   .     S
C890   C891    1.389   .     A
C891   H915    1.083   .     S
C892   O919    1.372   .     S
C893   H770    1.080   1_655 S
H905   C1059   1.088   .     S
H909   N916    1.029   .     S
N916   Zn930   2.046   .     S
N916   N917    1.286   .     D
N917   O928    1.347   .     S
N917   Zn929   2.046   .     S
O918   Zn929   1.961   .     S
O918   C745    1.289   1_655 S
O921   Zn930   1.977   .     S
O922   Zn929   1.984   .     S
O922   C748    1.312   1_655 S
O923   Zn930   1.974   .     S
O924   Zn929   1.977   .     S
O925   Zn930   1.961   .     S
O926   Zn929   1.974   .     S
O927   Zn930   1.984   .     S
C931   O983    1.296   .     A
C931   C933    1.405   .     S
C931   O1104   1.289   1_455 S
C932   C934    1.449   .     S
C932   C940    1.402   .     A
C932   C949    1.416   .     A
C933   C687    1.346   1_465 S
C933   O610    1.390   1_565 S
C934   O985    1.297   .     A
C934   O1108   1.312   1_455 S
C935   C936    1.404   .     S
C936   O986    1.302   .     A
C936   O1049   1.285   .     S
C937   O988    1.323   .     A
C937   C939    1.470   .     S
C937   O1051   1.295   .     S
C938   H973    1.084   .     S
C938   C951    1.397   .     A
C938   C397    1.390   1_556 S
C939   C954    1.394   .     A
C939   C955    1.405   .     A
C940   C941    1.389   .     A
C940   H974    1.083   .     S
C941   C943    1.392   .     A
C941   H976    1.083   .     S
C942   C949    1.403   .     A
C942   C943    1.415   .     A
C942   C392    1.414   1_556 S
C943   H417    1.083   1_556 S
C944   O990    1.403   .     S
C944   H958    1.113   .     S
C944   H957    1.106   .     S
C944   C945    1.521   .     S
C945   H961    1.111   .     S
C945   H959    1.110   .     S
C945   H960    1.111   .     S
C946   H963    1.114   .     S
C946   H962    1.114   .     S
C946   O981    1.412   .     S
C946   C947    1.479   .     S
C947   H964    1.111   .     S
C947   H966    1.110   .     S
C947   H965    1.098   .     S
C948   H969    1.113   .     S
C948   H596    1.114   1_565 S
C948   H598    1.109   1_565 S
C948   O610    1.411   1_565 S
C949   C953    1.419   .     A
C950   C954    1.405   .     A
C951   C952    1.392   .     A
C951   C392    1.415   1_556 S
C952   H972    1.084   .     S
C952   C953    1.389   .     A
C953   H977    1.083   .     S
C954   O981    1.372   .     S
C955   H1018   1.080   .     S
H956   C1079   1.080   1_455 S
H967   C563    1.088   1_565 S
H971   N978    1.029   .     S
N978   Zn992   2.046   .     S
N978   N979    1.286   .     D
N979   O990    1.347   .     S
N979   Zn991   2.046   .     S
O980   Zn991   1.961   .     S
O980   C993    1.289   .     S
O983   Zn992   1.977   .     S
O984   Zn991   1.984   .     S
O984   C996    1.312   .     S
O985   Zn992   1.974   .     S
O986   Zn991   1.977   .     S
O987   Zn992   1.961   .     S
O987   C1060   1.285   1_455 S
O988   Zn991   1.974   .     S
O989   Zn992   1.984   .     S
O989   C1061   1.295   1_455 S
C993   O1045   1.296   .     A
C993   C995    1.405   .     S
C994   C996    1.449   .     S
C994   C1002   1.402   .     A
C994   C1011   1.416   .     A
C995   C563    1.346   1_565 S
C995   O672    1.390   1_565 S
C996   O1047   1.297   .     A
C997   C998    1.404   .     S
C998   O1048   1.302   .     A
C998   O1111   1.285   .     S
C999   O1050   1.323   .     A
C999   C1001   1.470   .     S
C999   O1113   1.295   .     S
C1000  H1035   1.084   .     S
C1000  C1013   1.397   .     A
C1000  C459    1.390   1_556 S
C1001  C1016   1.394   .     A
C1001  C1017   1.405   .     A
C1002  C1003   1.389   .     A
C1002  H1036   1.083   .     S
C1003  C1005   1.392   .     A
C1003  H1038   1.083   .     S
C1004  C1011   1.403   .     A
C1004  C1005   1.415   .     A
C1004  C454    1.414   1_556 S
C1005  H479    1.083   1_556 S
C1006  O1052   1.403   .     S
C1006  H1020   1.113   .     S
C1006  H1019   1.106   .     S
C1006  C1007   1.521   .     S
C1007  H1023   1.111   .     S
C1007  H1021   1.110   .     S
C1007  H1022   1.111   .     S
C1008  H1025   1.114   .     S
C1008  H1024   1.114   .     S
C1008  O1043   1.412   .     S
C1008  C1009   1.479   .     S
C1009  H1026   1.111   .     S
C1009  H1028   1.110   .     S
C1009  H1027   1.098   .     S
C1010  H1031   1.113   .     S
C1010  H658    1.114   1_565 S
C1010  H660    1.109   1_565 S
C1010  O672    1.411   1_565 S
C1011  C1015   1.419   .     A
C1012  C1016   1.405   .     A
C1013  C1014   1.392   .     A
C1013  C454    1.415   1_556 S
C1014  H1034   1.084   .     S
C1014  C1015   1.389   .     A
C1015  H1039   1.083   .     S
C1016  O1043   1.372   .     S
C1017  H1080   1.080   .     S
H1029  C625    1.088   1_565 S
H1033  N1040   1.029   .     S
N1040  Zn1054  2.046   .     S
N1040  N1041   1.286   .     D
N1041  O1052   1.347   .     S
N1041  Zn1053  2.046   .     S
O1042  Zn1053  1.961   .     S
O1042  C1055   1.289   .     S
O1045  Zn1054  1.977   .     S
O1046  Zn1053  1.984   .     S
O1046  C1058   1.312   .     S
O1047  Zn1054  1.974   .     S
O1048  Zn1053  1.977   .     S
O1049  Zn1054  1.961   .     S
O1050  Zn1053  1.974   .     S
O1051  Zn1054  1.984   .     S
C1055  O1107   1.296   .     A
C1055  C1057   1.405   .     S
C1056  C1058   1.449   .     S
C1056  C1064   1.402   .     A
C1056  C1073   1.416   .     A
C1057  C625    1.346   1_565 S
C1057  O734    1.390   1_565 S
C1058  O1109   1.297   .     A
C1059  C1060   1.404   .     S
C1059  C747    1.346   1_655 S
C1060  O1110   1.302   .     A
C1060  O987    1.285   1_655 S
C1061  O1112   1.323   .     A
C1061  C1063   1.470   .     S
C1061  O989    1.295   1_655 S
C1062  H1097   1.084   .     S
C1062  C1075   1.397   .     A
C1062  C521    1.390   1_556 S
C1063  C1078   1.394   .     A
C1063  C1079   1.405   .     A
C1064  C1065   1.389   .     A
C1064  H1098   1.083   .     S
C1065  C1067   1.392   .     A
C1065  H1100   1.083   .     S
C1066  C1073   1.403   .     A
C1066  C1067   1.415   .     A
C1066  C516    1.414   1_556 S
C1067  H541    1.083   1_556 S
C1068  O1114   1.403   .     S
C1068  H1082   1.113   .     S
C1068  H1081   1.106   .     S
C1068  C1069   1.521   .     S
C1069  H1085   1.111   .     S
C1069  H1083   1.110   .     S
C1069  H1084   1.111   .     S
C1070  H1087   1.114   .     S
C1070  H1086   1.114   .     S
C1070  O1105   1.412   .     S
C1070  C1071   1.479   .     S
C1071  H1088   1.111   .     S
C1071  H1090   1.110   .     S
C1071  H1089   1.098   .     S
C1072  H1093   1.113   .     S
C1072  H720    1.114   1_565 S
C1072  H722    1.109   1_565 S
C1072  O734    1.411   1_565 S
C1073  C1077   1.419   .     A
C1074  C1078   1.405   .     A
C1075  C1076   1.392   .     A
C1075  C516    1.415   1_556 S
C1076  H1096   1.084   .     S
C1076  C1077   1.389   .     A
C1077  H1101   1.083   .     S
C1078  O1105   1.372   .     S
C1079  H956    1.080   1_655 S
H1091  C687    1.088   1_565 S
H1095  N1102   1.029   .     S
N1102  Zn1116  2.046   .     S
N1102  N1103   1.286   .     D
N1103  O1114   1.347   .     S
N1103  Zn1115  2.046   .     S
O1104  Zn1115  1.961   .     S
O1104  C931    1.289   1_655 S
O1107  Zn1116  1.977   .     S
O1108  Zn1115  1.984   .     S
O1108  C934    1.312   1_655 S
O1109  Zn1116  1.974   .     S
O1110  Zn1115  1.977   .     S
O1111  Zn1116  1.961   .     S
O1112  Zn1115  1.974   .     S
O1113  Zn1116  1.984   .     S
