data_str_m3_o1_o17_pcu_sym.121
_audit_creation_date              2020-01-03
_audit_creation_method            'Materials Studio'
_symmetry_space_group_name_H-M    'P1'
_symmetry_Int_Tables_number       1
_symmetry_cell_setting            triclinic
loop_
_symmetry_equiv_pos_as_xyz
  x,y,z
_cell_length_a                    32.1699
_cell_length_b                    29.7276
_cell_length_c                    30.0133
_cell_angle_alpha                 90.0077
_cell_angle_beta                  91.7275
_cell_angle_gamma                 89.9976
loop_
_atom_site_label
_atom_site_type_symbol
_atom_site_fract_x
_atom_site_fract_y
_atom_site_fract_z
_atom_site_U_iso_or_equiv
_atom_site_adp_type
_atom_site_occupancy
C1     C     0.08669   0.16667   0.25002   0.00000  Uiso   1.00
C2     C     0.24664   0.16667   0.24998   0.00000  Uiso   1.00
C3     C     0.16616   0.08451   0.02311   0.00000  Uiso   1.00
C4     C     0.16721   0.24883   0.47689   0.00000  Uiso   1.00
C5     C     0.02129   0.12565   0.25011   0.00000  Uiso   1.00
C6     C     0.31205   0.20768   0.24989   0.00000  Uiso   1.00
C7     C     0.31205   0.12565   0.24994   0.00000  Uiso   1.00
C8     C     0.02128   0.20769   0.25006   0.00000  Uiso   1.00
C9     C     0.29083   0.16667   0.24991   0.00000  Uiso   1.00
C10    C     0.04250   0.16667   0.25009   0.00000  Uiso   1.00
C11    C     0.19289   0.02392   0.27824   0.00000  Uiso   1.00
C12    C     0.14044   0.30941   0.22176   0.00000  Uiso   1.00
C13    C     0.14044   0.02392   0.22176   0.00000  Uiso   1.00
C14    C     0.19289   0.30941   0.27824   0.00000  Uiso   1.00
C15    C     0.16670   0.16666   0.16335   0.00000  Uiso   1.00
C16    C     0.16664   0.16667   0.33665   0.00000  Uiso   1.00
C17    C     0.16677   0.20766   0.40758   0.00000  Uiso   1.00
C18    C     0.16660   0.12569   0.09242   0.00000  Uiso   1.00
C19    C     0.16653   0.16667   0.38464   0.00000  Uiso   1.00
C20    C     0.16682   0.16666   0.11536   0.00000  Uiso   1.00
C21    C     0.16618   0.12569   0.40755   0.00000  Uiso   1.00
C22    C     0.16717   0.20764   0.09246   0.00000  Uiso   1.00
C23    C     0.16628   0.12537   0.45363   0.00000  Uiso   1.00
C24    C     0.16708   0.20796   0.04637   0.00000  Uiso   1.00
C25    C     0.16664   0.16667   0.47682   0.00000  Uiso   1.00
C26    C     0.16674   0.16667   0.02318   0.00000  Uiso   1.00
C27    C     0.16687   0.20797   0.45367   0.00000  Uiso   1.00
C28    C     0.16651   0.12537   0.04634   0.00000  Uiso   1.00
C29    C     0.16604   0.08451   0.47682   0.00000  Uiso   1.00
C30    C     0.16733   0.24882   0.02318   0.00000  Uiso   1.00
H31    H     0.16583   0.09399   0.38964   0.00000  Uiso   1.00
H32    H     0.16750   0.23934   0.11036   0.00000  Uiso   1.00
H33    H     0.16576   0.05267   0.45918   0.00000  Uiso   1.00
H34    H     0.16758   0.28066   0.04082   0.00000  Uiso   1.00
N35    N     0.16667   0.28573   0.25000   0.00000  Uiso   1.00
N36    N     0.16667   0.04760   0.25000   0.00000  Uiso   1.00
O37    O     0.10559   0.20487   0.25000   0.00000  Uiso   1.00
O38    O     0.22774   0.12846   0.25001   0.00000  Uiso   1.00
O39    O     0.22774   0.20487   0.25001   0.00000  Uiso   1.00
O40    O     0.10559   0.12846   0.25000   0.00000  Uiso   1.00
O41    O     0.16666   0.20489   0.18393   0.00000  Uiso   1.00
O42    O     0.16667   0.12844   0.31608   0.00000  Uiso   1.00
O43    O     0.16667   0.20489   0.31608   0.00000  Uiso   1.00
O44    O     0.16666   0.12844   0.18393   0.00000  Uiso   1.00
Zn45   Zn    0.16667   0.21771   0.25000   0.00000  Uiso   1.00
Zn46   Zn    0.16667   0.11563   0.25000   0.00000  Uiso   1.00
H47    H     0.16687   0.23935   0.38971   0.00000  Uiso   1.00
H48    H     0.16651   0.09399   0.11030   0.00000  Uiso   1.00
H49    H     0.16596   0.05268   0.04072   0.00000  Uiso   1.00
H50    H     0.16741   0.28066   0.45928   0.00000  Uiso   1.00
H51    H     0.03739   0.09364   0.25028   0.00000  Uiso   1.00
H52    H     0.29595   0.23969   0.24972   0.00000  Uiso   1.00
H53    H     0.29596   0.09364   0.24982   0.00000  Uiso   1.00
H54    H     0.03737   0.23969   0.25018   0.00000  Uiso   1.00
Br55   Br    0.23028   0.05529   0.31853   0.00000  Uiso   1.00
Br56   Br    0.10305   0.27804   0.18147   0.00000  Uiso   1.00
Br57   Br    0.10302   0.05528   0.18150   0.00000  Uiso   1.00
Br58   Br    0.23031   0.27806   0.31851   0.00000  Uiso   1.00
C59    C     0.42002   0.16667   0.25002   0.00000  Uiso   1.00
C60    C     0.57998   0.16667   0.24998   0.00000  Uiso   1.00
C61    C     0.49949   0.08451   0.02311   0.00000  Uiso   1.00
C62    C     0.50055   0.24883   0.47689   0.00000  Uiso   1.00
C63    C     0.35462   0.12565   0.25011   0.00000  Uiso   1.00
C64    C     0.64538   0.20768   0.24989   0.00000  Uiso   1.00
C65    C     0.64539   0.12565   0.24994   0.00000  Uiso   1.00
C66    C     0.35461   0.20769   0.25006   0.00000  Uiso   1.00
C67    C     0.62417   0.16667   0.24991   0.00000  Uiso   1.00
C68    C     0.37583   0.16667   0.25009   0.00000  Uiso   1.00
C69    C     0.52622   0.02392   0.27824   0.00000  Uiso   1.00
C70    C     0.47378   0.30941   0.22176   0.00000  Uiso   1.00
C71    C     0.47377   0.02392   0.22176   0.00000  Uiso   1.00
C72    C     0.52623   0.30941   0.27824   0.00000  Uiso   1.00
C73    C     0.50003   0.16666   0.16335   0.00000  Uiso   1.00
C74    C     0.49997   0.16667   0.33665   0.00000  Uiso   1.00
C75    C     0.50010   0.20766   0.40758   0.00000  Uiso   1.00
C76    C     0.49994   0.12569   0.09242   0.00000  Uiso   1.00
C77    C     0.49986   0.16667   0.38464   0.00000  Uiso   1.00
C78    C     0.50016   0.16666   0.11536   0.00000  Uiso   1.00
C79    C     0.49951   0.12569   0.40755   0.00000  Uiso   1.00
C80    C     0.50050   0.20764   0.09246   0.00000  Uiso   1.00
C81    C     0.49962   0.12537   0.45363   0.00000  Uiso   1.00
C82    C     0.50042   0.20796   0.04637   0.00000  Uiso   1.00
C83    C     0.49997   0.16667   0.47682   0.00000  Uiso   1.00
C84    C     0.50008   0.16667   0.02318   0.00000  Uiso   1.00
C85    C     0.50020   0.20797   0.45367   0.00000  Uiso   1.00
C86    C     0.49985   0.12537   0.04634   0.00000  Uiso   1.00
C87    C     0.49937   0.08451   0.47682   0.00000  Uiso   1.00
C88    C     0.50066   0.24882   0.02318   0.00000  Uiso   1.00
H89    H     0.49916   0.09399   0.38964   0.00000  Uiso   1.00
H90    H     0.50083   0.23934   0.11036   0.00000  Uiso   1.00
H91    H     0.49910   0.05267   0.45918   0.00000  Uiso   1.00
H92    H     0.50091   0.28066   0.04082   0.00000  Uiso   1.00
N93    N     0.50000   0.28573   0.25000   0.00000  Uiso   1.00
N94    N     0.50000   0.04760   0.25000   0.00000  Uiso   1.00
O95    O     0.43892   0.20487   0.25000   0.00000  Uiso   1.00
O96    O     0.56108   0.12846   0.25001   0.00000  Uiso   1.00
O97    O     0.56108   0.20487   0.25001   0.00000  Uiso   1.00
O98    O     0.43892   0.12846   0.25000   0.00000  Uiso   1.00
O99    O     0.49999   0.20489   0.18393   0.00000  Uiso   1.00
O100   O     0.50001   0.12844   0.31608   0.00000  Uiso   1.00
O101   O     0.50001   0.20489   0.31608   0.00000  Uiso   1.00
O102   O     0.49999   0.12844   0.18393   0.00000  Uiso   1.00
Zn103  Zn    0.50000   0.21771   0.25000   0.00000  Uiso   1.00
Zn104  Zn    0.50000   0.11563   0.25000   0.00000  Uiso   1.00
H105   H     0.50021   0.23935   0.38971   0.00000  Uiso   1.00
H106   H     0.49984   0.09399   0.11030   0.00000  Uiso   1.00
H107   H     0.49929   0.05268   0.04072   0.00000  Uiso   1.00
H108   H     0.50074   0.28066   0.45928   0.00000  Uiso   1.00
H109   H     0.37072   0.09364   0.25028   0.00000  Uiso   1.00
H110   H     0.62928   0.23969   0.24972   0.00000  Uiso   1.00
H111   H     0.62929   0.09364   0.24982   0.00000  Uiso   1.00
H112   H     0.37071   0.23969   0.25018   0.00000  Uiso   1.00
Br113  Br    0.56362   0.05529   0.31853   0.00000  Uiso   1.00
Br114  Br    0.43638   0.27804   0.18147   0.00000  Uiso   1.00
Br115  Br    0.43635   0.05528   0.18150   0.00000  Uiso   1.00
Br116  Br    0.56364   0.27806   0.31851   0.00000  Uiso   1.00
C117   C     0.75336   0.16667   0.25002   0.00000  Uiso   1.00
C118   C     0.91331   0.16667   0.24998   0.00000  Uiso   1.00
C119   C     0.83283   0.08451   0.02311   0.00000  Uiso   1.00
C120   C     0.83388   0.24883   0.47689   0.00000  Uiso   1.00
C121   C     0.68795   0.12565   0.25011   0.00000  Uiso   1.00
C122   C     0.97871   0.20768   0.24989   0.00000  Uiso   1.00
C123   C     0.97872   0.12565   0.24994   0.00000  Uiso   1.00
C124   C     0.68795   0.20769   0.25006   0.00000  Uiso   1.00
C125   C     0.95750   0.16667   0.24991   0.00000  Uiso   1.00
C126   C     0.70917   0.16667   0.25009   0.00000  Uiso   1.00
C127   C     0.85956   0.02392   0.27824   0.00000  Uiso   1.00
C128   C     0.80711   0.30941   0.22176   0.00000  Uiso   1.00
C129   C     0.80711   0.02392   0.22176   0.00000  Uiso   1.00
C130   C     0.85956   0.30941   0.27824   0.00000  Uiso   1.00
C131   C     0.83337   0.16666   0.16335   0.00000  Uiso   1.00
C132   C     0.83330   0.16667   0.33665   0.00000  Uiso   1.00
C133   C     0.83343   0.20766   0.40758   0.00000  Uiso   1.00
C134   C     0.83327   0.12569   0.09242   0.00000  Uiso   1.00
C135   C     0.83320   0.16667   0.38464   0.00000  Uiso   1.00
C136   C     0.83349   0.16666   0.11536   0.00000  Uiso   1.00
C137   C     0.83285   0.12569   0.40755   0.00000  Uiso   1.00
C138   C     0.83383   0.20764   0.09246   0.00000  Uiso   1.00
C139   C     0.83295   0.12537   0.45363   0.00000  Uiso   1.00
C140   C     0.83375   0.20796   0.04637   0.00000  Uiso   1.00
C141   C     0.83331   0.16667   0.47682   0.00000  Uiso   1.00
C142   C     0.83341   0.16667   0.02318   0.00000  Uiso   1.00
C143   C     0.83353   0.20797   0.45367   0.00000  Uiso   1.00
C144   C     0.83318   0.12537   0.04634   0.00000  Uiso   1.00
C145   C     0.83270   0.08451   0.47682   0.00000  Uiso   1.00
C146   C     0.83399   0.24882   0.02318   0.00000  Uiso   1.00
H147   H     0.83249   0.09399   0.38964   0.00000  Uiso   1.00
H148   H     0.83417   0.23934   0.11036   0.00000  Uiso   1.00
H149   H     0.83243   0.05267   0.45918   0.00000  Uiso   1.00
H150   H     0.83425   0.28066   0.04082   0.00000  Uiso   1.00
N151   N     0.83333   0.28573   0.25000   0.00000  Uiso   1.00
N152   N     0.83333   0.04760   0.25000   0.00000  Uiso   1.00
O153   O     0.77226   0.20487   0.25000   0.00000  Uiso   1.00
O154   O     0.89441   0.12846   0.25001   0.00000  Uiso   1.00
O155   O     0.89441   0.20487   0.25001   0.00000  Uiso   1.00
O156   O     0.77226   0.12846   0.25000   0.00000  Uiso   1.00
O157   O     0.83333   0.20489   0.18393   0.00000  Uiso   1.00
O158   O     0.83334   0.12844   0.31608   0.00000  Uiso   1.00
O159   O     0.83334   0.20489   0.31608   0.00000  Uiso   1.00
O160   O     0.83333   0.12844   0.18393   0.00000  Uiso   1.00
Zn161  Zn    0.83333   0.21771   0.25000   0.00000  Uiso   1.00
Zn162  Zn    0.83333   0.11563   0.25000   0.00000  Uiso   1.00
H163   H     0.83354   0.23935   0.38971   0.00000  Uiso   1.00
H164   H     0.83318   0.09399   0.11030   0.00000  Uiso   1.00
H165   H     0.83262   0.05268   0.04072   0.00000  Uiso   1.00
H166   H     0.83407   0.28066   0.45928   0.00000  Uiso   1.00
H167   H     0.70405   0.09364   0.25028   0.00000  Uiso   1.00
H168   H     0.96261   0.23969   0.24972   0.00000  Uiso   1.00
H169   H     0.96263   0.09364   0.24982   0.00000  Uiso   1.00
H170   H     0.70404   0.23969   0.25018   0.00000  Uiso   1.00
Br171  Br    0.89695   0.05529   0.31853   0.00000  Uiso   1.00
Br172  Br    0.76971   0.27804   0.18147   0.00000  Uiso   1.00
Br173  Br    0.76969   0.05528   0.18150   0.00000  Uiso   1.00
Br174  Br    0.89697   0.27806   0.31851   0.00000  Uiso   1.00
C175   C     0.08669   0.50000   0.25002   0.00000  Uiso   1.00
C176   C     0.24664   0.50000   0.24998   0.00000  Uiso   1.00
C177   C     0.16616   0.41785   0.02311   0.00000  Uiso   1.00
C178   C     0.16721   0.58216   0.47689   0.00000  Uiso   1.00
C179   C     0.02129   0.45898   0.25011   0.00000  Uiso   1.00
C180   C     0.31205   0.54102   0.24989   0.00000  Uiso   1.00
C181   C     0.31205   0.45898   0.24994   0.00000  Uiso   1.00
C182   C     0.02128   0.54102   0.25006   0.00000  Uiso   1.00
C183   C     0.29083   0.50000   0.24991   0.00000  Uiso   1.00
C184   C     0.04250   0.50000   0.25009   0.00000  Uiso   1.00
C185   C     0.19289   0.35726   0.27824   0.00000  Uiso   1.00
C186   C     0.14044   0.64274   0.22176   0.00000  Uiso   1.00
C187   C     0.14044   0.35725   0.22176   0.00000  Uiso   1.00
C188   C     0.19289   0.64275   0.27824   0.00000  Uiso   1.00
C189   C     0.16670   0.50000   0.16335   0.00000  Uiso   1.00
C190   C     0.16664   0.50000   0.33665   0.00000  Uiso   1.00
C191   C     0.16677   0.54099   0.40758   0.00000  Uiso   1.00
C192   C     0.16660   0.45902   0.09242   0.00000  Uiso   1.00
C193   C     0.16653   0.50000   0.38464   0.00000  Uiso   1.00
C194   C     0.16682   0.50000   0.11536   0.00000  Uiso   1.00
C195   C     0.16618   0.45902   0.40755   0.00000  Uiso   1.00
C196   C     0.16717   0.54097   0.09246   0.00000  Uiso   1.00
C197   C     0.16628   0.45870   0.45363   0.00000  Uiso   1.00
C198   C     0.16708   0.54130   0.04637   0.00000  Uiso   1.00
C199   C     0.16664   0.50000   0.47682   0.00000  Uiso   1.00
C200   C     0.16674   0.50000   0.02318   0.00000  Uiso   1.00
C201   C     0.16687   0.54130   0.45367   0.00000  Uiso   1.00
C202   C     0.16651   0.45871   0.04634   0.00000  Uiso   1.00
C203   C     0.16604   0.41784   0.47682   0.00000  Uiso   1.00
C204   C     0.16733   0.58216   0.02318   0.00000  Uiso   1.00
H205   H     0.16583   0.42732   0.38964   0.00000  Uiso   1.00
H206   H     0.16750   0.57267   0.11036   0.00000  Uiso   1.00
H207   H     0.16576   0.38601   0.45918   0.00000  Uiso   1.00
H208   H     0.16758   0.61399   0.04082   0.00000  Uiso   1.00
N209   N     0.16667   0.61907   0.25000   0.00000  Uiso   1.00
N210   N     0.16667   0.38093   0.25000   0.00000  Uiso   1.00
O211   O     0.10559   0.53821   0.25000   0.00000  Uiso   1.00
O212   O     0.22774   0.46179   0.25001   0.00000  Uiso   1.00
O213   O     0.22774   0.53821   0.25001   0.00000  Uiso   1.00
O214   O     0.10559   0.46179   0.25000   0.00000  Uiso   1.00
O215   O     0.16666   0.53823   0.18393   0.00000  Uiso   1.00
O216   O     0.16667   0.46177   0.31608   0.00000  Uiso   1.00
O217   O     0.16667   0.53823   0.31608   0.00000  Uiso   1.00
O218   O     0.16666   0.46177   0.18393   0.00000  Uiso   1.00
Zn219  Zn    0.16667   0.55104   0.25000   0.00000  Uiso   1.00
Zn220  Zn    0.16667   0.44896   0.25000   0.00000  Uiso   1.00
H221   H     0.16687   0.57268   0.38971   0.00000  Uiso   1.00
H222   H     0.16651   0.42732   0.11030   0.00000  Uiso   1.00
H223   H     0.16596   0.38601   0.04072   0.00000  Uiso   1.00
H224   H     0.16741   0.61399   0.45928   0.00000  Uiso   1.00
H225   H     0.03739   0.42698   0.25028   0.00000  Uiso   1.00
H226   H     0.29595   0.57302   0.24972   0.00000  Uiso   1.00
H227   H     0.29596   0.42698   0.24982   0.00000  Uiso   1.00
H228   H     0.03737   0.57302   0.25018   0.00000  Uiso   1.00
Br229  Br    0.23028   0.38862   0.31853   0.00000  Uiso   1.00
Br230  Br    0.10305   0.61138   0.18147   0.00000  Uiso   1.00
Br231  Br    0.10302   0.38861   0.18150   0.00000  Uiso   1.00
Br232  Br    0.23031   0.61139   0.31851   0.00000  Uiso   1.00
C233   C     0.42002   0.50000   0.25002   0.00000  Uiso   1.00
C234   C     0.57998   0.50000   0.24998   0.00000  Uiso   1.00
C235   C     0.49949   0.41785   0.02311   0.00000  Uiso   1.00
C236   C     0.50055   0.58216   0.47689   0.00000  Uiso   1.00
C237   C     0.35462   0.45898   0.25011   0.00000  Uiso   1.00
C238   C     0.64538   0.54102   0.24989   0.00000  Uiso   1.00
C239   C     0.64539   0.45898   0.24994   0.00000  Uiso   1.00
C240   C     0.35461   0.54102   0.25006   0.00000  Uiso   1.00
C241   C     0.62417   0.50000   0.24991   0.00000  Uiso   1.00
C242   C     0.37583   0.50000   0.25009   0.00000  Uiso   1.00
C243   C     0.52622   0.35726   0.27824   0.00000  Uiso   1.00
C244   C     0.47378   0.64274   0.22176   0.00000  Uiso   1.00
C245   C     0.47377   0.35725   0.22176   0.00000  Uiso   1.00
C246   C     0.52623   0.64275   0.27824   0.00000  Uiso   1.00
C247   C     0.50003   0.50000   0.16335   0.00000  Uiso   1.00
C248   C     0.49997   0.50000   0.33665   0.00000  Uiso   1.00
C249   C     0.50010   0.54099   0.40758   0.00000  Uiso   1.00
C250   C     0.49994   0.45902   0.09242   0.00000  Uiso   1.00
C251   C     0.49986   0.50000   0.38464   0.00000  Uiso   1.00
C252   C     0.50016   0.50000   0.11536   0.00000  Uiso   1.00
C253   C     0.49951   0.45902   0.40755   0.00000  Uiso   1.00
C254   C     0.50050   0.54097   0.09246   0.00000  Uiso   1.00
C255   C     0.49962   0.45870   0.45363   0.00000  Uiso   1.00
C256   C     0.50042   0.54130   0.04637   0.00000  Uiso   1.00
C257   C     0.49997   0.50000   0.47682   0.00000  Uiso   1.00
C258   C     0.50008   0.50000   0.02318   0.00000  Uiso   1.00
C259   C     0.50020   0.54130   0.45367   0.00000  Uiso   1.00
C260   C     0.49985   0.45871   0.04634   0.00000  Uiso   1.00
C261   C     0.49937   0.41784   0.47682   0.00000  Uiso   1.00
C262   C     0.50066   0.58216   0.02318   0.00000  Uiso   1.00
H263   H     0.49916   0.42732   0.38964   0.00000  Uiso   1.00
H264   H     0.50083   0.57267   0.11036   0.00000  Uiso   1.00
H265   H     0.49910   0.38601   0.45918   0.00000  Uiso   1.00
H266   H     0.50091   0.61399   0.04082   0.00000  Uiso   1.00
N267   N     0.50000   0.61907   0.25000   0.00000  Uiso   1.00
N268   N     0.50000   0.38093   0.25000   0.00000  Uiso   1.00
O269   O     0.43892   0.53821   0.25000   0.00000  Uiso   1.00
O270   O     0.56108   0.46179   0.25001   0.00000  Uiso   1.00
O271   O     0.56108   0.53821   0.25001   0.00000  Uiso   1.00
O272   O     0.43892   0.46179   0.25000   0.00000  Uiso   1.00
O273   O     0.49999   0.53823   0.18393   0.00000  Uiso   1.00
O274   O     0.50001   0.46177   0.31608   0.00000  Uiso   1.00
O275   O     0.50001   0.53823   0.31608   0.00000  Uiso   1.00
O276   O     0.49999   0.46177   0.18393   0.00000  Uiso   1.00
Zn277  Zn    0.50000   0.55104   0.25000   0.00000  Uiso   1.00
Zn278  Zn    0.50000   0.44896   0.25000   0.00000  Uiso   1.00
H279   H     0.50021   0.57268   0.38971   0.00000  Uiso   1.00
H280   H     0.49984   0.42732   0.11030   0.00000  Uiso   1.00
H281   H     0.49929   0.38601   0.04072   0.00000  Uiso   1.00
H282   H     0.50074   0.61399   0.45928   0.00000  Uiso   1.00
H283   H     0.37072   0.42698   0.25028   0.00000  Uiso   1.00
H284   H     0.62928   0.57302   0.24972   0.00000  Uiso   1.00
H285   H     0.62929   0.42698   0.24982   0.00000  Uiso   1.00
H286   H     0.37071   0.57302   0.25018   0.00000  Uiso   1.00
Br287  Br    0.56362   0.38862   0.31853   0.00000  Uiso   1.00
Br288  Br    0.43638   0.61138   0.18147   0.00000  Uiso   1.00
Br289  Br    0.43635   0.38861   0.18150   0.00000  Uiso   1.00
Br290  Br    0.56364   0.61139   0.31851   0.00000  Uiso   1.00
C291   C     0.75336   0.50000   0.25002   0.00000  Uiso   1.00
C292   C     0.91331   0.50000   0.24998   0.00000  Uiso   1.00
C293   C     0.83283   0.41785   0.02311   0.00000  Uiso   1.00
C294   C     0.83388   0.58216   0.47689   0.00000  Uiso   1.00
C295   C     0.68795   0.45898   0.25011   0.00000  Uiso   1.00
C296   C     0.97871   0.54102   0.24989   0.00000  Uiso   1.00
C297   C     0.97872   0.45898   0.24994   0.00000  Uiso   1.00
C298   C     0.68795   0.54102   0.25006   0.00000  Uiso   1.00
C299   C     0.95750   0.50000   0.24991   0.00000  Uiso   1.00
C300   C     0.70917   0.50000   0.25009   0.00000  Uiso   1.00
C301   C     0.85956   0.35726   0.27824   0.00000  Uiso   1.00
C302   C     0.80711   0.64274   0.22176   0.00000  Uiso   1.00
C303   C     0.80711   0.35725   0.22176   0.00000  Uiso   1.00
C304   C     0.85956   0.64275   0.27824   0.00000  Uiso   1.00
C305   C     0.83337   0.50000   0.16335   0.00000  Uiso   1.00
C306   C     0.83330   0.50000   0.33665   0.00000  Uiso   1.00
C307   C     0.83343   0.54099   0.40758   0.00000  Uiso   1.00
C308   C     0.83327   0.45902   0.09242   0.00000  Uiso   1.00
C309   C     0.83320   0.50000   0.38464   0.00000  Uiso   1.00
C310   C     0.83349   0.50000   0.11536   0.00000  Uiso   1.00
C311   C     0.83285   0.45902   0.40755   0.00000  Uiso   1.00
C312   C     0.83383   0.54097   0.09246   0.00000  Uiso   1.00
C313   C     0.83295   0.45870   0.45363   0.00000  Uiso   1.00
C314   C     0.83375   0.54130   0.04637   0.00000  Uiso   1.00
C315   C     0.83331   0.50000   0.47682   0.00000  Uiso   1.00
C316   C     0.83341   0.50000   0.02318   0.00000  Uiso   1.00
C317   C     0.83353   0.54130   0.45367   0.00000  Uiso   1.00
C318   C     0.83318   0.45871   0.04634   0.00000  Uiso   1.00
C319   C     0.83270   0.41784   0.47682   0.00000  Uiso   1.00
C320   C     0.83399   0.58216   0.02318   0.00000  Uiso   1.00
H321   H     0.83249   0.42732   0.38964   0.00000  Uiso   1.00
H322   H     0.83417   0.57267   0.11036   0.00000  Uiso   1.00
H323   H     0.83243   0.38601   0.45918   0.00000  Uiso   1.00
H324   H     0.83425   0.61399   0.04082   0.00000  Uiso   1.00
N325   N     0.83333   0.61907   0.25000   0.00000  Uiso   1.00
N326   N     0.83333   0.38093   0.25000   0.00000  Uiso   1.00
O327   O     0.77226   0.53821   0.25000   0.00000  Uiso   1.00
O328   O     0.89441   0.46179   0.25001   0.00000  Uiso   1.00
O329   O     0.89441   0.53821   0.25001   0.00000  Uiso   1.00
O330   O     0.77226   0.46179   0.25000   0.00000  Uiso   1.00
O331   O     0.83333   0.53823   0.18393   0.00000  Uiso   1.00
O332   O     0.83334   0.46177   0.31608   0.00000  Uiso   1.00
O333   O     0.83334   0.53823   0.31608   0.00000  Uiso   1.00
O334   O     0.83333   0.46177   0.18393   0.00000  Uiso   1.00
Zn335  Zn    0.83333   0.55104   0.25000   0.00000  Uiso   1.00
Zn336  Zn    0.83333   0.44896   0.25000   0.00000  Uiso   1.00
H337   H     0.83354   0.57268   0.38971   0.00000  Uiso   1.00
H338   H     0.83318   0.42732   0.11030   0.00000  Uiso   1.00
H339   H     0.83262   0.38601   0.04072   0.00000  Uiso   1.00
H340   H     0.83407   0.61399   0.45928   0.00000  Uiso   1.00
H341   H     0.70405   0.42698   0.25028   0.00000  Uiso   1.00
H342   H     0.96261   0.57302   0.24972   0.00000  Uiso   1.00
H343   H     0.96263   0.42698   0.24982   0.00000  Uiso   1.00
H344   H     0.70404   0.57302   0.25018   0.00000  Uiso   1.00
Br345  Br    0.89695   0.38862   0.31853   0.00000  Uiso   1.00
Br346  Br    0.76971   0.61138   0.18147   0.00000  Uiso   1.00
Br347  Br    0.76969   0.38861   0.18150   0.00000  Uiso   1.00
Br348  Br    0.89697   0.61139   0.31851   0.00000  Uiso   1.00
C349   C     0.08669   0.83333   0.25002   0.00000  Uiso   1.00
C350   C     0.24664   0.83333   0.24998   0.00000  Uiso   1.00
C351   C     0.16616   0.75118   0.02311   0.00000  Uiso   1.00
C352   C     0.16721   0.91549   0.47689   0.00000  Uiso   1.00
C353   C     0.02129   0.79232   0.25011   0.00000  Uiso   1.00
C354   C     0.31205   0.87435   0.24989   0.00000  Uiso   1.00
C355   C     0.31205   0.79231   0.24994   0.00000  Uiso   1.00
C356   C     0.02128   0.87435   0.25006   0.00000  Uiso   1.00
C357   C     0.29083   0.83333   0.24991   0.00000  Uiso   1.00
C358   C     0.04250   0.83333   0.25009   0.00000  Uiso   1.00
C359   C     0.19289   0.69059   0.27824   0.00000  Uiso   1.00
C360   C     0.14044   0.97608   0.22176   0.00000  Uiso   1.00
C361   C     0.14044   0.69059   0.22176   0.00000  Uiso   1.00
C362   C     0.19289   0.97608   0.27824   0.00000  Uiso   1.00
C363   C     0.16670   0.83333   0.16335   0.00000  Uiso   1.00
C364   C     0.16664   0.83334   0.33665   0.00000  Uiso   1.00
C365   C     0.16677   0.87432   0.40758   0.00000  Uiso   1.00
C366   C     0.16660   0.79235   0.09242   0.00000  Uiso   1.00
C367   C     0.16653   0.83334   0.38464   0.00000  Uiso   1.00
C368   C     0.16682   0.83333   0.11536   0.00000  Uiso   1.00
C369   C     0.16618   0.79236   0.40755   0.00000  Uiso   1.00
C370   C     0.16717   0.87431   0.09246   0.00000  Uiso   1.00
C371   C     0.16628   0.79204   0.45363   0.00000  Uiso   1.00
C372   C     0.16708   0.87463   0.04637   0.00000  Uiso   1.00
C373   C     0.16664   0.83333   0.47682   0.00000  Uiso   1.00
C374   C     0.16674   0.83334   0.02318   0.00000  Uiso   1.00
C375   C     0.16687   0.87463   0.45367   0.00000  Uiso   1.00
C376   C     0.16651   0.79204   0.04634   0.00000  Uiso   1.00
C377   C     0.16604   0.75118   0.47682   0.00000  Uiso   1.00
C378   C     0.16733   0.91549   0.02318   0.00000  Uiso   1.00
H379   H     0.16583   0.76065   0.38964   0.00000  Uiso   1.00
H380   H     0.16750   0.90600   0.11036   0.00000  Uiso   1.00
H381   H     0.16576   0.71934   0.45918   0.00000  Uiso   1.00
H382   H     0.16758   0.94733   0.04082   0.00000  Uiso   1.00
N383   N     0.16667   0.95240   0.25000   0.00000  Uiso   1.00
N384   N     0.16667   0.71427   0.25000   0.00000  Uiso   1.00
O385   O     0.10559   0.87154   0.25000   0.00000  Uiso   1.00
O386   O     0.22774   0.79513   0.25001   0.00000  Uiso   1.00
O387   O     0.22774   0.87154   0.25001   0.00000  Uiso   1.00
O388   O     0.10559   0.79513   0.25000   0.00000  Uiso   1.00
O389   O     0.16666   0.87156   0.18393   0.00000  Uiso   1.00
O390   O     0.16667   0.79511   0.31608   0.00000  Uiso   1.00
O391   O     0.16667   0.87156   0.31608   0.00000  Uiso   1.00
O392   O     0.16666   0.79511   0.18393   0.00000  Uiso   1.00
Zn393  Zn    0.16667   0.88437   0.25000   0.00000  Uiso   1.00
Zn394  Zn    0.16667   0.78229   0.25000   0.00000  Uiso   1.00
H395   H     0.16687   0.90602   0.38971   0.00000  Uiso   1.00
H396   H     0.16651   0.76066   0.11030   0.00000  Uiso   1.00
H397   H     0.16596   0.71935   0.04072   0.00000  Uiso   1.00
H398   H     0.16741   0.94733   0.45928   0.00000  Uiso   1.00
H399   H     0.03739   0.76031   0.25028   0.00000  Uiso   1.00
H400   H     0.29595   0.90636   0.24972   0.00000  Uiso   1.00
H401   H     0.29596   0.76031   0.24982   0.00000  Uiso   1.00
H402   H     0.03737   0.90636   0.25018   0.00000  Uiso   1.00
Br403  Br    0.23028   0.72196   0.31853   0.00000  Uiso   1.00
Br404  Br    0.10305   0.94471   0.18147   0.00000  Uiso   1.00
Br405  Br    0.10302   0.72194   0.18150   0.00000  Uiso   1.00
Br406  Br    0.23031   0.94472   0.31851   0.00000  Uiso   1.00
C407   C     0.42002   0.83333   0.25002   0.00000  Uiso   1.00
C408   C     0.57998   0.83333   0.24998   0.00000  Uiso   1.00
C409   C     0.49949   0.75118   0.02311   0.00000  Uiso   1.00
C410   C     0.50055   0.91549   0.47689   0.00000  Uiso   1.00
C411   C     0.35462   0.79232   0.25011   0.00000  Uiso   1.00
C412   C     0.64538   0.87435   0.24989   0.00000  Uiso   1.00
C413   C     0.64539   0.79231   0.24994   0.00000  Uiso   1.00
C414   C     0.35461   0.87435   0.25006   0.00000  Uiso   1.00
C415   C     0.62417   0.83333   0.24991   0.00000  Uiso   1.00
C416   C     0.37583   0.83333   0.25009   0.00000  Uiso   1.00
C417   C     0.52622   0.69059   0.27824   0.00000  Uiso   1.00
C418   C     0.47378   0.97608   0.22176   0.00000  Uiso   1.00
C419   C     0.47377   0.69059   0.22176   0.00000  Uiso   1.00
C420   C     0.52623   0.97608   0.27824   0.00000  Uiso   1.00
C421   C     0.50003   0.83333   0.16335   0.00000  Uiso   1.00
C422   C     0.49997   0.83334   0.33665   0.00000  Uiso   1.00
C423   C     0.50010   0.87432   0.40758   0.00000  Uiso   1.00
C424   C     0.49994   0.79235   0.09242   0.00000  Uiso   1.00
C425   C     0.49986   0.83334   0.38464   0.00000  Uiso   1.00
C426   C     0.50016   0.83333   0.11536   0.00000  Uiso   1.00
C427   C     0.49951   0.79236   0.40755   0.00000  Uiso   1.00
C428   C     0.50050   0.87431   0.09246   0.00000  Uiso   1.00
C429   C     0.49962   0.79204   0.45363   0.00000  Uiso   1.00
C430   C     0.50042   0.87463   0.04637   0.00000  Uiso   1.00
C431   C     0.49997   0.83333   0.47682   0.00000  Uiso   1.00
C432   C     0.50008   0.83334   0.02318   0.00000  Uiso   1.00
C433   C     0.50020   0.87463   0.45367   0.00000  Uiso   1.00
C434   C     0.49985   0.79204   0.04634   0.00000  Uiso   1.00
C435   C     0.49937   0.75118   0.47682   0.00000  Uiso   1.00
C436   C     0.50066   0.91549   0.02318   0.00000  Uiso   1.00
H437   H     0.49916   0.76065   0.38964   0.00000  Uiso   1.00
H438   H     0.50083   0.90600   0.11036   0.00000  Uiso   1.00
H439   H     0.49910   0.71934   0.45918   0.00000  Uiso   1.00
H440   H     0.50091   0.94733   0.04082   0.00000  Uiso   1.00
N441   N     0.50000   0.95240   0.25000   0.00000  Uiso   1.00
N442   N     0.50000   0.71427   0.25000   0.00000  Uiso   1.00
O443   O     0.43892   0.87154   0.25000   0.00000  Uiso   1.00
O444   O     0.56108   0.79513   0.25001   0.00000  Uiso   1.00
O445   O     0.56108   0.87154   0.25001   0.00000  Uiso   1.00
O446   O     0.43892   0.79513   0.25000   0.00000  Uiso   1.00
O447   O     0.49999   0.87156   0.18393   0.00000  Uiso   1.00
O448   O     0.50001   0.79511   0.31608   0.00000  Uiso   1.00
O449   O     0.50001   0.87156   0.31608   0.00000  Uiso   1.00
O450   O     0.49999   0.79511   0.18393   0.00000  Uiso   1.00
Zn451  Zn    0.50000   0.88437   0.25000   0.00000  Uiso   1.00
Zn452  Zn    0.50000   0.78229   0.25000   0.00000  Uiso   1.00
H453   H     0.50021   0.90602   0.38971   0.00000  Uiso   1.00
H454   H     0.49984   0.76066   0.11030   0.00000  Uiso   1.00
H455   H     0.49929   0.71935   0.04072   0.00000  Uiso   1.00
H456   H     0.50074   0.94733   0.45928   0.00000  Uiso   1.00
H457   H     0.37072   0.76031   0.25028   0.00000  Uiso   1.00
H458   H     0.62928   0.90636   0.24972   0.00000  Uiso   1.00
H459   H     0.62929   0.76031   0.24982   0.00000  Uiso   1.00
H460   H     0.37071   0.90636   0.25018   0.00000  Uiso   1.00
Br461  Br    0.56362   0.72196   0.31853   0.00000  Uiso   1.00
Br462  Br    0.43638   0.94471   0.18147   0.00000  Uiso   1.00
Br463  Br    0.43635   0.72194   0.18150   0.00000  Uiso   1.00
Br464  Br    0.56364   0.94472   0.31851   0.00000  Uiso   1.00
C465   C     0.75336   0.83333   0.25002   0.00000  Uiso   1.00
C466   C     0.91331   0.83333   0.24998   0.00000  Uiso   1.00
C467   C     0.83283   0.75118   0.02311   0.00000  Uiso   1.00
C468   C     0.83388   0.91549   0.47689   0.00000  Uiso   1.00
C469   C     0.68795   0.79232   0.25011   0.00000  Uiso   1.00
C470   C     0.97871   0.87435   0.24989   0.00000  Uiso   1.00
C471   C     0.97872   0.79231   0.24994   0.00000  Uiso   1.00
C472   C     0.68795   0.87435   0.25006   0.00000  Uiso   1.00
C473   C     0.95750   0.83333   0.24991   0.00000  Uiso   1.00
C474   C     0.70917   0.83333   0.25009   0.00000  Uiso   1.00
C475   C     0.85956   0.69059   0.27824   0.00000  Uiso   1.00
C476   C     0.80711   0.97608   0.22176   0.00000  Uiso   1.00
C477   C     0.80711   0.69059   0.22176   0.00000  Uiso   1.00
C478   C     0.85956   0.97608   0.27824   0.00000  Uiso   1.00
C479   C     0.83337   0.83333   0.16335   0.00000  Uiso   1.00
C480   C     0.83330   0.83334   0.33665   0.00000  Uiso   1.00
C481   C     0.83343   0.87432   0.40758   0.00000  Uiso   1.00
C482   C     0.83327   0.79235   0.09242   0.00000  Uiso   1.00
C483   C     0.83320   0.83334   0.38464   0.00000  Uiso   1.00
C484   C     0.83349   0.83333   0.11536   0.00000  Uiso   1.00
C485   C     0.83285   0.79236   0.40755   0.00000  Uiso   1.00
C486   C     0.83383   0.87431   0.09246   0.00000  Uiso   1.00
C487   C     0.83295   0.79204   0.45363   0.00000  Uiso   1.00
C488   C     0.83375   0.87463   0.04637   0.00000  Uiso   1.00
C489   C     0.83331   0.83333   0.47682   0.00000  Uiso   1.00
C490   C     0.83341   0.83334   0.02318   0.00000  Uiso   1.00
C491   C     0.83353   0.87463   0.45367   0.00000  Uiso   1.00
C492   C     0.83318   0.79204   0.04634   0.00000  Uiso   1.00
C493   C     0.83270   0.75118   0.47682   0.00000  Uiso   1.00
C494   C     0.83399   0.91549   0.02318   0.00000  Uiso   1.00
H495   H     0.83249   0.76065   0.38964   0.00000  Uiso   1.00
H496   H     0.83417   0.90600   0.11036   0.00000  Uiso   1.00
H497   H     0.83243   0.71934   0.45918   0.00000  Uiso   1.00
H498   H     0.83425   0.94733   0.04082   0.00000  Uiso   1.00
N499   N     0.83333   0.95240   0.25000   0.00000  Uiso   1.00
N500   N     0.83333   0.71427   0.25000   0.00000  Uiso   1.00
O501   O     0.77226   0.87154   0.25000   0.00000  Uiso   1.00
O502   O     0.89441   0.79513   0.25001   0.00000  Uiso   1.00
O503   O     0.89441   0.87154   0.25001   0.00000  Uiso   1.00
O504   O     0.77226   0.79513   0.25000   0.00000  Uiso   1.00
O505   O     0.83333   0.87156   0.18393   0.00000  Uiso   1.00
O506   O     0.83334   0.79511   0.31608   0.00000  Uiso   1.00
O507   O     0.83334   0.87156   0.31608   0.00000  Uiso   1.00
O508   O     0.83333   0.79511   0.18393   0.00000  Uiso   1.00
Zn509  Zn    0.83333   0.88437   0.25000   0.00000  Uiso   1.00
Zn510  Zn    0.83333   0.78229   0.25000   0.00000  Uiso   1.00
H511   H     0.83354   0.90602   0.38971   0.00000  Uiso   1.00
H512   H     0.83318   0.76066   0.11030   0.00000  Uiso   1.00
H513   H     0.83262   0.71935   0.04072   0.00000  Uiso   1.00
H514   H     0.83407   0.94733   0.45928   0.00000  Uiso   1.00
H515   H     0.70405   0.76031   0.25028   0.00000  Uiso   1.00
H516   H     0.96261   0.90636   0.24972   0.00000  Uiso   1.00
H517   H     0.96263   0.76031   0.24982   0.00000  Uiso   1.00
H518   H     0.70404   0.90636   0.25018   0.00000  Uiso   1.00
Br519  Br    0.89695   0.72196   0.31853   0.00000  Uiso   1.00
Br520  Br    0.76971   0.94471   0.18147   0.00000  Uiso   1.00
Br521  Br    0.76969   0.72194   0.18150   0.00000  Uiso   1.00
Br522  Br    0.89697   0.94472   0.31851   0.00000  Uiso   1.00
C523   C     0.08669   0.16667   0.75002   0.00000  Uiso   1.00
C524   C     0.24664   0.16667   0.74998   0.00000  Uiso   1.00
C525   C     0.16616   0.08451   0.52311   0.00000  Uiso   1.00
C526   C     0.16721   0.24883   0.97689   0.00000  Uiso   1.00
C527   C     0.02129   0.12565   0.75011   0.00000  Uiso   1.00
C528   C     0.31205   0.20768   0.74989   0.00000  Uiso   1.00
C529   C     0.31205   0.12565   0.74994   0.00000  Uiso   1.00
C530   C     0.02128   0.20769   0.75006   0.00000  Uiso   1.00
C531   C     0.29083   0.16667   0.74991   0.00000  Uiso   1.00
C532   C     0.04250   0.16667   0.75009   0.00000  Uiso   1.00
C533   C     0.19289   0.02392   0.77824   0.00000  Uiso   1.00
C534   C     0.14044   0.30941   0.72176   0.00000  Uiso   1.00
C535   C     0.14044   0.02392   0.72176   0.00000  Uiso   1.00
C536   C     0.19289   0.30941   0.77824   0.00000  Uiso   1.00
C537   C     0.16670   0.16666   0.66335   0.00000  Uiso   1.00
C538   C     0.16664   0.16667   0.83665   0.00000  Uiso   1.00
C539   C     0.16677   0.20766   0.90758   0.00000  Uiso   1.00
C540   C     0.16660   0.12569   0.59242   0.00000  Uiso   1.00
C541   C     0.16653   0.16667   0.88464   0.00000  Uiso   1.00
C542   C     0.16682   0.16666   0.61536   0.00000  Uiso   1.00
C543   C     0.16618   0.12569   0.90755   0.00000  Uiso   1.00
C544   C     0.16717   0.20764   0.59246   0.00000  Uiso   1.00
C545   C     0.16628   0.12537   0.95363   0.00000  Uiso   1.00
C546   C     0.16708   0.20796   0.54637   0.00000  Uiso   1.00
C547   C     0.16664   0.16667   0.97682   0.00000  Uiso   1.00
C548   C     0.16674   0.16667   0.52318   0.00000  Uiso   1.00
C549   C     0.16687   0.20797   0.95367   0.00000  Uiso   1.00
C550   C     0.16651   0.12537   0.54634   0.00000  Uiso   1.00
C551   C     0.16604   0.08451   0.97682   0.00000  Uiso   1.00
C552   C     0.16733   0.24882   0.52318   0.00000  Uiso   1.00
H553   H     0.16583   0.09399   0.88964   0.00000  Uiso   1.00
H554   H     0.16750   0.23934   0.61036   0.00000  Uiso   1.00
H555   H     0.16576   0.05267   0.95918   0.00000  Uiso   1.00
H556   H     0.16758   0.28066   0.54082   0.00000  Uiso   1.00
N557   N     0.16667   0.28573   0.75000   0.00000  Uiso   1.00
N558   N     0.16667   0.04760   0.75000   0.00000  Uiso   1.00
O559   O     0.10559   0.20487   0.75000   0.00000  Uiso   1.00
O560   O     0.22774   0.12846   0.75001   0.00000  Uiso   1.00
O561   O     0.22774   0.20487   0.75001   0.00000  Uiso   1.00
O562   O     0.10559   0.12846   0.75000   0.00000  Uiso   1.00
O563   O     0.16666   0.20489   0.68393   0.00000  Uiso   1.00
O564   O     0.16667   0.12844   0.81608   0.00000  Uiso   1.00
O565   O     0.16667   0.20489   0.81608   0.00000  Uiso   1.00
O566   O     0.16666   0.12844   0.68393   0.00000  Uiso   1.00
Zn567  Zn    0.16667   0.21771   0.75000   0.00000  Uiso   1.00
Zn568  Zn    0.16667   0.11563   0.75000   0.00000  Uiso   1.00
H569   H     0.16687   0.23935   0.88971   0.00000  Uiso   1.00
H570   H     0.16651   0.09399   0.61030   0.00000  Uiso   1.00
H571   H     0.16596   0.05268   0.54072   0.00000  Uiso   1.00
H572   H     0.16741   0.28066   0.95928   0.00000  Uiso   1.00
H573   H     0.03739   0.09364   0.75028   0.00000  Uiso   1.00
H574   H     0.29595   0.23969   0.74972   0.00000  Uiso   1.00
H575   H     0.29596   0.09364   0.74982   0.00000  Uiso   1.00
H576   H     0.03737   0.23969   0.75018   0.00000  Uiso   1.00
Br577  Br    0.23028   0.05529   0.81853   0.00000  Uiso   1.00
Br578  Br    0.10305   0.27804   0.68147   0.00000  Uiso   1.00
Br579  Br    0.10302   0.05528   0.68150   0.00000  Uiso   1.00
Br580  Br    0.23031   0.27806   0.81851   0.00000  Uiso   1.00
C581   C     0.42002   0.16667   0.75002   0.00000  Uiso   1.00
C582   C     0.57998   0.16667   0.74998   0.00000  Uiso   1.00
C583   C     0.49949   0.08451   0.52311   0.00000  Uiso   1.00
C584   C     0.50055   0.24883   0.97689   0.00000  Uiso   1.00
C585   C     0.35462   0.12565   0.75011   0.00000  Uiso   1.00
C586   C     0.64538   0.20768   0.74989   0.00000  Uiso   1.00
C587   C     0.64539   0.12565   0.74994   0.00000  Uiso   1.00
C588   C     0.35461   0.20769   0.75006   0.00000  Uiso   1.00
C589   C     0.62417   0.16667   0.74991   0.00000  Uiso   1.00
C590   C     0.37583   0.16667   0.75009   0.00000  Uiso   1.00
C591   C     0.52622   0.02392   0.77824   0.00000  Uiso   1.00
C592   C     0.47378   0.30941   0.72176   0.00000  Uiso   1.00
C593   C     0.47377   0.02392   0.72176   0.00000  Uiso   1.00
C594   C     0.52623   0.30941   0.77824   0.00000  Uiso   1.00
C595   C     0.50003   0.16666   0.66335   0.00000  Uiso   1.00
C596   C     0.49997   0.16667   0.83665   0.00000  Uiso   1.00
C597   C     0.50010   0.20766   0.90758   0.00000  Uiso   1.00
C598   C     0.49994   0.12569   0.59242   0.00000  Uiso   1.00
C599   C     0.49986   0.16667   0.88464   0.00000  Uiso   1.00
C600   C     0.50016   0.16666   0.61536   0.00000  Uiso   1.00
C601   C     0.49951   0.12569   0.90755   0.00000  Uiso   1.00
C602   C     0.50050   0.20764   0.59246   0.00000  Uiso   1.00
C603   C     0.49962   0.12537   0.95363   0.00000  Uiso   1.00
C604   C     0.50042   0.20796   0.54637   0.00000  Uiso   1.00
C605   C     0.49997   0.16667   0.97682   0.00000  Uiso   1.00
C606   C     0.50008   0.16667   0.52318   0.00000  Uiso   1.00
C607   C     0.50020   0.20797   0.95367   0.00000  Uiso   1.00
C608   C     0.49985   0.12537   0.54634   0.00000  Uiso   1.00
C609   C     0.49937   0.08451   0.97682   0.00000  Uiso   1.00
C610   C     0.50066   0.24882   0.52318   0.00000  Uiso   1.00
H611   H     0.49916   0.09399   0.88964   0.00000  Uiso   1.00
H612   H     0.50083   0.23934   0.61036   0.00000  Uiso   1.00
H613   H     0.49910   0.05267   0.95918   0.00000  Uiso   1.00
H614   H     0.50091   0.28066   0.54082   0.00000  Uiso   1.00
N615   N     0.50000   0.28573   0.75000   0.00000  Uiso   1.00
N616   N     0.50000   0.04760   0.75000   0.00000  Uiso   1.00
O617   O     0.43892   0.20487   0.75000   0.00000  Uiso   1.00
O618   O     0.56108   0.12846   0.75001   0.00000  Uiso   1.00
O619   O     0.56108   0.20487   0.75001   0.00000  Uiso   1.00
O620   O     0.43892   0.12846   0.75000   0.00000  Uiso   1.00
O621   O     0.49999   0.20489   0.68393   0.00000  Uiso   1.00
O622   O     0.50001   0.12844   0.81608   0.00000  Uiso   1.00
O623   O     0.50001   0.20489   0.81608   0.00000  Uiso   1.00
O624   O     0.49999   0.12844   0.68393   0.00000  Uiso   1.00
Zn625  Zn    0.50000   0.21771   0.75000   0.00000  Uiso   1.00
Zn626  Zn    0.50000   0.11563   0.75000   0.00000  Uiso   1.00
H627   H     0.50021   0.23935   0.88971   0.00000  Uiso   1.00
H628   H     0.49984   0.09399   0.61030   0.00000  Uiso   1.00
H629   H     0.49929   0.05268   0.54072   0.00000  Uiso   1.00
H630   H     0.50074   0.28066   0.95928   0.00000  Uiso   1.00
H631   H     0.37072   0.09364   0.75028   0.00000  Uiso   1.00
H632   H     0.62928   0.23969   0.74972   0.00000  Uiso   1.00
H633   H     0.62929   0.09364   0.74982   0.00000  Uiso   1.00
H634   H     0.37071   0.23969   0.75018   0.00000  Uiso   1.00
Br635  Br    0.56362   0.05529   0.81853   0.00000  Uiso   1.00
Br636  Br    0.43638   0.27804   0.68147   0.00000  Uiso   1.00
Br637  Br    0.43635   0.05528   0.68150   0.00000  Uiso   1.00
Br638  Br    0.56364   0.27806   0.81851   0.00000  Uiso   1.00
C639   C     0.75336   0.16667   0.75002   0.00000  Uiso   1.00
C640   C     0.91331   0.16667   0.74998   0.00000  Uiso   1.00
C641   C     0.83283   0.08451   0.52311   0.00000  Uiso   1.00
C642   C     0.83388   0.24883   0.97689   0.00000  Uiso   1.00
C643   C     0.68795   0.12565   0.75011   0.00000  Uiso   1.00
C644   C     0.97871   0.20768   0.74989   0.00000  Uiso   1.00
C645   C     0.97872   0.12565   0.74994   0.00000  Uiso   1.00
C646   C     0.68795   0.20769   0.75006   0.00000  Uiso   1.00
C647   C     0.95750   0.16667   0.74991   0.00000  Uiso   1.00
C648   C     0.70917   0.16667   0.75009   0.00000  Uiso   1.00
C649   C     0.85956   0.02392   0.77824   0.00000  Uiso   1.00
C650   C     0.80711   0.30941   0.72176   0.00000  Uiso   1.00
C651   C     0.80711   0.02392   0.72176   0.00000  Uiso   1.00
C652   C     0.85956   0.30941   0.77824   0.00000  Uiso   1.00
C653   C     0.83337   0.16666   0.66335   0.00000  Uiso   1.00
C654   C     0.83330   0.16667   0.83665   0.00000  Uiso   1.00
C655   C     0.83343   0.20766   0.90758   0.00000  Uiso   1.00
C656   C     0.83327   0.12569   0.59242   0.00000  Uiso   1.00
C657   C     0.83320   0.16667   0.88464   0.00000  Uiso   1.00
C658   C     0.83349   0.16666   0.61536   0.00000  Uiso   1.00
C659   C     0.83285   0.12569   0.90755   0.00000  Uiso   1.00
C660   C     0.83383   0.20764   0.59246   0.00000  Uiso   1.00
C661   C     0.83295   0.12537   0.95363   0.00000  Uiso   1.00
C662   C     0.83375   0.20796   0.54637   0.00000  Uiso   1.00
C663   C     0.83331   0.16667   0.97682   0.00000  Uiso   1.00
C664   C     0.83341   0.16667   0.52318   0.00000  Uiso   1.00
C665   C     0.83353   0.20797   0.95367   0.00000  Uiso   1.00
C666   C     0.83318   0.12537   0.54634   0.00000  Uiso   1.00
C667   C     0.83270   0.08451   0.97682   0.00000  Uiso   1.00
C668   C     0.83399   0.24882   0.52318   0.00000  Uiso   1.00
H669   H     0.83249   0.09399   0.88964   0.00000  Uiso   1.00
H670   H     0.83417   0.23934   0.61036   0.00000  Uiso   1.00
H671   H     0.83243   0.05267   0.95918   0.00000  Uiso   1.00
H672   H     0.83425   0.28066   0.54082   0.00000  Uiso   1.00
N673   N     0.83333   0.28573   0.75000   0.00000  Uiso   1.00
N674   N     0.83333   0.04760   0.75000   0.00000  Uiso   1.00
O675   O     0.77226   0.20487   0.75000   0.00000  Uiso   1.00
O676   O     0.89441   0.12846   0.75001   0.00000  Uiso   1.00
O677   O     0.89441   0.20487   0.75001   0.00000  Uiso   1.00
O678   O     0.77226   0.12846   0.75000   0.00000  Uiso   1.00
O679   O     0.83333   0.20489   0.68393   0.00000  Uiso   1.00
O680   O     0.83334   0.12844   0.81608   0.00000  Uiso   1.00
O681   O     0.83334   0.20489   0.81608   0.00000  Uiso   1.00
O682   O     0.83333   0.12844   0.68393   0.00000  Uiso   1.00
Zn683  Zn    0.83333   0.21771   0.75000   0.00000  Uiso   1.00
Zn684  Zn    0.83333   0.11563   0.75000   0.00000  Uiso   1.00
H685   H     0.83354   0.23935   0.88971   0.00000  Uiso   1.00
H686   H     0.83318   0.09399   0.61030   0.00000  Uiso   1.00
H687   H     0.83262   0.05268   0.54072   0.00000  Uiso   1.00
H688   H     0.83407   0.28066   0.95928   0.00000  Uiso   1.00
H689   H     0.70405   0.09364   0.75028   0.00000  Uiso   1.00
H690   H     0.96261   0.23969   0.74972   0.00000  Uiso   1.00
H691   H     0.96263   0.09364   0.74982   0.00000  Uiso   1.00
H692   H     0.70404   0.23969   0.75018   0.00000  Uiso   1.00
Br693  Br    0.89695   0.05529   0.81853   0.00000  Uiso   1.00
Br694  Br    0.76971   0.27804   0.68147   0.00000  Uiso   1.00
Br695  Br    0.76969   0.05528   0.68150   0.00000  Uiso   1.00
Br696  Br    0.89697   0.27806   0.81851   0.00000  Uiso   1.00
C697   C     0.08669   0.50000   0.75002   0.00000  Uiso   1.00
C698   C     0.24664   0.50000   0.74998   0.00000  Uiso   1.00
C699   C     0.16616   0.41785   0.52311   0.00000  Uiso   1.00
C700   C     0.16721   0.58216   0.97689   0.00000  Uiso   1.00
C701   C     0.02129   0.45898   0.75011   0.00000  Uiso   1.00
C702   C     0.31205   0.54102   0.74989   0.00000  Uiso   1.00
C703   C     0.31205   0.45898   0.74994   0.00000  Uiso   1.00
C704   C     0.02128   0.54102   0.75006   0.00000  Uiso   1.00
C705   C     0.29083   0.50000   0.74991   0.00000  Uiso   1.00
C706   C     0.04250   0.50000   0.75009   0.00000  Uiso   1.00
C707   C     0.19289   0.35726   0.77824   0.00000  Uiso   1.00
C708   C     0.14044   0.64274   0.72176   0.00000  Uiso   1.00
C709   C     0.14044   0.35725   0.72176   0.00000  Uiso   1.00
C710   C     0.19289   0.64275   0.77824   0.00000  Uiso   1.00
C711   C     0.16670   0.50000   0.66335   0.00000  Uiso   1.00
C712   C     0.16664   0.50000   0.83665   0.00000  Uiso   1.00
C713   C     0.16677   0.54099   0.90758   0.00000  Uiso   1.00
C714   C     0.16660   0.45902   0.59242   0.00000  Uiso   1.00
C715   C     0.16653   0.50000   0.88464   0.00000  Uiso   1.00
C716   C     0.16682   0.50000   0.61536   0.00000  Uiso   1.00
C717   C     0.16618   0.45902   0.90755   0.00000  Uiso   1.00
C718   C     0.16717   0.54097   0.59246   0.00000  Uiso   1.00
C719   C     0.16628   0.45870   0.95363   0.00000  Uiso   1.00
C720   C     0.16708   0.54130   0.54637   0.00000  Uiso   1.00
C721   C     0.16664   0.50000   0.97682   0.00000  Uiso   1.00
C722   C     0.16674   0.50000   0.52318   0.00000  Uiso   1.00
C723   C     0.16687   0.54130   0.95367   0.00000  Uiso   1.00
C724   C     0.16651   0.45871   0.54634   0.00000  Uiso   1.00
C725   C     0.16604   0.41784   0.97682   0.00000  Uiso   1.00
C726   C     0.16733   0.58216   0.52318   0.00000  Uiso   1.00
H727   H     0.16583   0.42732   0.88964   0.00000  Uiso   1.00
H728   H     0.16750   0.57267   0.61036   0.00000  Uiso   1.00
H729   H     0.16576   0.38601   0.95918   0.00000  Uiso   1.00
H730   H     0.16758   0.61399   0.54082   0.00000  Uiso   1.00
N731   N     0.16667   0.61907   0.75000   0.00000  Uiso   1.00
N732   N     0.16667   0.38093   0.75000   0.00000  Uiso   1.00
O733   O     0.10559   0.53821   0.75000   0.00000  Uiso   1.00
O734   O     0.22774   0.46179   0.75001   0.00000  Uiso   1.00
O735   O     0.22774   0.53821   0.75001   0.00000  Uiso   1.00
O736   O     0.10559   0.46179   0.75000   0.00000  Uiso   1.00
O737   O     0.16666   0.53823   0.68393   0.00000  Uiso   1.00
O738   O     0.16667   0.46177   0.81608   0.00000  Uiso   1.00
O739   O     0.16667   0.53823   0.81608   0.00000  Uiso   1.00
O740   O     0.16666   0.46177   0.68393   0.00000  Uiso   1.00
Zn741  Zn    0.16667   0.55104   0.75000   0.00000  Uiso   1.00
Zn742  Zn    0.16667   0.44896   0.75000   0.00000  Uiso   1.00
H743   H     0.16687   0.57268   0.88971   0.00000  Uiso   1.00
H744   H     0.16651   0.42732   0.61030   0.00000  Uiso   1.00
H745   H     0.16596   0.38601   0.54072   0.00000  Uiso   1.00
H746   H     0.16741   0.61399   0.95928   0.00000  Uiso   1.00
H747   H     0.03739   0.42698   0.75028   0.00000  Uiso   1.00
H748   H     0.29595   0.57302   0.74972   0.00000  Uiso   1.00
H749   H     0.29596   0.42698   0.74982   0.00000  Uiso   1.00
H750   H     0.03737   0.57302   0.75018   0.00000  Uiso   1.00
Br751  Br    0.23028   0.38862   0.81853   0.00000  Uiso   1.00
Br752  Br    0.10305   0.61138   0.68147   0.00000  Uiso   1.00
Br753  Br    0.10302   0.38861   0.68150   0.00000  Uiso   1.00
Br754  Br    0.23031   0.61139   0.81851   0.00000  Uiso   1.00
C755   C     0.42002   0.50000   0.75002   0.00000  Uiso   1.00
C756   C     0.57998   0.50000   0.74998   0.00000  Uiso   1.00
C757   C     0.49949   0.41785   0.52311   0.00000  Uiso   1.00
C758   C     0.50055   0.58216   0.97689   0.00000  Uiso   1.00
C759   C     0.35462   0.45898   0.75011   0.00000  Uiso   1.00
C760   C     0.64538   0.54102   0.74989   0.00000  Uiso   1.00
C761   C     0.64539   0.45898   0.74994   0.00000  Uiso   1.00
C762   C     0.35461   0.54102   0.75006   0.00000  Uiso   1.00
C763   C     0.62417   0.50000   0.74991   0.00000  Uiso   1.00
C764   C     0.37583   0.50000   0.75009   0.00000  Uiso   1.00
C765   C     0.52622   0.35726   0.77824   0.00000  Uiso   1.00
C766   C     0.47378   0.64274   0.72176   0.00000  Uiso   1.00
C767   C     0.47377   0.35725   0.72176   0.00000  Uiso   1.00
C768   C     0.52623   0.64275   0.77824   0.00000  Uiso   1.00
C769   C     0.50003   0.50000   0.66335   0.00000  Uiso   1.00
C770   C     0.49997   0.50000   0.83665   0.00000  Uiso   1.00
C771   C     0.50010   0.54099   0.90758   0.00000  Uiso   1.00
C772   C     0.49994   0.45902   0.59242   0.00000  Uiso   1.00
C773   C     0.49986   0.50000   0.88464   0.00000  Uiso   1.00
C774   C     0.50016   0.50000   0.61536   0.00000  Uiso   1.00
C775   C     0.49951   0.45902   0.90755   0.00000  Uiso   1.00
C776   C     0.50050   0.54097   0.59246   0.00000  Uiso   1.00
C777   C     0.49962   0.45870   0.95363   0.00000  Uiso   1.00
C778   C     0.50042   0.54130   0.54637   0.00000  Uiso   1.00
C779   C     0.49997   0.50000   0.97682   0.00000  Uiso   1.00
C780   C     0.50008   0.50000   0.52318   0.00000  Uiso   1.00
C781   C     0.50020   0.54130   0.95367   0.00000  Uiso   1.00
C782   C     0.49985   0.45871   0.54634   0.00000  Uiso   1.00
C783   C     0.49937   0.41784   0.97682   0.00000  Uiso   1.00
C784   C     0.50066   0.58216   0.52318   0.00000  Uiso   1.00
H785   H     0.49916   0.42732   0.88964   0.00000  Uiso   1.00
H786   H     0.50083   0.57267   0.61036   0.00000  Uiso   1.00
H787   H     0.49910   0.38601   0.95918   0.00000  Uiso   1.00
H788   H     0.50091   0.61399   0.54082   0.00000  Uiso   1.00
N789   N     0.50000   0.61907   0.75000   0.00000  Uiso   1.00
N790   N     0.50000   0.38093   0.75000   0.00000  Uiso   1.00
O791   O     0.43892   0.53821   0.75000   0.00000  Uiso   1.00
O792   O     0.56108   0.46179   0.75001   0.00000  Uiso   1.00
O793   O     0.56108   0.53821   0.75001   0.00000  Uiso   1.00
O794   O     0.43892   0.46179   0.75000   0.00000  Uiso   1.00
O795   O     0.49999   0.53823   0.68393   0.00000  Uiso   1.00
O796   O     0.50001   0.46177   0.81608   0.00000  Uiso   1.00
O797   O     0.50001   0.53823   0.81608   0.00000  Uiso   1.00
O798   O     0.49999   0.46177   0.68393   0.00000  Uiso   1.00
Zn799  Zn    0.50000   0.55104   0.75000   0.00000  Uiso   1.00
Zn800  Zn    0.50000   0.44896   0.75000   0.00000  Uiso   1.00
H801   H     0.50021   0.57268   0.88971   0.00000  Uiso   1.00
H802   H     0.49984   0.42732   0.61030   0.00000  Uiso   1.00
H803   H     0.49929   0.38601   0.54072   0.00000  Uiso   1.00
H804   H     0.50074   0.61399   0.95928   0.00000  Uiso   1.00
H805   H     0.37072   0.42698   0.75028   0.00000  Uiso   1.00
H806   H     0.62928   0.57302   0.74972   0.00000  Uiso   1.00
H807   H     0.62929   0.42698   0.74982   0.00000  Uiso   1.00
H808   H     0.37071   0.57302   0.75018   0.00000  Uiso   1.00
Br809  Br    0.56362   0.38862   0.81853   0.00000  Uiso   1.00
Br810  Br    0.43638   0.61138   0.68147   0.00000  Uiso   1.00
Br811  Br    0.43635   0.38861   0.68150   0.00000  Uiso   1.00
Br812  Br    0.56364   0.61139   0.81851   0.00000  Uiso   1.00
C813   C     0.75336   0.50000   0.75002   0.00000  Uiso   1.00
C814   C     0.91331   0.50000   0.74998   0.00000  Uiso   1.00
C815   C     0.83283   0.41785   0.52311   0.00000  Uiso   1.00
C816   C     0.83388   0.58216   0.97689   0.00000  Uiso   1.00
C817   C     0.68795   0.45898   0.75011   0.00000  Uiso   1.00
C818   C     0.97871   0.54102   0.74989   0.00000  Uiso   1.00
C819   C     0.97872   0.45898   0.74994   0.00000  Uiso   1.00
C820   C     0.68795   0.54102   0.75006   0.00000  Uiso   1.00
C821   C     0.95750   0.50000   0.74991   0.00000  Uiso   1.00
C822   C     0.70917   0.50000   0.75009   0.00000  Uiso   1.00
C823   C     0.85956   0.35726   0.77824   0.00000  Uiso   1.00
C824   C     0.80711   0.64274   0.72176   0.00000  Uiso   1.00
C825   C     0.80711   0.35725   0.72176   0.00000  Uiso   1.00
C826   C     0.85956   0.64275   0.77824   0.00000  Uiso   1.00
C827   C     0.83337   0.50000   0.66335   0.00000  Uiso   1.00
C828   C     0.83330   0.50000   0.83665   0.00000  Uiso   1.00
C829   C     0.83343   0.54099   0.90758   0.00000  Uiso   1.00
C830   C     0.83327   0.45902   0.59242   0.00000  Uiso   1.00
C831   C     0.83320   0.50000   0.88464   0.00000  Uiso   1.00
C832   C     0.83349   0.50000   0.61536   0.00000  Uiso   1.00
C833   C     0.83285   0.45902   0.90755   0.00000  Uiso   1.00
C834   C     0.83383   0.54097   0.59246   0.00000  Uiso   1.00
C835   C     0.83295   0.45870   0.95363   0.00000  Uiso   1.00
C836   C     0.83375   0.54130   0.54637   0.00000  Uiso   1.00
C837   C     0.83331   0.50000   0.97682   0.00000  Uiso   1.00
C838   C     0.83341   0.50000   0.52318   0.00000  Uiso   1.00
C839   C     0.83353   0.54130   0.95367   0.00000  Uiso   1.00
C840   C     0.83318   0.45871   0.54634   0.00000  Uiso   1.00
C841   C     0.83270   0.41784   0.97682   0.00000  Uiso   1.00
C842   C     0.83399   0.58216   0.52318   0.00000  Uiso   1.00
H843   H     0.83249   0.42732   0.88964   0.00000  Uiso   1.00
H844   H     0.83417   0.57267   0.61036   0.00000  Uiso   1.00
H845   H     0.83243   0.38601   0.95918   0.00000  Uiso   1.00
H846   H     0.83425   0.61399   0.54082   0.00000  Uiso   1.00
N847   N     0.83333   0.61907   0.75000   0.00000  Uiso   1.00
N848   N     0.83333   0.38093   0.75000   0.00000  Uiso   1.00
O849   O     0.77226   0.53821   0.75000   0.00000  Uiso   1.00
O850   O     0.89441   0.46179   0.75001   0.00000  Uiso   1.00
O851   O     0.89441   0.53821   0.75001   0.00000  Uiso   1.00
O852   O     0.77226   0.46179   0.75000   0.00000  Uiso   1.00
O853   O     0.83333   0.53823   0.68393   0.00000  Uiso   1.00
O854   O     0.83334   0.46177   0.81608   0.00000  Uiso   1.00
O855   O     0.83334   0.53823   0.81608   0.00000  Uiso   1.00
O856   O     0.83333   0.46177   0.68393   0.00000  Uiso   1.00
Zn857  Zn    0.83333   0.55104   0.75000   0.00000  Uiso   1.00
Zn858  Zn    0.83333   0.44896   0.75000   0.00000  Uiso   1.00
H859   H     0.83354   0.57268   0.88971   0.00000  Uiso   1.00
H860   H     0.83318   0.42732   0.61030   0.00000  Uiso   1.00
H861   H     0.83262   0.38601   0.54072   0.00000  Uiso   1.00
H862   H     0.83407   0.61399   0.95928   0.00000  Uiso   1.00
H863   H     0.70405   0.42698   0.75028   0.00000  Uiso   1.00
H864   H     0.96261   0.57302   0.74972   0.00000  Uiso   1.00
H865   H     0.96263   0.42698   0.74982   0.00000  Uiso   1.00
H866   H     0.70404   0.57302   0.75018   0.00000  Uiso   1.00
Br867  Br    0.89695   0.38862   0.81853   0.00000  Uiso   1.00
Br868  Br    0.76971   0.61138   0.68147   0.00000  Uiso   1.00
Br869  Br    0.76969   0.38861   0.68150   0.00000  Uiso   1.00
Br870  Br    0.89697   0.61139   0.81851   0.00000  Uiso   1.00
C871   C     0.08669   0.83333   0.75002   0.00000  Uiso   1.00
C872   C     0.24664   0.83333   0.74998   0.00000  Uiso   1.00
C873   C     0.16616   0.75118   0.52311   0.00000  Uiso   1.00
C874   C     0.16721   0.91549   0.97689   0.00000  Uiso   1.00
C875   C     0.02129   0.79232   0.75011   0.00000  Uiso   1.00
C876   C     0.31205   0.87435   0.74989   0.00000  Uiso   1.00
C877   C     0.31205   0.79231   0.74994   0.00000  Uiso   1.00
C878   C     0.02128   0.87435   0.75006   0.00000  Uiso   1.00
C879   C     0.29083   0.83333   0.74991   0.00000  Uiso   1.00
C880   C     0.04250   0.83333   0.75009   0.00000  Uiso   1.00
C881   C     0.19289   0.69059   0.77824   0.00000  Uiso   1.00
C882   C     0.14044   0.97608   0.72176   0.00000  Uiso   1.00
C883   C     0.14044   0.69059   0.72176   0.00000  Uiso   1.00
C884   C     0.19289   0.97608   0.77824   0.00000  Uiso   1.00
C885   C     0.16670   0.83333   0.66335   0.00000  Uiso   1.00
C886   C     0.16664   0.83334   0.83665   0.00000  Uiso   1.00
C887   C     0.16677   0.87432   0.90758   0.00000  Uiso   1.00
C888   C     0.16660   0.79235   0.59242   0.00000  Uiso   1.00
C889   C     0.16653   0.83334   0.88464   0.00000  Uiso   1.00
C890   C     0.16682   0.83333   0.61536   0.00000  Uiso   1.00
C891   C     0.16618   0.79236   0.90755   0.00000  Uiso   1.00
C892   C     0.16717   0.87431   0.59246   0.00000  Uiso   1.00
C893   C     0.16628   0.79204   0.95363   0.00000  Uiso   1.00
C894   C     0.16708   0.87463   0.54637   0.00000  Uiso   1.00
C895   C     0.16664   0.83333   0.97682   0.00000  Uiso   1.00
C896   C     0.16674   0.83334   0.52318   0.00000  Uiso   1.00
C897   C     0.16687   0.87463   0.95367   0.00000  Uiso   1.00
C898   C     0.16651   0.79204   0.54634   0.00000  Uiso   1.00
C899   C     0.16604   0.75118   0.97682   0.00000  Uiso   1.00
C900   C     0.16733   0.91549   0.52318   0.00000  Uiso   1.00
H901   H     0.16583   0.76065   0.88964   0.00000  Uiso   1.00
H902   H     0.16750   0.90600   0.61036   0.00000  Uiso   1.00
H903   H     0.16576   0.71934   0.95918   0.00000  Uiso   1.00
H904   H     0.16758   0.94733   0.54082   0.00000  Uiso   1.00
N905   N     0.16667   0.95240   0.75000   0.00000  Uiso   1.00
N906   N     0.16667   0.71427   0.75000   0.00000  Uiso   1.00
O907   O     0.10559   0.87154   0.75000   0.00000  Uiso   1.00
O908   O     0.22774   0.79513   0.75001   0.00000  Uiso   1.00
O909   O     0.22774   0.87154   0.75001   0.00000  Uiso   1.00
O910   O     0.10559   0.79513   0.75000   0.00000  Uiso   1.00
O911   O     0.16666   0.87156   0.68393   0.00000  Uiso   1.00
O912   O     0.16667   0.79511   0.81608   0.00000  Uiso   1.00
O913   O     0.16667   0.87156   0.81608   0.00000  Uiso   1.00
O914   O     0.16666   0.79511   0.68393   0.00000  Uiso   1.00
Zn915  Zn    0.16667   0.88437   0.75000   0.00000  Uiso   1.00
Zn916  Zn    0.16667   0.78229   0.75000   0.00000  Uiso   1.00
H917   H     0.16687   0.90602   0.88971   0.00000  Uiso   1.00
H918   H     0.16651   0.76066   0.61030   0.00000  Uiso   1.00
H919   H     0.16596   0.71935   0.54072   0.00000  Uiso   1.00
H920   H     0.16741   0.94733   0.95928   0.00000  Uiso   1.00
H921   H     0.03739   0.76031   0.75028   0.00000  Uiso   1.00
H922   H     0.29595   0.90636   0.74972   0.00000  Uiso   1.00
H923   H     0.29596   0.76031   0.74982   0.00000  Uiso   1.00
H924   H     0.03737   0.90636   0.75018   0.00000  Uiso   1.00
Br925  Br    0.23028   0.72196   0.81853   0.00000  Uiso   1.00
Br926  Br    0.10305   0.94471   0.68147   0.00000  Uiso   1.00
Br927  Br    0.10302   0.72194   0.68150   0.00000  Uiso   1.00
Br928  Br    0.23031   0.94472   0.81851   0.00000  Uiso   1.00
C929   C     0.42002   0.83333   0.75002   0.00000  Uiso   1.00
C930   C     0.57998   0.83333   0.74998   0.00000  Uiso   1.00
C931   C     0.49949   0.75118   0.52311   0.00000  Uiso   1.00
C932   C     0.50055   0.91549   0.97689   0.00000  Uiso   1.00
C933   C     0.35462   0.79232   0.75011   0.00000  Uiso   1.00
C934   C     0.64538   0.87435   0.74989   0.00000  Uiso   1.00
C935   C     0.64539   0.79231   0.74994   0.00000  Uiso   1.00
C936   C     0.35461   0.87435   0.75006   0.00000  Uiso   1.00
C937   C     0.62417   0.83333   0.74991   0.00000  Uiso   1.00
C938   C     0.37583   0.83333   0.75009   0.00000  Uiso   1.00
C939   C     0.52622   0.69059   0.77824   0.00000  Uiso   1.00
C940   C     0.47378   0.97608   0.72176   0.00000  Uiso   1.00
C941   C     0.47377   0.69059   0.72176   0.00000  Uiso   1.00
C942   C     0.52623   0.97608   0.77824   0.00000  Uiso   1.00
C943   C     0.50003   0.83333   0.66335   0.00000  Uiso   1.00
C944   C     0.49997   0.83334   0.83665   0.00000  Uiso   1.00
C945   C     0.50010   0.87432   0.90758   0.00000  Uiso   1.00
C946   C     0.49994   0.79235   0.59242   0.00000  Uiso   1.00
C947   C     0.49986   0.83334   0.88464   0.00000  Uiso   1.00
C948   C     0.50016   0.83333   0.61536   0.00000  Uiso   1.00
C949   C     0.49951   0.79236   0.90755   0.00000  Uiso   1.00
C950   C     0.50050   0.87431   0.59246   0.00000  Uiso   1.00
C951   C     0.49962   0.79204   0.95363   0.00000  Uiso   1.00
C952   C     0.50042   0.87463   0.54637   0.00000  Uiso   1.00
C953   C     0.49997   0.83333   0.97682   0.00000  Uiso   1.00
C954   C     0.50008   0.83334   0.52318   0.00000  Uiso   1.00
C955   C     0.50020   0.87463   0.95367   0.00000  Uiso   1.00
C956   C     0.49985   0.79204   0.54634   0.00000  Uiso   1.00
C957   C     0.49937   0.75118   0.97682   0.00000  Uiso   1.00
C958   C     0.50066   0.91549   0.52318   0.00000  Uiso   1.00
H959   H     0.49916   0.76065   0.88964   0.00000  Uiso   1.00
H960   H     0.50083   0.90600   0.61036   0.00000  Uiso   1.00
H961   H     0.49910   0.71934   0.95918   0.00000  Uiso   1.00
H962   H     0.50091   0.94733   0.54082   0.00000  Uiso   1.00
N963   N     0.50000   0.95240   0.75000   0.00000  Uiso   1.00
N964   N     0.50000   0.71427   0.75000   0.00000  Uiso   1.00
O965   O     0.43892   0.87154   0.75000   0.00000  Uiso   1.00
O966   O     0.56108   0.79513   0.75001   0.00000  Uiso   1.00
O967   O     0.56108   0.87154   0.75001   0.00000  Uiso   1.00
O968   O     0.43892   0.79513   0.75000   0.00000  Uiso   1.00
O969   O     0.49999   0.87156   0.68393   0.00000  Uiso   1.00
O970   O     0.50001   0.79511   0.81608   0.00000  Uiso   1.00
O971   O     0.50001   0.87156   0.81608   0.00000  Uiso   1.00
O972   O     0.49999   0.79511   0.68393   0.00000  Uiso   1.00
Zn973  Zn    0.50000   0.88437   0.75000   0.00000  Uiso   1.00
Zn974  Zn    0.50000   0.78229   0.75000   0.00000  Uiso   1.00
H975   H     0.50021   0.90602   0.88971   0.00000  Uiso   1.00
H976   H     0.49984   0.76066   0.61030   0.00000  Uiso   1.00
H977   H     0.49929   0.71935   0.54072   0.00000  Uiso   1.00
H978   H     0.50074   0.94733   0.95928   0.00000  Uiso   1.00
H979   H     0.37072   0.76031   0.75028   0.00000  Uiso   1.00
H980   H     0.62928   0.90636   0.74972   0.00000  Uiso   1.00
H981   H     0.62929   0.76031   0.74982   0.00000  Uiso   1.00
H982   H     0.37071   0.90636   0.75018   0.00000  Uiso   1.00
Br983  Br    0.56362   0.72196   0.81853   0.00000  Uiso   1.00
Br984  Br    0.43638   0.94471   0.68147   0.00000  Uiso   1.00
Br985  Br    0.43635   0.72194   0.68150   0.00000  Uiso   1.00
Br986  Br    0.56364   0.94472   0.81851   0.00000  Uiso   1.00
C987   C     0.75336   0.83333   0.75002   0.00000  Uiso   1.00
C988   C     0.91331   0.83333   0.74998   0.00000  Uiso   1.00
C989   C     0.83283   0.75118   0.52311   0.00000  Uiso   1.00
C990   C     0.83388   0.91549   0.97689   0.00000  Uiso   1.00
C991   C     0.68795   0.79232   0.75011   0.00000  Uiso   1.00
C992   C     0.97871   0.87435   0.74989   0.00000  Uiso   1.00
C993   C     0.97872   0.79231   0.74994   0.00000  Uiso   1.00
C994   C     0.68795   0.87435   0.75006   0.00000  Uiso   1.00
C995   C     0.95750   0.83333   0.74991   0.00000  Uiso   1.00
C996   C     0.70917   0.83333   0.75009   0.00000  Uiso   1.00
C997   C     0.85956   0.69059   0.77824   0.00000  Uiso   1.00
C998   C     0.80711   0.97608   0.72176   0.00000  Uiso   1.00
C999   C     0.80711   0.69059   0.72176   0.00000  Uiso   1.00
C1000  C     0.85956   0.97608   0.77824   0.00000  Uiso   1.00
C1001  C     0.83337   0.83333   0.66335   0.00000  Uiso   1.00
C1002  C     0.83330   0.83334   0.83665   0.00000  Uiso   1.00
C1003  C     0.83343   0.87432   0.90758   0.00000  Uiso   1.00
C1004  C     0.83327   0.79235   0.59242   0.00000  Uiso   1.00
C1005  C     0.83320   0.83334   0.88464   0.00000  Uiso   1.00
C1006  C     0.83349   0.83333   0.61536   0.00000  Uiso   1.00
C1007  C     0.83285   0.79236   0.90755   0.00000  Uiso   1.00
C1008  C     0.83383   0.87431   0.59246   0.00000  Uiso   1.00
C1009  C     0.83295   0.79204   0.95363   0.00000  Uiso   1.00
C1010  C     0.83375   0.87463   0.54637   0.00000  Uiso   1.00
C1011  C     0.83331   0.83333   0.97682   0.00000  Uiso   1.00
C1012  C     0.83341   0.83334   0.52318   0.00000  Uiso   1.00
C1013  C     0.83353   0.87463   0.95367   0.00000  Uiso   1.00
C1014  C     0.83318   0.79204   0.54634   0.00000  Uiso   1.00
C1015  C     0.83270   0.75118   0.97682   0.00000  Uiso   1.00
C1016  C     0.83399   0.91549   0.52318   0.00000  Uiso   1.00
H1017  H     0.83249   0.76065   0.88964   0.00000  Uiso   1.00
H1018  H     0.83417   0.90600   0.61036   0.00000  Uiso   1.00
H1019  H     0.83243   0.71934   0.95918   0.00000  Uiso   1.00
H1020  H     0.83425   0.94733   0.54082   0.00000  Uiso   1.00
N1021  N     0.83333   0.95240   0.75000   0.00000  Uiso   1.00
N1022  N     0.83333   0.71427   0.75000   0.00000  Uiso   1.00
O1023  O     0.77226   0.87154   0.75000   0.00000  Uiso   1.00
O1024  O     0.89441   0.79513   0.75001   0.00000  Uiso   1.00
O1025  O     0.89441   0.87154   0.75001   0.00000  Uiso   1.00
O1026  O     0.77226   0.79513   0.75000   0.00000  Uiso   1.00
O1027  O     0.83333   0.87156   0.68393   0.00000  Uiso   1.00
O1028  O     0.83334   0.79511   0.81608   0.00000  Uiso   1.00
O1029  O     0.83334   0.87156   0.81608   0.00000  Uiso   1.00
O1030  O     0.83333   0.79511   0.68393   0.00000  Uiso   1.00
Zn1031 Zn    0.83333   0.88437   0.75000   0.00000  Uiso   1.00
Zn1032 Zn    0.83333   0.78229   0.75000   0.00000  Uiso   1.00
H1033  H     0.83354   0.90602   0.88971   0.00000  Uiso   1.00
H1034  H     0.83318   0.76066   0.61030   0.00000  Uiso   1.00
H1035  H     0.83262   0.71935   0.54072   0.00000  Uiso   1.00
H1036  H     0.83407   0.94733   0.95928   0.00000  Uiso   1.00
H1037  H     0.70405   0.76031   0.75028   0.00000  Uiso   1.00
H1038  H     0.96261   0.90636   0.74972   0.00000  Uiso   1.00
H1039  H     0.96263   0.76031   0.74982   0.00000  Uiso   1.00
H1040  H     0.70404   0.90636   0.75018   0.00000  Uiso   1.00
Br1041 Br    0.89695   0.72196   0.81853   0.00000  Uiso   1.00
Br1042 Br    0.76971   0.94471   0.68147   0.00000  Uiso   1.00
Br1043 Br    0.76969   0.72194   0.68150   0.00000  Uiso   1.00
Br1044 Br    0.89697   0.94472   0.81851   0.00000  Uiso   1.00
loop_
_geom_bond_atom_site_label_1
_geom_bond_atom_site_label_2
_geom_bond_distance
_geom_bond_site_symmetry_2
_ccdc_geom_bond_type
C1     O37     1.288   .     A
C1     O40     1.288   .     A
C1     C10     1.422   .     S
C2     O38     1.288   .     A
C2     C9      1.422   .     S
C2     O39     1.288   .     A
C3     H49     1.084   .     S
C3     C28     1.400   .     A
C3     C551    1.389   1_554 S
C4     C27     1.400   .     A
C4     H50     1.084   .     S
C4     C552    1.389   .     S
C5     C10     1.397   .     A
C5     H51     1.083   .     S
C5     C123    1.369   1_455 S
C6     C9      1.397   .     A
C6     H52     1.083   .     S
C6     C66     1.369   .     S
C7     C9      1.397   .     A
C7     H53     1.083   .     S
C7     C63     1.369   .     S
C8     C10     1.397   .     A
C8     H54     1.083   .     S
C8     C122    1.369   1_455 S
C11    Br55    1.921   .     S
C11    N36     1.372   .     A
C11    C362    1.422   1_545 S
C12    N35     1.372   .     A
C12    Br56    1.921   .     S
C12    C187    1.422   .     S
C13    Br57    1.921   .     S
C13    N36     1.372   .     A
C13    C360    1.422   1_545 S
C14    Br58    1.921   .     S
C14    N35     1.372   .     A
C14    C185    1.422   .     S
C15    O44     1.293   .     A
C15    C20     1.440   .     S
C15    O41     1.293   .     A
C16    O42     1.293   .     A
C16    O43     1.293   .     A
C16    C19     1.441   .     S
C17    C27     1.383   .     A
C17    C19     1.399   .     A
C17    H47     1.084   .     S
C18    H48     1.084   .     S
C18    C20     1.399   .     A
C18    C28     1.383   .     A
C19    C21     1.399   .     A
C20    C22     1.399   .     A
C21    H31     1.085   .     S
C21    C23     1.383   .     A
C22    H32     1.085   .     S
C22    C24     1.383   .     A
C23    C25     1.411   .     A
C23    C29     1.400   .     A
C24    C26     1.411   .     A
C24    C30     1.400   .     A
C25    C27     1.411   .     A
C25    C548    1.391   .     S
C26    C28     1.411   .     A
C26    C547    1.391   1_554 S
C29    H33     1.084   .     S
C29    C525    1.389   .     S
C30    H34     1.084   .     S
C30    C526    1.389   1_554 S
N35    Zn45    2.022   .     S
N36    Zn46    2.022   .     S
O37    Zn45    2.002   .     S
O38    Zn46    2.002   .     S
O39    Zn45    2.002   .     S
O40    Zn46    2.002   .     S
O41    Zn45    2.019   .     S
O42    Zn46    2.019   .     S
O43    Zn45    2.019   .     S
O44    Zn46    2.019   .     S
C59    O95     1.288   .     A
C59    O98     1.288   .     A
C59    C68     1.422   .     S
C60    O96     1.288   .     A
C60    C67     1.422   .     S
C60    O97     1.288   .     A
C61    H107    1.084   .     S
C61    C86     1.400   .     A
C61    C609    1.389   1_554 S
C62    C85     1.400   .     A
C62    H108    1.084   .     S
C62    C610    1.389   .     S
C63    C68     1.397   .     A
C63    H109    1.083   .     S
C64    C67     1.397   .     A
C64    H110    1.083   .     S
C64    C124    1.369   .     S
C65    C67     1.397   .     A
C65    H111    1.083   .     S
C65    C121    1.369   .     S
C66    C68     1.397   .     A
C66    H112    1.083   .     S
C69    Br113   1.921   .     S
C69    N94     1.372   .     A
C69    C420    1.422   1_545 S
C70    N93     1.372   .     A
C70    Br114   1.921   .     S
C70    C245    1.422   .     S
C71    Br115   1.921   .     S
C71    N94     1.372   .     A
C71    C418    1.422   1_545 S
C72    Br116   1.921   .     S
C72    N93     1.372   .     A
C72    C243    1.422   .     S
C73    O102    1.293   .     A
C73    C78     1.440   .     S
C73    O99     1.293   .     A
C74    O100    1.293   .     A
C74    O101    1.293   .     A
C74    C77     1.441   .     S
C75    C85     1.383   .     A
C75    C77     1.399   .     A
C75    H105    1.084   .     S
C76    H106    1.084   .     S
C76    C78     1.399   .     A
C76    C86     1.383   .     A
C77    C79     1.399   .     A
C78    C80     1.399   .     A
C79    H89     1.085   .     S
C79    C81     1.383   .     A
C80    H90     1.085   .     S
C80    C82     1.383   .     A
C81    C83     1.411   .     A
C81    C87     1.400   .     A
C82    C84     1.411   .     A
C82    C88     1.400   .     A
C83    C85     1.411   .     A
C83    C606    1.391   .     S
C84    C86     1.411   .     A
C84    C605    1.391   1_554 S
C87    H91     1.084   .     S
C87    C583    1.389   .     S
C88    H92     1.084   .     S
C88    C584    1.389   1_554 S
N93    Zn103   2.022   .     S
N94    Zn104   2.022   .     S
O95    Zn103   2.002   .     S
O96    Zn104   2.002   .     S
O97    Zn103   2.002   .     S
O98    Zn104   2.002   .     S
O99    Zn103   2.019   .     S
O100   Zn104   2.019   .     S
O101   Zn103   2.019   .     S
O102   Zn104   2.019   .     S
C117   O153    1.288   .     A
C117   O156    1.288   .     A
C117   C126    1.422   .     S
C118   O154    1.288   .     A
C118   C125    1.422   .     S
C118   O155    1.288   .     A
C119   H165    1.084   .     S
C119   C144    1.400   .     A
C119   C667    1.389   1_554 S
C120   C143    1.400   .     A
C120   H166    1.084   .     S
C120   C668    1.389   .     S
C121   C126    1.397   .     A
C121   H167    1.083   .     S
C122   C125    1.397   .     A
C122   H168    1.083   .     S
C122   C8      1.369   1_655 S
C123   C125    1.397   .     A
C123   H169    1.083   .     S
C123   C5      1.369   1_655 S
C124   C126    1.397   .     A
C124   H170    1.083   .     S
C127   Br171   1.921   .     S
C127   N152    1.372   .     A
C127   C478    1.422   1_545 S
C128   N151    1.372   .     A
C128   Br172   1.921   .     S
C128   C303    1.422   .     S
C129   Br173   1.921   .     S
C129   N152    1.372   .     A
C129   C476    1.422   1_545 S
C130   Br174   1.921   .     S
C130   N151    1.372   .     A
C130   C301    1.422   .     S
C131   O160    1.293   .     A
C131   C136    1.440   .     S
C131   O157    1.293   .     A
C132   O158    1.293   .     A
C132   O159    1.293   .     A
C132   C135    1.441   .     S
C133   C143    1.383   .     A
C133   C135    1.399   .     A
C133   H163    1.084   .     S
C134   H164    1.084   .     S
C134   C136    1.399   .     A
C134   C144    1.383   .     A
C135   C137    1.399   .     A
C136   C138    1.399   .     A
C137   H147    1.085   .     S
C137   C139    1.383   .     A
C138   H148    1.085   .     S
C138   C140    1.383   .     A
C139   C141    1.411   .     A
C139   C145    1.400   .     A
C140   C142    1.411   .     A
C140   C146    1.400   .     A
C141   C143    1.411   .     A
C141   C664    1.391   .     S
C142   C144    1.411   .     A
C142   C663    1.391   1_554 S
C145   H149    1.084   .     S
C145   C641    1.389   .     S
C146   H150    1.084   .     S
C146   C642    1.389   1_554 S
N151   Zn161   2.022   .     S
N152   Zn162   2.022   .     S
O153   Zn161   2.002   .     S
O154   Zn162   2.002   .     S
O155   Zn161   2.002   .     S
O156   Zn162   2.002   .     S
O157   Zn161   2.019   .     S
O158   Zn162   2.019   .     S
O159   Zn161   2.019   .     S
O160   Zn162   2.019   .     S
C175   O211    1.288   .     A
C175   O214    1.288   .     A
C175   C184    1.422   .     S
C176   O212    1.288   .     A
C176   C183    1.422   .     S
C176   O213    1.288   .     A
C177   H223    1.084   .     S
C177   C202    1.400   .     A
C177   C725    1.389   1_554 S
C178   C201    1.400   .     A
C178   H224    1.084   .     S
C178   C726    1.389   .     S
C179   C184    1.397   .     A
C179   H225    1.083   .     S
C179   C297    1.369   1_455 S
C180   C183    1.397   .     A
C180   H226    1.083   .     S
C180   C240    1.369   .     S
C181   C183    1.397   .     A
C181   H227    1.083   .     S
C181   C237    1.369   .     S
C182   C184    1.397   .     A
C182   H228    1.083   .     S
C182   C296    1.369   1_455 S
C185   Br229   1.921   .     S
C185   N210    1.372   .     A
C186   N209    1.372   .     A
C186   Br230   1.921   .     S
C186   C361    1.422   .     S
C187   Br231   1.921   .     S
C187   N210    1.372   .     A
C188   Br232   1.921   .     S
C188   N209    1.372   .     A
C188   C359    1.422   .     S
C189   O218    1.293   .     A
C189   C194    1.440   .     S
C189   O215    1.293   .     A
C190   O216    1.293   .     A
C190   O217    1.293   .     A
C190   C193    1.441   .     S
C191   C201    1.383   .     A
C191   C193    1.399   .     A
C191   H221    1.084   .     S
C192   H222    1.084   .     S
C192   C194    1.399   .     A
C192   C202    1.383   .     A
C193   C195    1.399   .     A
C194   C196    1.399   .     A
C195   H205    1.085   .     S
C195   C197    1.383   .     A
C196   H206    1.085   .     S
C196   C198    1.383   .     A
C197   C199    1.411   .     A
C197   C203    1.400   .     A
C198   C200    1.411   .     A
C198   C204    1.400   .     A
C199   C201    1.411   .     A
C199   C722    1.391   .     S
C200   C202    1.411   .     A
C200   C721    1.391   1_554 S
C203   H207    1.084   .     S
C203   C699    1.389   .     S
C204   H208    1.084   .     S
C204   C700    1.389   1_554 S
N209   Zn219   2.022   .     S
N210   Zn220   2.022   .     S
O211   Zn219   2.002   .     S
O212   Zn220   2.002   .     S
O213   Zn219   2.002   .     S
O214   Zn220   2.002   .     S
O215   Zn219   2.019   .     S
O216   Zn220   2.019   .     S
O217   Zn219   2.019   .     S
O218   Zn220   2.019   .     S
C233   O269    1.288   .     A
C233   O272    1.288   .     A
C233   C242    1.422   .     S
C234   O270    1.288   .     A
C234   C241    1.422   .     S
C234   O271    1.288   .     A
C235   H281    1.084   .     S
C235   C260    1.400   .     A
C235   C783    1.389   1_554 S
C236   C259    1.400   .     A
C236   H282    1.084   .     S
C236   C784    1.389   .     S
C237   C242    1.397   .     A
C237   H283    1.083   .     S
C238   C241    1.397   .     A
C238   H284    1.083   .     S
C238   C298    1.369   .     S
C239   C241    1.397   .     A
C239   H285    1.083   .     S
C239   C295    1.369   .     S
C240   C242    1.397   .     A
C240   H286    1.083   .     S
C243   Br287   1.921   .     S
C243   N268    1.372   .     A
C244   N267    1.372   .     A
C244   Br288   1.921   .     S
C244   C419    1.422   .     S
C245   Br289   1.921   .     S
C245   N268    1.372   .     A
C246   Br290   1.921   .     S
C246   N267    1.372   .     A
C246   C417    1.422   .     S
C247   O276    1.293   .     A
C247   C252    1.440   .     S
C247   O273    1.293   .     A
C248   O274    1.293   .     A
C248   O275    1.293   .     A
C248   C251    1.441   .     S
C249   C259    1.383   .     A
C249   C251    1.399   .     A
C249   H279    1.084   .     S
C250   H280    1.084   .     S
C250   C252    1.399   .     A
C250   C260    1.383   .     A
C251   C253    1.399   .     A
C252   C254    1.399   .     A
C253   H263    1.085   .     S
C253   C255    1.383   .     A
C254   H264    1.085   .     S
C254   C256    1.383   .     A
C255   C257    1.411   .     A
C255   C261    1.400   .     A
C256   C258    1.411   .     A
C256   C262    1.400   .     A
C257   C259    1.411   .     A
C257   C780    1.391   .     S
C258   C260    1.411   .     A
C258   C779    1.391   1_554 S
C261   H265    1.084   .     S
C261   C757    1.389   .     S
C262   H266    1.084   .     S
C262   C758    1.389   1_554 S
N267   Zn277   2.022   .     S
N268   Zn278   2.022   .     S
O269   Zn277   2.002   .     S
O270   Zn278   2.002   .     S
O271   Zn277   2.002   .     S
O272   Zn278   2.002   .     S
O273   Zn277   2.019   .     S
O274   Zn278   2.019   .     S
O275   Zn277   2.019   .     S
O276   Zn278   2.019   .     S
C291   O327    1.288   .     A
C291   O330    1.288   .     A
C291   C300    1.422   .     S
C292   O328    1.288   .     A
C292   C299    1.422   .     S
C292   O329    1.288   .     A
C293   H339    1.084   .     S
C293   C318    1.400   .     A
C293   C841    1.389   1_554 S
C294   C317    1.400   .     A
C294   H340    1.084   .     S
C294   C842    1.389   .     S
C295   C300    1.397   .     A
C295   H341    1.083   .     S
C296   C299    1.397   .     A
C296   H342    1.083   .     S
C296   C182    1.369   1_655 S
C297   C299    1.397   .     A
C297   H343    1.083   .     S
C297   C179    1.369   1_655 S
C298   C300    1.397   .     A
C298   H344    1.083   .     S
C301   Br345   1.921   .     S
C301   N326    1.372   .     A
C302   N325    1.372   .     A
C302   Br346   1.921   .     S
C302   C477    1.422   .     S
C303   Br347   1.921   .     S
C303   N326    1.372   .     A
C304   Br348   1.921   .     S
C304   N325    1.372   .     A
C304   C475    1.422   .     S
C305   O334    1.293   .     A
C305   C310    1.440   .     S
C305   O331    1.293   .     A
C306   O332    1.293   .     A
C306   O333    1.293   .     A
C306   C309    1.441   .     S
C307   C317    1.383   .     A
C307   C309    1.399   .     A
C307   H337    1.084   .     S
C308   H338    1.084   .     S
C308   C310    1.399   .     A
C308   C318    1.383   .     A
C309   C311    1.399   .     A
C310   C312    1.399   .     A
C311   H321    1.085   .     S
C311   C313    1.383   .     A
C312   H322    1.085   .     S
C312   C314    1.383   .     A
C313   C315    1.411   .     A
C313   C319    1.400   .     A
C314   C316    1.411   .     A
C314   C320    1.400   .     A
C315   C317    1.411   .     A
C315   C838    1.391   .     S
C316   C318    1.411   .     A
C316   C837    1.391   1_554 S
C319   H323    1.084   .     S
C319   C815    1.389   .     S
C320   H324    1.084   .     S
C320   C816    1.389   1_554 S
N325   Zn335   2.022   .     S
N326   Zn336   2.022   .     S
O327   Zn335   2.002   .     S
O328   Zn336   2.002   .     S
O329   Zn335   2.002   .     S
O330   Zn336   2.002   .     S
O331   Zn335   2.019   .     S
O332   Zn336   2.019   .     S
O333   Zn335   2.019   .     S
O334   Zn336   2.019   .     S
C349   O385    1.288   .     A
C349   O388    1.288   .     A
C349   C358    1.422   .     S
C350   O386    1.288   .     A
C350   C357    1.422   .     S
C350   O387    1.288   .     A
C351   H397    1.084   .     S
C351   C376    1.400   .     A
C351   C899    1.389   1_554 S
C352   C375    1.400   .     A
C352   H398    1.084   .     S
C352   C900    1.389   .     S
C353   C358    1.397   .     A
C353   H399    1.083   .     S
C353   C471    1.369   1_455 S
C354   C357    1.397   .     A
C354   H400    1.083   .     S
C354   C414    1.369   .     S
C355   C357    1.397   .     A
C355   H401    1.083   .     S
C355   C411    1.369   .     S
C356   C358    1.397   .     A
C356   H402    1.083   .     S
C356   C470    1.369   1_455 S
C359   Br403   1.921   .     S
C359   N384    1.372   .     A
C360   N383    1.372   .     A
C360   Br404   1.921   .     S
C360   C13     1.422   1_565 S
C361   Br405   1.921   .     S
C361   N384    1.372   .     A
C362   Br406   1.921   .     S
C362   N383    1.372   .     A
C362   C11     1.422   1_565 S
C363   O392    1.293   .     A
C363   C368    1.440   .     S
C363   O389    1.293   .     A
C364   O390    1.293   .     A
C364   O391    1.293   .     A
C364   C367    1.441   .     S
C365   C375    1.383   .     A
C365   C367    1.399   .     A
C365   H395    1.084   .     S
C366   H396    1.084   .     S
C366   C368    1.399   .     A
C366   C376    1.383   .     A
C367   C369    1.399   .     A
C368   C370    1.399   .     A
C369   H379    1.085   .     S
C369   C371    1.383   .     A
C370   H380    1.085   .     S
C370   C372    1.383   .     A
C371   C373    1.411   .     A
C371   C377    1.400   .     A
C372   C374    1.411   .     A
C372   C378    1.400   .     A
C373   C375    1.411   .     A
C373   C896    1.391   .     S
C374   C376    1.411   .     A
C374   C895    1.391   1_554 S
C377   H381    1.084   .     S
C377   C873    1.389   .     S
C378   H382    1.084   .     S
C378   C874    1.389   1_554 S
N383   Zn393   2.022   .     S
N384   Zn394   2.022   .     S
O385   Zn393   2.002   .     S
O386   Zn394   2.002   .     S
O387   Zn393   2.002   .     S
O388   Zn394   2.002   .     S
O389   Zn393   2.019   .     S
O390   Zn394   2.019   .     S
O391   Zn393   2.019   .     S
O392   Zn394   2.019   .     S
C407   O443    1.288   .     A
C407   O446    1.288   .     A
C407   C416    1.422   .     S
C408   O444    1.288   .     A
C408   C415    1.422   .     S
C408   O445    1.288   .     A
C409   H455    1.084   .     S
C409   C434    1.400   .     A
C409   C957    1.389   1_554 S
C410   C433    1.400   .     A
C410   H456    1.084   .     S
C410   C958    1.389   .     S
C411   C416    1.397   .     A
C411   H457    1.083   .     S
C412   C415    1.397   .     A
C412   H458    1.083   .     S
C412   C472    1.369   .     S
C413   C415    1.397   .     A
C413   H459    1.083   .     S
C413   C469    1.369   .     S
C414   C416    1.397   .     A
C414   H460    1.083   .     S
C417   Br461   1.921   .     S
C417   N442    1.372   .     A
C418   N441    1.372   .     A
C418   Br462   1.921   .     S
C418   C71     1.422   1_565 S
C419   Br463   1.921   .     S
C419   N442    1.372   .     A
C420   Br464   1.921   .     S
C420   N441    1.372   .     A
C420   C69     1.422   1_565 S
C421   O450    1.293   .     A
C421   C426    1.440   .     S
C421   O447    1.293   .     A
C422   O448    1.293   .     A
C422   O449    1.293   .     A
C422   C425    1.441   .     S
C423   C433    1.383   .     A
C423   C425    1.399   .     A
C423   H453    1.084   .     S
C424   H454    1.084   .     S
C424   C426    1.399   .     A
C424   C434    1.383   .     A
C425   C427    1.399   .     A
C426   C428    1.399   .     A
C427   H437    1.085   .     S
C427   C429    1.383   .     A
C428   H438    1.085   .     S
C428   C430    1.383   .     A
C429   C431    1.411   .     A
C429   C435    1.400   .     A
C430   C432    1.411   .     A
C430   C436    1.400   .     A
C431   C433    1.411   .     A
C431   C954    1.391   .     S
C432   C434    1.411   .     A
C432   C953    1.391   1_554 S
C435   H439    1.084   .     S
C435   C931    1.389   .     S
C436   H440    1.084   .     S
C436   C932    1.389   1_554 S
N441   Zn451   2.022   .     S
N442   Zn452   2.022   .     S
O443   Zn451   2.002   .     S
O444   Zn452   2.002   .     S
O445   Zn451   2.002   .     S
O446   Zn452   2.002   .     S
O447   Zn451   2.019   .     S
O448   Zn452   2.019   .     S
O449   Zn451   2.019   .     S
O450   Zn452   2.019   .     S
C465   O501    1.288   .     A
C465   O504    1.288   .     A
C465   C474    1.422   .     S
C466   O502    1.288   .     A
C466   C473    1.422   .     S
C466   O503    1.288   .     A
C467   H513    1.084   .     S
C467   C492    1.400   .     A
C467   C1015   1.389   1_554 S
C468   C491    1.400   .     A
C468   H514    1.084   .     S
C468   C1016   1.389   .     S
C469   C474    1.397   .     A
C469   H515    1.083   .     S
C470   C473    1.397   .     A
C470   H516    1.083   .     S
C470   C356    1.369   1_655 S
C471   C473    1.397   .     A
C471   H517    1.083   .     S
C471   C353    1.369   1_655 S
C472   C474    1.397   .     A
C472   H518    1.083   .     S
C475   Br519   1.921   .     S
C475   N500    1.372   .     A
C476   N499    1.372   .     A
C476   Br520   1.921   .     S
C476   C129    1.422   1_565 S
C477   Br521   1.921   .     S
C477   N500    1.372   .     A
C478   Br522   1.921   .     S
C478   N499    1.372   .     A
C478   C127    1.422   1_565 S
C479   O508    1.293   .     A
C479   C484    1.440   .     S
C479   O505    1.293   .     A
C480   O506    1.293   .     A
C480   O507    1.293   .     A
C480   C483    1.441   .     S
C481   C491    1.383   .     A
C481   C483    1.399   .     A
C481   H511    1.084   .     S
C482   H512    1.084   .     S
C482   C484    1.399   .     A
C482   C492    1.383   .     A
C483   C485    1.399   .     A
C484   C486    1.399   .     A
C485   H495    1.085   .     S
C485   C487    1.383   .     A
C486   H496    1.085   .     S
C486   C488    1.383   .     A
C487   C489    1.411   .     A
C487   C493    1.400   .     A
C488   C490    1.411   .     A
C488   C494    1.400   .     A
C489   C491    1.411   .     A
C489   C1012   1.391   .     S
C490   C492    1.411   .     A
C490   C1011   1.391   1_554 S
C493   H497    1.084   .     S
C493   C989    1.389   .     S
C494   H498    1.084   .     S
C494   C990    1.389   1_554 S
N499   Zn509   2.022   .     S
N500   Zn510   2.022   .     S
O501   Zn509   2.002   .     S
O502   Zn510   2.002   .     S
O503   Zn509   2.002   .     S
O504   Zn510   2.002   .     S
O505   Zn509   2.019   .     S
O506   Zn510   2.019   .     S
O507   Zn509   2.019   .     S
O508   Zn510   2.019   .     S
C523   O559    1.288   .     A
C523   O562    1.288   .     A
C523   C532    1.422   .     S
C524   O560    1.288   .     A
C524   C531    1.422   .     S
C524   O561    1.288   .     A
C525   H571    1.084   .     S
C525   C550    1.400   .     A
C526   C549    1.400   .     A
C526   H572    1.084   .     S
C526   C30     1.389   1_556 S
C527   C532    1.397   .     A
C527   H573    1.083   .     S
C527   C645    1.369   1_455 S
C528   C531    1.397   .     A
C528   H574    1.083   .     S
C528   C588    1.369   .     S
C529   C531    1.397   .     A
C529   H575    1.083   .     S
C529   C585    1.369   .     S
C530   C532    1.397   .     A
C530   H576    1.083   .     S
C530   C644    1.369   1_455 S
C533   Br577   1.921   .     S
C533   N558    1.372   .     A
C533   C884    1.422   1_545 S
C534   N557    1.372   .     A
C534   Br578   1.921   .     S
C534   C709    1.422   .     S
C535   Br579   1.921   .     S
C535   N558    1.372   .     A
C535   C882    1.422   1_545 S
C536   Br580   1.921   .     S
C536   N557    1.372   .     A
C536   C707    1.422   .     S
C537   O566    1.293   .     A
C537   C542    1.440   .     S
C537   O563    1.293   .     A
C538   O564    1.293   .     A
C538   O565    1.293   .     A
C538   C541    1.441   .     S
C539   C549    1.383   .     A
C539   C541    1.399   .     A
C539   H569    1.084   .     S
C540   H570    1.084   .     S
C540   C542    1.399   .     A
C540   C550    1.383   .     A
C541   C543    1.399   .     A
C542   C544    1.399   .     A
C543   H553    1.085   .     S
C543   C545    1.383   .     A
C544   H554    1.085   .     S
C544   C546    1.383   .     A
C545   C547    1.411   .     A
C545   C551    1.400   .     A
C546   C548    1.411   .     A
C546   C552    1.400   .     A
C547   C549    1.411   .     A
C547   C26     1.391   1_556 S
C548   C550    1.411   .     A
C551   H555    1.084   .     S
C551   C3      1.389   1_556 S
C552   H556    1.084   .     S
N557   Zn567   2.022   .     S
N558   Zn568   2.022   .     S
O559   Zn567   2.002   .     S
O560   Zn568   2.002   .     S
O561   Zn567   2.002   .     S
O562   Zn568   2.002   .     S
O563   Zn567   2.019   .     S
O564   Zn568   2.019   .     S
O565   Zn567   2.019   .     S
O566   Zn568   2.019   .     S
C581   O617    1.288   .     A
C581   O620    1.288   .     A
C581   C590    1.422   .     S
C582   O618    1.288   .     A
C582   C589    1.422   .     S
C582   O619    1.288   .     A
C583   H629    1.084   .     S
C583   C608    1.400   .     A
C584   C607    1.400   .     A
C584   H630    1.084   .     S
C584   C88     1.389   1_556 S
C585   C590    1.397   .     A
C585   H631    1.083   .     S
C586   C589    1.397   .     A
C586   H632    1.083   .     S
C586   C646    1.369   .     S
C587   C589    1.397   .     A
C587   H633    1.083   .     S
C587   C643    1.369   .     S
C588   C590    1.397   .     A
C588   H634    1.083   .     S
C591   Br635   1.921   .     S
C591   N616    1.372   .     A
C591   C942    1.422   1_545 S
C592   N615    1.372   .     A
C592   Br636   1.921   .     S
C592   C767    1.422   .     S
C593   Br637   1.921   .     S
C593   N616    1.372   .     A
C593   C940    1.422   1_545 S
C594   Br638   1.921   .     S
C594   N615    1.372   .     A
C594   C765    1.422   .     S
C595   O624    1.293   .     A
C595   C600    1.440   .     S
C595   O621    1.293   .     A
C596   O622    1.293   .     A
C596   O623    1.293   .     A
C596   C599    1.441   .     S
C597   C607    1.383   .     A
C597   C599    1.399   .     A
C597   H627    1.084   .     S
C598   H628    1.084   .     S
C598   C600    1.399   .     A
C598   C608    1.383   .     A
C599   C601    1.399   .     A
C600   C602    1.399   .     A
C601   H611    1.085   .     S
C601   C603    1.383   .     A
C602   H612    1.085   .     S
C602   C604    1.383   .     A
C603   C605    1.411   .     A
C603   C609    1.400   .     A
C604   C606    1.411   .     A
C604   C610    1.400   .     A
C605   C607    1.411   .     A
C605   C84     1.391   1_556 S
C606   C608    1.411   .     A
C609   H613    1.084   .     S
C609   C61     1.389   1_556 S
C610   H614    1.084   .     S
N615   Zn625   2.022   .     S
N616   Zn626   2.022   .     S
O617   Zn625   2.002   .     S
O618   Zn626   2.002   .     S
O619   Zn625   2.002   .     S
O620   Zn626   2.002   .     S
O621   Zn625   2.019   .     S
O622   Zn626   2.019   .     S
O623   Zn625   2.019   .     S
O624   Zn626   2.019   .     S
C639   O675    1.288   .     A
C639   O678    1.288   .     A
C639   C648    1.422   .     S
C640   O676    1.288   .     A
C640   C647    1.422   .     S
C640   O677    1.288   .     A
C641   H687    1.084   .     S
C641   C666    1.400   .     A
C642   C665    1.400   .     A
C642   H688    1.084   .     S
C642   C146    1.389   1_556 S
C643   C648    1.397   .     A
C643   H689    1.083   .     S
C644   C647    1.397   .     A
C644   H690    1.083   .     S
C644   C530    1.369   1_655 S
C645   C647    1.397   .     A
C645   H691    1.083   .     S
C645   C527    1.369   1_655 S
C646   C648    1.397   .     A
C646   H692    1.083   .     S
C649   Br693   1.921   .     S
C649   N674    1.372   .     A
C649   C1000   1.422   1_545 S
C650   N673    1.372   .     A
C650   Br694   1.921   .     S
C650   C825    1.422   .     S
C651   Br695   1.921   .     S
C651   N674    1.372   .     A
C651   C998    1.422   1_545 S
C652   Br696   1.921   .     S
C652   N673    1.372   .     A
C652   C823    1.422   .     S
C653   O682    1.293   .     A
C653   C658    1.440   .     S
C653   O679    1.293   .     A
C654   O680    1.293   .     A
C654   O681    1.293   .     A
C654   C657    1.441   .     S
C655   C665    1.383   .     A
C655   C657    1.399   .     A
C655   H685    1.084   .     S
C656   H686    1.084   .     S
C656   C658    1.399   .     A
C656   C666    1.383   .     A
C657   C659    1.399   .     A
C658   C660    1.399   .     A
C659   H669    1.085   .     S
C659   C661    1.383   .     A
C660   H670    1.085   .     S
C660   C662    1.383   .     A
C661   C663    1.411   .     A
C661   C667    1.400   .     A
C662   C664    1.411   .     A
C662   C668    1.400   .     A
C663   C665    1.411   .     A
C663   C142    1.391   1_556 S
C664   C666    1.411   .     A
C667   H671    1.084   .     S
C667   C119    1.389   1_556 S
C668   H672    1.084   .     S
N673   Zn683   2.022   .     S
N674   Zn684   2.022   .     S
O675   Zn683   2.002   .     S
O676   Zn684   2.002   .     S
O677   Zn683   2.002   .     S
O678   Zn684   2.002   .     S
O679   Zn683   2.019   .     S
O680   Zn684   2.019   .     S
O681   Zn683   2.019   .     S
O682   Zn684   2.019   .     S
C697   O733    1.288   .     A
C697   O736    1.288   .     A
C697   C706    1.422   .     S
C698   O734    1.288   .     A
C698   C705    1.422   .     S
C698   O735    1.288   .     A
C699   H745    1.084   .     S
C699   C724    1.400   .     A
C700   C723    1.400   .     A
C700   H746    1.084   .     S
C700   C204    1.389   1_556 S
C701   C706    1.397   .     A
C701   H747    1.083   .     S
C701   C819    1.369   1_455 S
C702   C705    1.397   .     A
C702   H748    1.083   .     S
C702   C762    1.369   .     S
C703   C705    1.397   .     A
C703   H749    1.083   .     S
C703   C759    1.369   .     S
C704   C706    1.397   .     A
C704   H750    1.083   .     S
C704   C818    1.369   1_455 S
C707   Br751   1.921   .     S
C707   N732    1.372   .     A
C708   N731    1.372   .     A
C708   Br752   1.921   .     S
C708   C883    1.422   .     S
C709   Br753   1.921   .     S
C709   N732    1.372   .     A
C710   Br754   1.921   .     S
C710   N731    1.372   .     A
C710   C881    1.422   .     S
C711   O740    1.293   .     A
C711   C716    1.440   .     S
C711   O737    1.293   .     A
C712   O738    1.293   .     A
C712   O739    1.293   .     A
C712   C715    1.441   .     S
C713   C723    1.383   .     A
C713   C715    1.399   .     A
C713   H743    1.084   .     S
C714   H744    1.084   .     S
C714   C716    1.399   .     A
C714   C724    1.383   .     A
C715   C717    1.399   .     A
C716   C718    1.399   .     A
C717   H727    1.085   .     S
C717   C719    1.383   .     A
C718   H728    1.085   .     S
C718   C720    1.383   .     A
C719   C721    1.411   .     A
C719   C725    1.400   .     A
C720   C722    1.411   .     A
C720   C726    1.400   .     A
C721   C723    1.411   .     A
C721   C200    1.391   1_556 S
C722   C724    1.411   .     A
C725   H729    1.084   .     S
C725   C177    1.389   1_556 S
C726   H730    1.084   .     S
N731   Zn741   2.022   .     S
N732   Zn742   2.022   .     S
O733   Zn741   2.002   .     S
O734   Zn742   2.002   .     S
O735   Zn741   2.002   .     S
O736   Zn742   2.002   .     S
O737   Zn741   2.019   .     S
O738   Zn742   2.019   .     S
O739   Zn741   2.019   .     S
O740   Zn742   2.019   .     S
C755   O791    1.288   .     A
C755   O794    1.288   .     A
C755   C764    1.422   .     S
C756   O792    1.288   .     A
C756   C763    1.422   .     S
C756   O793    1.288   .     A
C757   H803    1.084   .     S
C757   C782    1.400   .     A
C758   C781    1.400   .     A
C758   H804    1.084   .     S
C758   C262    1.389   1_556 S
C759   C764    1.397   .     A
C759   H805    1.083   .     S
C760   C763    1.397   .     A
C760   H806    1.083   .     S
C760   C820    1.369   .     S
C761   C763    1.397   .     A
C761   H807    1.083   .     S
C761   C817    1.369   .     S
C762   C764    1.397   .     A
C762   H808    1.083   .     S
C765   Br809   1.921   .     S
C765   N790    1.372   .     A
C766   N789    1.372   .     A
C766   Br810   1.921   .     S
C766   C941    1.422   .     S
C767   Br811   1.921   .     S
C767   N790    1.372   .     A
C768   Br812   1.921   .     S
C768   N789    1.372   .     A
C768   C939    1.422   .     S
C769   O798    1.293   .     A
C769   C774    1.440   .     S
C769   O795    1.293   .     A
C770   O796    1.293   .     A
C770   O797    1.293   .     A
C770   C773    1.441   .     S
C771   C781    1.383   .     A
C771   C773    1.399   .     A
C771   H801    1.084   .     S
C772   H802    1.084   .     S
C772   C774    1.399   .     A
C772   C782    1.383   .     A
C773   C775    1.399   .     A
C774   C776    1.399   .     A
C775   H785    1.085   .     S
C775   C777    1.383   .     A
C776   H786    1.085   .     S
C776   C778    1.383   .     A
C777   C779    1.411   .     A
C777   C783    1.400   .     A
C778   C780    1.411   .     A
C778   C784    1.400   .     A
C779   C781    1.411   .     A
C779   C258    1.391   1_556 S
C780   C782    1.411   .     A
C783   H787    1.084   .     S
C783   C235    1.389   1_556 S
C784   H788    1.084   .     S
N789   Zn799   2.022   .     S
N790   Zn800   2.022   .     S
O791   Zn799   2.002   .     S
O792   Zn800   2.002   .     S
O793   Zn799   2.002   .     S
O794   Zn800   2.002   .     S
O795   Zn799   2.019   .     S
O796   Zn800   2.019   .     S
O797   Zn799   2.019   .     S
O798   Zn800   2.019   .     S
C813   O849    1.288   .     A
C813   O852    1.288   .     A
C813   C822    1.422   .     S
C814   O850    1.288   .     A
C814   C821    1.422   .     S
C814   O851    1.288   .     A
C815   H861    1.084   .     S
C815   C840    1.400   .     A
C816   C839    1.400   .     A
C816   H862    1.084   .     S
C816   C320    1.389   1_556 S
C817   C822    1.397   .     A
C817   H863    1.083   .     S
C818   C821    1.397   .     A
C818   H864    1.083   .     S
C818   C704    1.369   1_655 S
C819   C821    1.397   .     A
C819   H865    1.083   .     S
C819   C701    1.369   1_655 S
C820   C822    1.397   .     A
C820   H866    1.083   .     S
C823   Br867   1.921   .     S
C823   N848    1.372   .     A
C824   N847    1.372   .     A
C824   Br868   1.921   .     S
C824   C999    1.422   .     S
C825   Br869   1.921   .     S
C825   N848    1.372   .     A
C826   Br870   1.921   .     S
C826   N847    1.372   .     A
C826   C997    1.422   .     S
C827   O856    1.293   .     A
C827   C832    1.440   .     S
C827   O853    1.293   .     A
C828   O854    1.293   .     A
C828   O855    1.293   .     A
C828   C831    1.441   .     S
C829   C839    1.383   .     A
C829   C831    1.399   .     A
C829   H859    1.084   .     S
C830   H860    1.084   .     S
C830   C832    1.399   .     A
C830   C840    1.383   .     A
C831   C833    1.399   .     A
C832   C834    1.399   .     A
C833   H843    1.085   .     S
C833   C835    1.383   .     A
C834   H844    1.085   .     S
C834   C836    1.383   .     A
C835   C837    1.411   .     A
C835   C841    1.400   .     A
C836   C838    1.411   .     A
C836   C842    1.400   .     A
C837   C839    1.411   .     A
C837   C316    1.391   1_556 S
C838   C840    1.411   .     A
C841   H845    1.084   .     S
C841   C293    1.389   1_556 S
C842   H846    1.084   .     S
N847   Zn857   2.022   .     S
N848   Zn858   2.022   .     S
O849   Zn857   2.002   .     S
O850   Zn858   2.002   .     S
O851   Zn857   2.002   .     S
O852   Zn858   2.002   .     S
O853   Zn857   2.019   .     S
O854   Zn858   2.019   .     S
O855   Zn857   2.019   .     S
O856   Zn858   2.019   .     S
C871   O907    1.288   .     A
C871   O910    1.288   .     A
C871   C880    1.422   .     S
C872   O908    1.288   .     A
C872   C879    1.422   .     S
C872   O909    1.288   .     A
C873   H919    1.084   .     S
C873   C898    1.400   .     A
C874   C897    1.400   .     A
C874   H920    1.084   .     S
C874   C378    1.389   1_556 S
C875   C880    1.397   .     A
C875   H921    1.083   .     S
C875   C993    1.369   1_455 S
C876   C879    1.397   .     A
C876   H922    1.083   .     S
C876   C936    1.369   .     S
C877   C879    1.397   .     A
C877   H923    1.083   .     S
C877   C933    1.369   .     S
C878   C880    1.397   .     A
C878   H924    1.083   .     S
C878   C992    1.369   1_455 S
C881   Br925   1.921   .     S
C881   N906    1.372   .     A
C882   N905    1.372   .     A
C882   Br926   1.921   .     S
C882   C535    1.422   1_565 S
C883   Br927   1.921   .     S
C883   N906    1.372   .     A
C884   Br928   1.921   .     S
C884   N905    1.372   .     A
C884   C533    1.422   1_565 S
C885   O914    1.293   .     A
C885   C890    1.440   .     S
C885   O911    1.293   .     A
C886   O912    1.293   .     A
C886   O913    1.293   .     A
C886   C889    1.441   .     S
C887   C897    1.383   .     A
C887   C889    1.399   .     A
C887   H917    1.084   .     S
C888   H918    1.084   .     S
C888   C890    1.399   .     A
C888   C898    1.383   .     A
C889   C891    1.399   .     A
C890   C892    1.399   .     A
C891   H901    1.085   .     S
C891   C893    1.383   .     A
C892   H902    1.085   .     S
C892   C894    1.383   .     A
C893   C895    1.411   .     A
C893   C899    1.400   .     A
C894   C896    1.411   .     A
C894   C900    1.400   .     A
C895   C897    1.411   .     A
C895   C374    1.391   1_556 S
C896   C898    1.411   .     A
C899   H903    1.084   .     S
C899   C351    1.389   1_556 S
C900   H904    1.084   .     S
N905   Zn915   2.022   .     S
N906   Zn916   2.022   .     S
O907   Zn915   2.002   .     S
O908   Zn916   2.002   .     S
O909   Zn915   2.002   .     S
O910   Zn916   2.002   .     S
O911   Zn915   2.019   .     S
O912   Zn916   2.019   .     S
O913   Zn915   2.019   .     S
O914   Zn916   2.019   .     S
C929   O965    1.288   .     A
C929   O968    1.288   .     A
C929   C938    1.422   .     S
C930   O966    1.288   .     A
C930   C937    1.422   .     S
C930   O967    1.288   .     A
C931   H977    1.084   .     S
C931   C956    1.400   .     A
C932   C955    1.400   .     A
C932   H978    1.084   .     S
C932   C436    1.389   1_556 S
C933   C938    1.397   .     A
C933   H979    1.083   .     S
C934   C937    1.397   .     A
C934   H980    1.083   .     S
C934   C994    1.369   .     S
C935   C937    1.397   .     A
C935   H981    1.083   .     S
C935   C991    1.369   .     S
C936   C938    1.397   .     A
C936   H982    1.083   .     S
C939   Br983   1.921   .     S
C939   N964    1.372   .     A
C940   N963    1.372   .     A
C940   Br984   1.921   .     S
C940   C593    1.422   1_565 S
C941   Br985   1.921   .     S
C941   N964    1.372   .     A
C942   Br986   1.921   .     S
C942   N963    1.372   .     A
C942   C591    1.422   1_565 S
C943   O972    1.293   .     A
C943   C948    1.440   .     S
C943   O969    1.293   .     A
C944   O970    1.293   .     A
C944   O971    1.293   .     A
C944   C947    1.441   .     S
C945   C955    1.383   .     A
C945   C947    1.399   .     A
C945   H975    1.084   .     S
C946   H976    1.084   .     S
C946   C948    1.399   .     A
C946   C956    1.383   .     A
C947   C949    1.399   .     A
C948   C950    1.399   .     A
C949   H959    1.085   .     S
C949   C951    1.383   .     A
C950   H960    1.085   .     S
C950   C952    1.383   .     A
C951   C953    1.411   .     A
C951   C957    1.400   .     A
C952   C954    1.411   .     A
C952   C958    1.400   .     A
C953   C955    1.411   .     A
C953   C432    1.391   1_556 S
C954   C956    1.411   .     A
C957   H961    1.084   .     S
C957   C409    1.389   1_556 S
C958   H962    1.084   .     S
N963   Zn973   2.022   .     S
N964   Zn974   2.022   .     S
O965   Zn973   2.002   .     S
O966   Zn974   2.002   .     S
O967   Zn973   2.002   .     S
O968   Zn974   2.002   .     S
O969   Zn973   2.019   .     S
O970   Zn974   2.019   .     S
O971   Zn973   2.019   .     S
O972   Zn974   2.019   .     S
C987   O1023   1.288   .     A
C987   O1026   1.288   .     A
C987   C996    1.422   .     S
C988   O1024   1.288   .     A
C988   C995    1.422   .     S
C988   O1025   1.288   .     A
C989   H1035   1.084   .     S
C989   C1014   1.400   .     A
C990   C1013   1.400   .     A
C990   H1036   1.084   .     S
C990   C494    1.389   1_556 S
C991   C996    1.397   .     A
C991   H1037   1.083   .     S
C992   C995    1.397   .     A
C992   H1038   1.083   .     S
C992   C878    1.369   1_655 S
C993   C995    1.397   .     A
C993   H1039   1.083   .     S
C993   C875    1.369   1_655 S
C994   C996    1.397   .     A
C994   H1040   1.083   .     S
C997   Br1041  1.921   .     S
C997   N1022   1.372   .     A
C998   N1021   1.372   .     A
C998   Br1042  1.921   .     S
C998   C651    1.422   1_565 S
C999   Br1043  1.921   .     S
C999   N1022   1.372   .     A
C1000  Br1044  1.921   .     S
C1000  N1021   1.372   .     A
C1000  C649    1.422   1_565 S
C1001  O1030   1.293   .     A
C1001  C1006   1.440   .     S
C1001  O1027   1.293   .     A
C1002  O1028   1.293   .     A
C1002  O1029   1.293   .     A
C1002  C1005   1.441   .     S
C1003  C1013   1.383   .     A
C1003  C1005   1.399   .     A
C1003  H1033   1.084   .     S
C1004  H1034   1.084   .     S
C1004  C1006   1.399   .     A
C1004  C1014   1.383   .     A
C1005  C1007   1.399   .     A
C1006  C1008   1.399   .     A
C1007  H1017   1.085   .     S
C1007  C1009   1.383   .     A
C1008  H1018   1.085   .     S
C1008  C1010   1.383   .     A
C1009  C1011   1.411   .     A
C1009  C1015   1.400   .     A
C1010  C1012   1.411   .     A
C1010  C1016   1.400   .     A
C1011  C1013   1.411   .     A
C1011  C490    1.391   1_556 S
C1012  C1014   1.411   .     A
C1015  H1019   1.084   .     S
C1015  C467    1.389   1_556 S
C1016  H1020   1.084   .     S
N1021  Zn1031  2.022   .     S
N1022  Zn1032  2.022   .     S
O1023  Zn1031  2.002   .     S
O1024  Zn1032  2.002   .     S
O1025  Zn1031  2.002   .     S
O1026  Zn1032  2.002   .     S
O1027  Zn1031  2.019   .     S
O1028  Zn1032  2.019   .     S
O1029  Zn1031  2.019   .     S
O1030  Zn1032  2.019   .     S
