data_str_m2_o10_o18_pcu_sym.19
_audit_creation_date              2020-01-03
_audit_creation_method            'Materials Studio'
_symmetry_space_group_name_H-M    'P1'
_symmetry_Int_Tables_number       1
_symmetry_cell_setting            triclinic
loop_
_symmetry_equiv_pos_as_xyz
  x,y,z
_cell_length_a                    22.3761
_cell_length_b                    26.3477
_cell_length_c                    31.4931
_cell_angle_alpha                 94.4642
_cell_angle_beta                  74.4513
_cell_angle_gamma                 102.9288
loop_
_atom_site_label
_atom_site_type_symbol
_atom_site_fract_x
_atom_site_fract_y
_atom_site_fract_z
_atom_site_U_iso_or_equiv
_atom_site_adp_type
_atom_site_occupancy
O1     O     0.12815   0.23809   0.24686   0.00000  Uiso   1.00
O2     O     0.20518   0.09524   0.25314   0.00000  Uiso   1.00
O3     O     0.22829   0.24753   0.25503   0.00000  Uiso   1.00
O4     O     0.10504   0.08580   0.24498   0.00000  Uiso   1.00
C5     C     0.18143   0.26642   0.25095   0.00000  Uiso   1.00
C6     C     0.15166   0.06701   0.24966   0.00000  Uiso   1.00
O7     O     0.08851   0.15930   0.30855   0.00000  Uiso   1.00
O8     O     0.24482   0.17403   0.19146   0.00000  Uiso   1.00
O9     O     0.18866   0.16874   0.31671   0.00000  Uiso   1.00
O10    O     0.14468   0.16460   0.18329   0.00000  Uiso   1.00
C11    C     0.12728   0.16101   0.33321   0.00000  Uiso   1.00
C12    C     0.20601   0.17126   0.16653   0.00000  Uiso   1.00
Cu13   Cu    0.10737   0.16108   0.24517   0.00000  Uiso   1.00
Cu14   Cu    0.22596   0.17225   0.25484   0.00000  Uiso   1.00
C15    C     0.10159   0.15020   0.38083   0.00000  Uiso   1.00
C16    C     0.23150   0.17757   0.11800   0.00000  Uiso   1.00
C17    C     0.02844   0.09803   0.44194   0.00000  Uiso   1.00
C18    C     0.30885   0.22024   0.05337   0.00000  Uiso   1.00
C19    C     0.04440   0.11417   0.39749   0.00000  Uiso   1.00
C20    C     0.29201   0.20796   0.09872   0.00000  Uiso   1.00
C21    C     0.14079   0.17086   0.40826   0.00000  Uiso   1.00
C22    C     0.19055   0.15708   0.09151   0.00000  Uiso   1.00
C23    C     0.12877   0.15337   0.45142   0.00000  Uiso   1.00
C24    C     0.20540   0.16844   0.04639   0.00000  Uiso   1.00
C25    C     0.07005   0.11867   0.46922   0.00000  Uiso   1.00
C26    C     0.26590   0.20008   0.02712   0.00000  Uiso   1.00
C27    C     0.17453   0.16877   0.47676   0.00000  Uiso   1.00
C28    C     0.16031   0.15123   0.02058   0.00000  Uiso   1.00
C29    C     0.10079   0.11805   0.03756   0.00000  Uiso   1.00
C30    C     0.23553   0.19895   0.45863   0.00000  Uiso   1.00
C31    C     0.05548   0.10400   0.01372   0.00000  Uiso   1.00
C32    C     0.28121   0.21225   0.48200   0.00000  Uiso   1.00
H33    H     0.14554   0.13393   0.10807   0.00000  Uiso   1.00
H34    H     0.18152   0.20041   0.39410   0.00000  Uiso   1.00
H35    H     0.08649   0.10216   0.07002   0.00000  Uiso   1.00
H36    H     0.25163   0.21121   0.42500   0.00000  Uiso   1.00
C37    C     0.19132   0.32169   0.24552   0.00000  Uiso   1.00
C38    C     0.14144   0.01233   0.25651   0.00000  Uiso   1.00
N39    N     0.31506   0.18068   0.26212   0.00000  Uiso   1.00
N40    N     0.01827   0.15265   0.23788   0.00000  Uiso   1.00
O41    O     0.33014   0.07648   0.03579   0.00000  Uiso   1.00
H42    H     0.29819   0.09431   0.03061   0.00000  Uiso   1.00
O43    O     0.00730   0.23738   0.45901   0.00000  Uiso   1.00
H44    H     0.03791   0.21833   0.46442   0.00000  Uiso   1.00
N45    N     0.33327   0.23003   0.12582   0.00000  Uiso   1.00
H46    H     0.01940   0.26912   0.12112   0.00000  Uiso   1.00
C47    C     0.04659   0.20041   0.12687   0.00000  Uiso   1.00
H48    H     0.08716   0.20806   0.09728   0.00000  Uiso   1.00
H49    H     0.02548   0.15804   0.12814   0.00000  Uiso   1.00
H50    H     0.06476   0.21242   0.15641   0.00000  Uiso   1.00
N51    N     0.00629   0.09137   0.36839   0.00000  Uiso   1.00
H52    H     0.32683   0.05132   0.36865   0.00000  Uiso   1.00
C53    C     0.28767   0.11602   0.36929   0.00000  Uiso   1.00
H54    H     0.24886   0.10596   0.39965   0.00000  Uiso   1.00
H55    H     0.26864   0.10245   0.34029   0.00000  Uiso   1.00
H56    H     0.30419   0.15893   0.36803   0.00000  Uiso   1.00
O57    O     0.30919   0.05920   0.45846   0.00000  Uiso   1.00
H58    H     0.28002   0.05266   0.43916   0.00000  Uiso   1.00
O59    O     0.03080   0.25553   0.03497   0.00000  Uiso   1.00
H60    H     0.06291   0.25662   0.05138   0.00000  Uiso   1.00
N61    N     0.25409   0.01632   0.22572   0.00000  Uiso   1.00
H62    H     0.28188   0.02623   0.24771   0.00000  Uiso   1.00
C63    C     0.28651   0.32843   0.18448   0.00000  Uiso   1.00
H64    H     0.32428   0.02602   0.16574   0.00000  Uiso   1.00
H65    H     0.25311   0.31249   0.16380   0.00000  Uiso   1.00
H66    H     0.30906   0.29757   0.19125   0.00000  Uiso   1.00
N67    N     0.07917   0.32133   0.28040   0.00000  Uiso   1.00
H68    H     0.05359   0.29375   0.26344   0.00000  Uiso   1.00
C69    C     0.07172   0.31172   0.32639   0.00000  Uiso   1.00
H70    H     0.02051   0.30110   0.34346   0.00000  Uiso   1.00
H71    H     0.09340   0.01398   0.34275   0.00000  Uiso   1.00
H72    H     0.09428   0.27928   0.32970   0.00000  Uiso   1.00
O73    O     0.00175   0.20602   0.29580   0.00000  Uiso   1.00
H74    H     0.29988   0.22263   0.31216   0.00000  Uiso   1.00
O75    O     0.32979   0.12442   0.20602   0.00000  Uiso   1.00
H76    H     0.03179   0.10797   0.18971   0.00000  Uiso   1.00
O77    O     0.46148   0.23809   0.24686   0.00000  Uiso   1.00
O78    O     0.53852   0.09524   0.25314   0.00000  Uiso   1.00
O79    O     0.56163   0.24753   0.25503   0.00000  Uiso   1.00
O80    O     0.43837   0.08580   0.24498   0.00000  Uiso   1.00
C81    C     0.51476   0.26642   0.25095   0.00000  Uiso   1.00
C82    C     0.48499   0.06701   0.24966   0.00000  Uiso   1.00
O83    O     0.42185   0.15930   0.30855   0.00000  Uiso   1.00
O84    O     0.57815   0.17403   0.19146   0.00000  Uiso   1.00
O85    O     0.52199   0.16874   0.31671   0.00000  Uiso   1.00
O86    O     0.47801   0.16460   0.18329   0.00000  Uiso   1.00
C87    C     0.46061   0.16101   0.33321   0.00000  Uiso   1.00
C88    C     0.53934   0.17126   0.16653   0.00000  Uiso   1.00
Cu89   Cu    0.44071   0.16108   0.24517   0.00000  Uiso   1.00
Cu90   Cu    0.55929   0.17225   0.25484   0.00000  Uiso   1.00
C91    C     0.43493   0.15020   0.38083   0.00000  Uiso   1.00
C92    C     0.56483   0.17757   0.11800   0.00000  Uiso   1.00
C93    C     0.36177   0.09803   0.44194   0.00000  Uiso   1.00
C94    C     0.64218   0.22024   0.05337   0.00000  Uiso   1.00
C95    C     0.37774   0.11417   0.39749   0.00000  Uiso   1.00
C96    C     0.62535   0.20796   0.09872   0.00000  Uiso   1.00
C97    C     0.47412   0.17086   0.40826   0.00000  Uiso   1.00
C98    C     0.52388   0.15708   0.09151   0.00000  Uiso   1.00
C99    C     0.46211   0.15337   0.45142   0.00000  Uiso   1.00
C100   C     0.53874   0.16844   0.04639   0.00000  Uiso   1.00
C101   C     0.40338   0.11867   0.46922   0.00000  Uiso   1.00
C102   C     0.59924   0.20008   0.02712   0.00000  Uiso   1.00
C103   C     0.50787   0.16877   0.47676   0.00000  Uiso   1.00
C104   C     0.49365   0.15123   0.02058   0.00000  Uiso   1.00
C105   C     0.43412   0.11805   0.03756   0.00000  Uiso   1.00
C106   C     0.56887   0.19895   0.45863   0.00000  Uiso   1.00
C107   C     0.38881   0.10400   0.01372   0.00000  Uiso   1.00
C108   C     0.61454   0.21225   0.48200   0.00000  Uiso   1.00
H109   H     0.47888   0.13393   0.10807   0.00000  Uiso   1.00
H110   H     0.51486   0.20041   0.39410   0.00000  Uiso   1.00
H111   H     0.41982   0.10216   0.07002   0.00000  Uiso   1.00
H112   H     0.58497   0.21121   0.42500   0.00000  Uiso   1.00
C113   C     0.52465   0.32169   0.24552   0.00000  Uiso   1.00
C114   C     0.47477   0.01233   0.25651   0.00000  Uiso   1.00
N115   N     0.64839   0.18068   0.26212   0.00000  Uiso   1.00
N116   N     0.35161   0.15265   0.23788   0.00000  Uiso   1.00
O117   O     0.66347   0.07648   0.03579   0.00000  Uiso   1.00
H118   H     0.63153   0.09431   0.03061   0.00000  Uiso   1.00
O119   O     0.34064   0.23738   0.45901   0.00000  Uiso   1.00
H120   H     0.37124   0.21833   0.46442   0.00000  Uiso   1.00
N121   N     0.66661   0.23003   0.12582   0.00000  Uiso   1.00
H122   H     0.35274   0.26912   0.12112   0.00000  Uiso   1.00
C123   C     0.37993   0.20041   0.12687   0.00000  Uiso   1.00
H124   H     0.42049   0.20806   0.09728   0.00000  Uiso   1.00
H125   H     0.35881   0.15804   0.12814   0.00000  Uiso   1.00
H126   H     0.39809   0.21242   0.15641   0.00000  Uiso   1.00
N127   N     0.33963   0.09137   0.36839   0.00000  Uiso   1.00
H128   H     0.66016   0.05132   0.36865   0.00000  Uiso   1.00
C129   C     0.62100   0.11602   0.36929   0.00000  Uiso   1.00
H130   H     0.58219   0.10596   0.39965   0.00000  Uiso   1.00
H131   H     0.60198   0.10245   0.34029   0.00000  Uiso   1.00
H132   H     0.63752   0.15893   0.36803   0.00000  Uiso   1.00
O133   O     0.64252   0.05920   0.45846   0.00000  Uiso   1.00
H134   H     0.61335   0.05266   0.43916   0.00000  Uiso   1.00
O135   O     0.36413   0.25553   0.03497   0.00000  Uiso   1.00
H136   H     0.39625   0.25662   0.05138   0.00000  Uiso   1.00
N137   N     0.58742   0.01632   0.22572   0.00000  Uiso   1.00
H138   H     0.61522   0.02623   0.24771   0.00000  Uiso   1.00
C139   C     0.61984   0.32843   0.18448   0.00000  Uiso   1.00
H140   H     0.65762   0.02602   0.16574   0.00000  Uiso   1.00
H141   H     0.58644   0.31249   0.16380   0.00000  Uiso   1.00
H142   H     0.64239   0.29757   0.19125   0.00000  Uiso   1.00
N143   N     0.41250   0.32133   0.28040   0.00000  Uiso   1.00
H144   H     0.38693   0.29375   0.26344   0.00000  Uiso   1.00
C145   C     0.40505   0.31172   0.32639   0.00000  Uiso   1.00
H146   H     0.35384   0.30110   0.34346   0.00000  Uiso   1.00
H147   H     0.42673   0.01398   0.34275   0.00000  Uiso   1.00
H148   H     0.42762   0.27928   0.32970   0.00000  Uiso   1.00
O149   O     0.33508   0.20602   0.29580   0.00000  Uiso   1.00
H150   H     0.63322   0.22263   0.31216   0.00000  Uiso   1.00
O151   O     0.66312   0.12442   0.20602   0.00000  Uiso   1.00
H152   H     0.36512   0.10797   0.18971   0.00000  Uiso   1.00
O153   O     0.79482   0.23809   0.24686   0.00000  Uiso   1.00
O154   O     0.87185   0.09524   0.25314   0.00000  Uiso   1.00
O155   O     0.89496   0.24753   0.25503   0.00000  Uiso   1.00
O156   O     0.77171   0.08580   0.24498   0.00000  Uiso   1.00
C157   C     0.84810   0.26642   0.25095   0.00000  Uiso   1.00
C158   C     0.81833   0.06701   0.24966   0.00000  Uiso   1.00
O159   O     0.75518   0.15930   0.30855   0.00000  Uiso   1.00
O160   O     0.91149   0.17403   0.19146   0.00000  Uiso   1.00
O161   O     0.85532   0.16874   0.31671   0.00000  Uiso   1.00
O162   O     0.81134   0.16460   0.18329   0.00000  Uiso   1.00
C163   C     0.79395   0.16101   0.33321   0.00000  Uiso   1.00
C164   C     0.87268   0.17126   0.16653   0.00000  Uiso   1.00
Cu165  Cu    0.77404   0.16108   0.24517   0.00000  Uiso   1.00
Cu166  Cu    0.89263   0.17225   0.25484   0.00000  Uiso   1.00
C167   C     0.76826   0.15020   0.38083   0.00000  Uiso   1.00
C168   C     0.89817   0.17757   0.11800   0.00000  Uiso   1.00
C169   C     0.69511   0.09803   0.44194   0.00000  Uiso   1.00
C170   C     0.97552   0.22024   0.05337   0.00000  Uiso   1.00
C171   C     0.71107   0.11417   0.39749   0.00000  Uiso   1.00
C172   C     0.95868   0.20796   0.09872   0.00000  Uiso   1.00
C173   C     0.80746   0.17086   0.40826   0.00000  Uiso   1.00
C174   C     0.85721   0.15708   0.09151   0.00000  Uiso   1.00
C175   C     0.79544   0.15337   0.45142   0.00000  Uiso   1.00
C176   C     0.87207   0.16844   0.04639   0.00000  Uiso   1.00
C177   C     0.73671   0.11867   0.46922   0.00000  Uiso   1.00
C178   C     0.93257   0.20008   0.02712   0.00000  Uiso   1.00
C179   C     0.84120   0.16877   0.47676   0.00000  Uiso   1.00
C180   C     0.82698   0.15123   0.02058   0.00000  Uiso   1.00
C181   C     0.76745   0.11805   0.03756   0.00000  Uiso   1.00
C182   C     0.90220   0.19895   0.45863   0.00000  Uiso   1.00
C183   C     0.72215   0.10400   0.01372   0.00000  Uiso   1.00
C184   C     0.94788   0.21225   0.48200   0.00000  Uiso   1.00
H185   H     0.81221   0.13393   0.10807   0.00000  Uiso   1.00
H186   H     0.84819   0.20041   0.39410   0.00000  Uiso   1.00
H187   H     0.75315   0.10216   0.07002   0.00000  Uiso   1.00
H188   H     0.91830   0.21121   0.42500   0.00000  Uiso   1.00
C189   C     0.85799   0.32169   0.24552   0.00000  Uiso   1.00
C190   C     0.80810   0.01233   0.25651   0.00000  Uiso   1.00
N191   N     0.98173   0.18068   0.26212   0.00000  Uiso   1.00
N192   N     0.68494   0.15265   0.23788   0.00000  Uiso   1.00
O193   O     0.99680   0.07648   0.03579   0.00000  Uiso   1.00
H194   H     0.96486   0.09431   0.03061   0.00000  Uiso   1.00
O195   O     0.67397   0.23738   0.45901   0.00000  Uiso   1.00
H196   H     0.70458   0.21833   0.46442   0.00000  Uiso   1.00
N197   N     0.99994   0.23003   0.12582   0.00000  Uiso   1.00
H198   H     0.68607   0.26912   0.12112   0.00000  Uiso   1.00
C199   C     0.71326   0.20041   0.12687   0.00000  Uiso   1.00
H200   H     0.75382   0.20806   0.09728   0.00000  Uiso   1.00
H201   H     0.69215   0.15804   0.12814   0.00000  Uiso   1.00
H202   H     0.73142   0.21242   0.15641   0.00000  Uiso   1.00
N203   N     0.67296   0.09137   0.36839   0.00000  Uiso   1.00
H204   H     0.99350   0.05132   0.36865   0.00000  Uiso   1.00
C205   C     0.95434   0.11602   0.36929   0.00000  Uiso   1.00
H206   H     0.91552   0.10596   0.39965   0.00000  Uiso   1.00
H207   H     0.93531   0.10245   0.34029   0.00000  Uiso   1.00
H208   H     0.97086   0.15893   0.36803   0.00000  Uiso   1.00
O209   O     0.97586   0.05920   0.45846   0.00000  Uiso   1.00
H210   H     0.94668   0.05266   0.43916   0.00000  Uiso   1.00
O211   O     0.69746   0.25553   0.03497   0.00000  Uiso   1.00
H212   H     0.72958   0.25662   0.05138   0.00000  Uiso   1.00
N213   N     0.92076   0.01632   0.22572   0.00000  Uiso   1.00
H214   H     0.94855   0.02623   0.24771   0.00000  Uiso   1.00
C215   C     0.95318   0.32843   0.18448   0.00000  Uiso   1.00
H216   H     0.99095   0.02602   0.16574   0.00000  Uiso   1.00
H217   H     0.91978   0.31249   0.16380   0.00000  Uiso   1.00
H218   H     0.97572   0.29757   0.19125   0.00000  Uiso   1.00
N219   N     0.74584   0.32133   0.28040   0.00000  Uiso   1.00
H220   H     0.72026   0.29375   0.26344   0.00000  Uiso   1.00
C221   C     0.73838   0.31172   0.32639   0.00000  Uiso   1.00
H222   H     0.68717   0.30110   0.34346   0.00000  Uiso   1.00
H223   H     0.76006   0.01398   0.34275   0.00000  Uiso   1.00
H224   H     0.76095   0.27928   0.32970   0.00000  Uiso   1.00
O225   O     0.66841   0.20602   0.29580   0.00000  Uiso   1.00
H226   H     0.96655   0.22263   0.31216   0.00000  Uiso   1.00
O227   O     0.99646   0.12442   0.20602   0.00000  Uiso   1.00
H228   H     0.69845   0.10797   0.18971   0.00000  Uiso   1.00
O229   O     0.12815   0.57142   0.24686   0.00000  Uiso   1.00
O230   O     0.20518   0.42858   0.25314   0.00000  Uiso   1.00
O231   O     0.22829   0.58086   0.25503   0.00000  Uiso   1.00
O232   O     0.10504   0.41914   0.24498   0.00000  Uiso   1.00
C233   C     0.18143   0.59976   0.25095   0.00000  Uiso   1.00
C234   C     0.15166   0.40034   0.24966   0.00000  Uiso   1.00
O235   O     0.08851   0.49263   0.30855   0.00000  Uiso   1.00
O236   O     0.24482   0.50737   0.19146   0.00000  Uiso   1.00
O237   O     0.18866   0.50207   0.31671   0.00000  Uiso   1.00
O238   O     0.14468   0.49793   0.18329   0.00000  Uiso   1.00
C239   C     0.12728   0.49435   0.33321   0.00000  Uiso   1.00
C240   C     0.20601   0.50459   0.16653   0.00000  Uiso   1.00
Cu241  Cu    0.10737   0.49441   0.24517   0.00000  Uiso   1.00
Cu242  Cu    0.22596   0.50559   0.25484   0.00000  Uiso   1.00
C243   C     0.10159   0.48354   0.38083   0.00000  Uiso   1.00
C244   C     0.23150   0.51091   0.11800   0.00000  Uiso   1.00
C245   C     0.02844   0.43136   0.44194   0.00000  Uiso   1.00
C246   C     0.30885   0.55357   0.05337   0.00000  Uiso   1.00
C247   C     0.04440   0.44750   0.39749   0.00000  Uiso   1.00
C248   C     0.29201   0.54130   0.09872   0.00000  Uiso   1.00
C249   C     0.14079   0.50419   0.40826   0.00000  Uiso   1.00
C250   C     0.19055   0.49041   0.09151   0.00000  Uiso   1.00
C251   C     0.12877   0.48670   0.45142   0.00000  Uiso   1.00
C252   C     0.20540   0.50178   0.04639   0.00000  Uiso   1.00
C253   C     0.07005   0.45200   0.46922   0.00000  Uiso   1.00
C254   C     0.26590   0.53341   0.02712   0.00000  Uiso   1.00
C255   C     0.17453   0.50210   0.47676   0.00000  Uiso   1.00
C256   C     0.16031   0.48456   0.02058   0.00000  Uiso   1.00
C257   C     0.10079   0.45138   0.03756   0.00000  Uiso   1.00
C258   C     0.23553   0.53228   0.45863   0.00000  Uiso   1.00
C259   C     0.05548   0.43734   0.01372   0.00000  Uiso   1.00
C260   C     0.28121   0.54558   0.48200   0.00000  Uiso   1.00
H261   H     0.14554   0.46727   0.10807   0.00000  Uiso   1.00
H262   H     0.18152   0.53375   0.39410   0.00000  Uiso   1.00
H263   H     0.08649   0.43549   0.07002   0.00000  Uiso   1.00
H264   H     0.25163   0.54455   0.42500   0.00000  Uiso   1.00
C265   C     0.19132   0.65502   0.24552   0.00000  Uiso   1.00
C266   C     0.14144   0.34566   0.25651   0.00000  Uiso   1.00
N267   N     0.31506   0.51401   0.26212   0.00000  Uiso   1.00
N268   N     0.01827   0.48599   0.23788   0.00000  Uiso   1.00
O269   O     0.33014   0.40981   0.03579   0.00000  Uiso   1.00
H270   H     0.29819   0.42764   0.03061   0.00000  Uiso   1.00
O271   O     0.00730   0.57072   0.45901   0.00000  Uiso   1.00
H272   H     0.03791   0.55167   0.46442   0.00000  Uiso   1.00
N273   N     0.33327   0.56336   0.12582   0.00000  Uiso   1.00
H274   H     0.01940   0.60246   0.12112   0.00000  Uiso   1.00
C275   C     0.04659   0.53374   0.12687   0.00000  Uiso   1.00
H276   H     0.08716   0.54139   0.09728   0.00000  Uiso   1.00
H277   H     0.02548   0.49137   0.12814   0.00000  Uiso   1.00
H278   H     0.06476   0.54575   0.15641   0.00000  Uiso   1.00
N279   N     0.00629   0.42470   0.36839   0.00000  Uiso   1.00
H280   H     0.32683   0.38466   0.36865   0.00000  Uiso   1.00
C281   C     0.28767   0.44936   0.36929   0.00000  Uiso   1.00
H282   H     0.24886   0.43929   0.39965   0.00000  Uiso   1.00
H283   H     0.26864   0.43578   0.34029   0.00000  Uiso   1.00
H284   H     0.30419   0.49226   0.36803   0.00000  Uiso   1.00
O285   O     0.30919   0.39253   0.45846   0.00000  Uiso   1.00
H286   H     0.28002   0.38599   0.43916   0.00000  Uiso   1.00
O287   O     0.03080   0.58887   0.03497   0.00000  Uiso   1.00
H288   H     0.06291   0.58995   0.05138   0.00000  Uiso   1.00
N289   N     0.25409   0.34965   0.22572   0.00000  Uiso   1.00
H290   H     0.28188   0.35956   0.24771   0.00000  Uiso   1.00
C291   C     0.28651   0.66176   0.18448   0.00000  Uiso   1.00
H292   H     0.32428   0.35935   0.16574   0.00000  Uiso   1.00
H293   H     0.25311   0.64582   0.16380   0.00000  Uiso   1.00
H294   H     0.30906   0.63090   0.19125   0.00000  Uiso   1.00
N295   N     0.07917   0.65466   0.28040   0.00000  Uiso   1.00
H296   H     0.05359   0.62709   0.26344   0.00000  Uiso   1.00
C297   C     0.07172   0.64505   0.32639   0.00000  Uiso   1.00
H298   H     0.02051   0.63443   0.34346   0.00000  Uiso   1.00
H299   H     0.09340   0.34731   0.34275   0.00000  Uiso   1.00
H300   H     0.09428   0.61261   0.32970   0.00000  Uiso   1.00
O301   O     0.00175   0.53935   0.29580   0.00000  Uiso   1.00
H302   H     0.29988   0.55596   0.31216   0.00000  Uiso   1.00
O303   O     0.32979   0.45776   0.20602   0.00000  Uiso   1.00
H304   H     0.03179   0.44130   0.18971   0.00000  Uiso   1.00
O305   O     0.46148   0.57142   0.24686   0.00000  Uiso   1.00
O306   O     0.53852   0.42858   0.25314   0.00000  Uiso   1.00
O307   O     0.56163   0.58086   0.25503   0.00000  Uiso   1.00
O308   O     0.43837   0.41914   0.24498   0.00000  Uiso   1.00
C309   C     0.51476   0.59976   0.25095   0.00000  Uiso   1.00
C310   C     0.48499   0.40034   0.24966   0.00000  Uiso   1.00
O311   O     0.42185   0.49263   0.30855   0.00000  Uiso   1.00
O312   O     0.57815   0.50737   0.19146   0.00000  Uiso   1.00
O313   O     0.52199   0.50207   0.31671   0.00000  Uiso   1.00
O314   O     0.47801   0.49793   0.18329   0.00000  Uiso   1.00
C315   C     0.46061   0.49435   0.33321   0.00000  Uiso   1.00
C316   C     0.53934   0.50459   0.16653   0.00000  Uiso   1.00
Cu317  Cu    0.44071   0.49441   0.24517   0.00000  Uiso   1.00
Cu318  Cu    0.55929   0.50559   0.25484   0.00000  Uiso   1.00
C319   C     0.43493   0.48354   0.38083   0.00000  Uiso   1.00
C320   C     0.56483   0.51091   0.11800   0.00000  Uiso   1.00
C321   C     0.36177   0.43136   0.44194   0.00000  Uiso   1.00
C322   C     0.64218   0.55357   0.05337   0.00000  Uiso   1.00
C323   C     0.37774   0.44750   0.39749   0.00000  Uiso   1.00
C324   C     0.62535   0.54130   0.09872   0.00000  Uiso   1.00
C325   C     0.47412   0.50419   0.40826   0.00000  Uiso   1.00
C326   C     0.52388   0.49041   0.09151   0.00000  Uiso   1.00
C327   C     0.46211   0.48670   0.45142   0.00000  Uiso   1.00
C328   C     0.53874   0.50178   0.04639   0.00000  Uiso   1.00
C329   C     0.40338   0.45200   0.46922   0.00000  Uiso   1.00
C330   C     0.59924   0.53341   0.02712   0.00000  Uiso   1.00
C331   C     0.50787   0.50210   0.47676   0.00000  Uiso   1.00
C332   C     0.49365   0.48456   0.02058   0.00000  Uiso   1.00
C333   C     0.43412   0.45138   0.03756   0.00000  Uiso   1.00
C334   C     0.56887   0.53228   0.45863   0.00000  Uiso   1.00
C335   C     0.38881   0.43734   0.01372   0.00000  Uiso   1.00
C336   C     0.61454   0.54558   0.48200   0.00000  Uiso   1.00
H337   H     0.47888   0.46727   0.10807   0.00000  Uiso   1.00
H338   H     0.51486   0.53375   0.39410   0.00000  Uiso   1.00
H339   H     0.41982   0.43549   0.07002   0.00000  Uiso   1.00
H340   H     0.58497   0.54455   0.42500   0.00000  Uiso   1.00
C341   C     0.52465   0.65502   0.24552   0.00000  Uiso   1.00
C342   C     0.47477   0.34566   0.25651   0.00000  Uiso   1.00
N343   N     0.64839   0.51401   0.26212   0.00000  Uiso   1.00
N344   N     0.35161   0.48599   0.23788   0.00000  Uiso   1.00
O345   O     0.66347   0.40981   0.03579   0.00000  Uiso   1.00
H346   H     0.63153   0.42764   0.03061   0.00000  Uiso   1.00
O347   O     0.34064   0.57072   0.45901   0.00000  Uiso   1.00
H348   H     0.37124   0.55167   0.46442   0.00000  Uiso   1.00
N349   N     0.66661   0.56336   0.12582   0.00000  Uiso   1.00
H350   H     0.35274   0.60246   0.12112   0.00000  Uiso   1.00
C351   C     0.37993   0.53374   0.12687   0.00000  Uiso   1.00
H352   H     0.42049   0.54139   0.09728   0.00000  Uiso   1.00
H353   H     0.35881   0.49137   0.12814   0.00000  Uiso   1.00
H354   H     0.39809   0.54575   0.15641   0.00000  Uiso   1.00
N355   N     0.33963   0.42470   0.36839   0.00000  Uiso   1.00
H356   H     0.66016   0.38466   0.36865   0.00000  Uiso   1.00
C357   C     0.62100   0.44936   0.36929   0.00000  Uiso   1.00
H358   H     0.58219   0.43929   0.39965   0.00000  Uiso   1.00
H359   H     0.60198   0.43578   0.34029   0.00000  Uiso   1.00
H360   H     0.63752   0.49226   0.36803   0.00000  Uiso   1.00
O361   O     0.64252   0.39253   0.45846   0.00000  Uiso   1.00
H362   H     0.61335   0.38599   0.43916   0.00000  Uiso   1.00
O363   O     0.36413   0.58887   0.03497   0.00000  Uiso   1.00
H364   H     0.39625   0.58995   0.05138   0.00000  Uiso   1.00
N365   N     0.58742   0.34965   0.22572   0.00000  Uiso   1.00
H366   H     0.61522   0.35956   0.24771   0.00000  Uiso   1.00
C367   C     0.61984   0.66176   0.18448   0.00000  Uiso   1.00
H368   H     0.65762   0.35935   0.16574   0.00000  Uiso   1.00
H369   H     0.58644   0.64582   0.16380   0.00000  Uiso   1.00
H370   H     0.64239   0.63090   0.19125   0.00000  Uiso   1.00
N371   N     0.41250   0.65466   0.28040   0.00000  Uiso   1.00
H372   H     0.38693   0.62709   0.26344   0.00000  Uiso   1.00
C373   C     0.40505   0.64505   0.32639   0.00000  Uiso   1.00
H374   H     0.35384   0.63443   0.34346   0.00000  Uiso   1.00
H375   H     0.42673   0.34731   0.34275   0.00000  Uiso   1.00
H376   H     0.42762   0.61261   0.32970   0.00000  Uiso   1.00
O377   O     0.33508   0.53935   0.29580   0.00000  Uiso   1.00
H378   H     0.63322   0.55596   0.31216   0.00000  Uiso   1.00
O379   O     0.66312   0.45776   0.20602   0.00000  Uiso   1.00
H380   H     0.36512   0.44130   0.18971   0.00000  Uiso   1.00
O381   O     0.79482   0.57142   0.24686   0.00000  Uiso   1.00
O382   O     0.87185   0.42858   0.25314   0.00000  Uiso   1.00
O383   O     0.89496   0.58086   0.25503   0.00000  Uiso   1.00
O384   O     0.77171   0.41914   0.24498   0.00000  Uiso   1.00
C385   C     0.84810   0.59976   0.25095   0.00000  Uiso   1.00
C386   C     0.81833   0.40034   0.24966   0.00000  Uiso   1.00
O387   O     0.75518   0.49263   0.30855   0.00000  Uiso   1.00
O388   O     0.91149   0.50737   0.19146   0.00000  Uiso   1.00
O389   O     0.85532   0.50207   0.31671   0.00000  Uiso   1.00
O390   O     0.81134   0.49793   0.18329   0.00000  Uiso   1.00
C391   C     0.79395   0.49435   0.33321   0.00000  Uiso   1.00
C392   C     0.87268   0.50459   0.16653   0.00000  Uiso   1.00
Cu393  Cu    0.77404   0.49441   0.24517   0.00000  Uiso   1.00
Cu394  Cu    0.89263   0.50559   0.25484   0.00000  Uiso   1.00
C395   C     0.76826   0.48354   0.38083   0.00000  Uiso   1.00
C396   C     0.89817   0.51091   0.11800   0.00000  Uiso   1.00
C397   C     0.69511   0.43136   0.44194   0.00000  Uiso   1.00
C398   C     0.97552   0.55357   0.05337   0.00000  Uiso   1.00
C399   C     0.71107   0.44750   0.39749   0.00000  Uiso   1.00
C400   C     0.95868   0.54130   0.09872   0.00000  Uiso   1.00
C401   C     0.80746   0.50419   0.40826   0.00000  Uiso   1.00
C402   C     0.85721   0.49041   0.09151   0.00000  Uiso   1.00
C403   C     0.79544   0.48670   0.45142   0.00000  Uiso   1.00
C404   C     0.87207   0.50178   0.04639   0.00000  Uiso   1.00
C405   C     0.73671   0.45200   0.46922   0.00000  Uiso   1.00
C406   C     0.93257   0.53341   0.02712   0.00000  Uiso   1.00
C407   C     0.84120   0.50210   0.47676   0.00000  Uiso   1.00
C408   C     0.82698   0.48456   0.02058   0.00000  Uiso   1.00
C409   C     0.76745   0.45138   0.03756   0.00000  Uiso   1.00
C410   C     0.90220   0.53228   0.45863   0.00000  Uiso   1.00
C411   C     0.72215   0.43734   0.01372   0.00000  Uiso   1.00
C412   C     0.94788   0.54558   0.48200   0.00000  Uiso   1.00
H413   H     0.81221   0.46727   0.10807   0.00000  Uiso   1.00
H414   H     0.84819   0.53375   0.39410   0.00000  Uiso   1.00
H415   H     0.75315   0.43549   0.07002   0.00000  Uiso   1.00
H416   H     0.91830   0.54455   0.42500   0.00000  Uiso   1.00
C417   C     0.85799   0.65502   0.24552   0.00000  Uiso   1.00
C418   C     0.80810   0.34566   0.25651   0.00000  Uiso   1.00
N419   N     0.98173   0.51401   0.26212   0.00000  Uiso   1.00
N420   N     0.68494   0.48599   0.23788   0.00000  Uiso   1.00
O421   O     0.99680   0.40981   0.03579   0.00000  Uiso   1.00
H422   H     0.96486   0.42764   0.03061   0.00000  Uiso   1.00
O423   O     0.67397   0.57072   0.45901   0.00000  Uiso   1.00
H424   H     0.70458   0.55167   0.46442   0.00000  Uiso   1.00
N425   N     0.99994   0.56336   0.12582   0.00000  Uiso   1.00
H426   H     0.68607   0.60246   0.12112   0.00000  Uiso   1.00
C427   C     0.71326   0.53374   0.12687   0.00000  Uiso   1.00
H428   H     0.75382   0.54139   0.09728   0.00000  Uiso   1.00
H429   H     0.69215   0.49137   0.12814   0.00000  Uiso   1.00
H430   H     0.73142   0.54575   0.15641   0.00000  Uiso   1.00
N431   N     0.67296   0.42470   0.36839   0.00000  Uiso   1.00
H432   H     0.99350   0.38466   0.36865   0.00000  Uiso   1.00
C433   C     0.95434   0.44936   0.36929   0.00000  Uiso   1.00
H434   H     0.91552   0.43929   0.39965   0.00000  Uiso   1.00
H435   H     0.93531   0.43578   0.34029   0.00000  Uiso   1.00
H436   H     0.97086   0.49226   0.36803   0.00000  Uiso   1.00
O437   O     0.97586   0.39253   0.45846   0.00000  Uiso   1.00
H438   H     0.94668   0.38599   0.43916   0.00000  Uiso   1.00
O439   O     0.69746   0.58887   0.03497   0.00000  Uiso   1.00
H440   H     0.72958   0.58995   0.05138   0.00000  Uiso   1.00
N441   N     0.92076   0.34965   0.22572   0.00000  Uiso   1.00
H442   H     0.94855   0.35956   0.24771   0.00000  Uiso   1.00
C443   C     0.95318   0.66176   0.18448   0.00000  Uiso   1.00
H444   H     0.99095   0.35935   0.16574   0.00000  Uiso   1.00
H445   H     0.91978   0.64582   0.16380   0.00000  Uiso   1.00
H446   H     0.97572   0.63090   0.19125   0.00000  Uiso   1.00
N447   N     0.74584   0.65466   0.28040   0.00000  Uiso   1.00
H448   H     0.72026   0.62709   0.26344   0.00000  Uiso   1.00
C449   C     0.73838   0.64505   0.32639   0.00000  Uiso   1.00
H450   H     0.68717   0.63443   0.34346   0.00000  Uiso   1.00
H451   H     0.76006   0.34731   0.34275   0.00000  Uiso   1.00
H452   H     0.76095   0.61261   0.32970   0.00000  Uiso   1.00
O453   O     0.66841   0.53935   0.29580   0.00000  Uiso   1.00
H454   H     0.96655   0.55596   0.31216   0.00000  Uiso   1.00
O455   O     0.99646   0.45776   0.20602   0.00000  Uiso   1.00
H456   H     0.69845   0.44130   0.18971   0.00000  Uiso   1.00
O457   O     0.12815   0.90476   0.24686   0.00000  Uiso   1.00
O458   O     0.20518   0.76191   0.25314   0.00000  Uiso   1.00
O459   O     0.22829   0.91420   0.25503   0.00000  Uiso   1.00
O460   O     0.10504   0.75247   0.24498   0.00000  Uiso   1.00
C461   C     0.18143   0.93309   0.25095   0.00000  Uiso   1.00
C462   C     0.15166   0.73367   0.24966   0.00000  Uiso   1.00
O463   O     0.08851   0.82597   0.30855   0.00000  Uiso   1.00
O464   O     0.24482   0.84070   0.19146   0.00000  Uiso   1.00
O465   O     0.18866   0.83540   0.31671   0.00000  Uiso   1.00
O466   O     0.14468   0.83126   0.18329   0.00000  Uiso   1.00
C467   C     0.12728   0.82768   0.33321   0.00000  Uiso   1.00
C468   C     0.20601   0.83792   0.16653   0.00000  Uiso   1.00
Cu469  Cu    0.10737   0.82775   0.24517   0.00000  Uiso   1.00
Cu470  Cu    0.22596   0.83892   0.25484   0.00000  Uiso   1.00
C471   C     0.10159   0.81687   0.38083   0.00000  Uiso   1.00
C472   C     0.23150   0.84424   0.11800   0.00000  Uiso   1.00
C473   C     0.02844   0.76470   0.44194   0.00000  Uiso   1.00
C474   C     0.30885   0.88690   0.05337   0.00000  Uiso   1.00
C475   C     0.04440   0.78083   0.39749   0.00000  Uiso   1.00
C476   C     0.29201   0.87463   0.09872   0.00000  Uiso   1.00
C477   C     0.14079   0.83752   0.40826   0.00000  Uiso   1.00
C478   C     0.19055   0.82375   0.09151   0.00000  Uiso   1.00
C479   C     0.12877   0.82003   0.45142   0.00000  Uiso   1.00
C480   C     0.20540   0.83511   0.04639   0.00000  Uiso   1.00
C481   C     0.07005   0.78534   0.46922   0.00000  Uiso   1.00
C482   C     0.26590   0.86674   0.02712   0.00000  Uiso   1.00
C483   C     0.17453   0.83543   0.47676   0.00000  Uiso   1.00
C484   C     0.16031   0.81790   0.02058   0.00000  Uiso   1.00
C485   C     0.10079   0.78472   0.03756   0.00000  Uiso   1.00
C486   C     0.23553   0.86561   0.45863   0.00000  Uiso   1.00
C487   C     0.05548   0.77067   0.01372   0.00000  Uiso   1.00
C488   C     0.28121   0.87891   0.48200   0.00000  Uiso   1.00
H489   H     0.14554   0.80060   0.10807   0.00000  Uiso   1.00
H490   H     0.18152   0.86708   0.39410   0.00000  Uiso   1.00
H491   H     0.08649   0.76882   0.07002   0.00000  Uiso   1.00
H492   H     0.25163   0.87788   0.42500   0.00000  Uiso   1.00
C493   C     0.19132   0.98835   0.24552   0.00000  Uiso   1.00
C494   C     0.14144   0.67899   0.25651   0.00000  Uiso   1.00
N495   N     0.31506   0.84735   0.26212   0.00000  Uiso   1.00
N496   N     0.01827   0.81932   0.23788   0.00000  Uiso   1.00
O497   O     0.33014   0.74314   0.03579   0.00000  Uiso   1.00
H498   H     0.29819   0.76097   0.03061   0.00000  Uiso   1.00
O499   O     0.00730   0.90405   0.45901   0.00000  Uiso   1.00
H500   H     0.03791   0.88500   0.46442   0.00000  Uiso   1.00
N501   N     0.33327   0.89669   0.12582   0.00000  Uiso   1.00
H502   H     0.01940   0.93579   0.12112   0.00000  Uiso   1.00
C503   C     0.04659   0.86707   0.12687   0.00000  Uiso   1.00
H504   H     0.08716   0.87472   0.09728   0.00000  Uiso   1.00
H505   H     0.02548   0.82470   0.12814   0.00000  Uiso   1.00
H506   H     0.06476   0.87908   0.15641   0.00000  Uiso   1.00
N507   N     0.00629   0.75803   0.36839   0.00000  Uiso   1.00
H508   H     0.32683   0.71799   0.36865   0.00000  Uiso   1.00
C509   C     0.28767   0.78269   0.36929   0.00000  Uiso   1.00
H510   H     0.24886   0.77263   0.39965   0.00000  Uiso   1.00
H511   H     0.26864   0.76912   0.34029   0.00000  Uiso   1.00
H512   H     0.30419   0.82559   0.36803   0.00000  Uiso   1.00
O513   O     0.30919   0.72587   0.45846   0.00000  Uiso   1.00
H514   H     0.28002   0.71933   0.43916   0.00000  Uiso   1.00
O515   O     0.03080   0.92220   0.03497   0.00000  Uiso   1.00
H516   H     0.06291   0.92329   0.05138   0.00000  Uiso   1.00
N517   N     0.25409   0.68299   0.22572   0.00000  Uiso   1.00
H518   H     0.28188   0.69289   0.24771   0.00000  Uiso   1.00
C519   C     0.28651   0.99509   0.18448   0.00000  Uiso   1.00
H520   H     0.32428   0.69269   0.16574   0.00000  Uiso   1.00
H521   H     0.25311   0.97915   0.16380   0.00000  Uiso   1.00
H522   H     0.30906   0.96424   0.19125   0.00000  Uiso   1.00
N523   N     0.07917   0.98799   0.28040   0.00000  Uiso   1.00
H524   H     0.05359   0.96042   0.26344   0.00000  Uiso   1.00
C525   C     0.07172   0.97838   0.32639   0.00000  Uiso   1.00
H526   H     0.02051   0.96777   0.34346   0.00000  Uiso   1.00
H527   H     0.09340   0.68065   0.34275   0.00000  Uiso   1.00
H528   H     0.09428   0.94594   0.32970   0.00000  Uiso   1.00
O529   O     0.00175   0.87269   0.29580   0.00000  Uiso   1.00
H530   H     0.29988   0.88929   0.31216   0.00000  Uiso   1.00
O531   O     0.32979   0.79109   0.20602   0.00000  Uiso   1.00
H532   H     0.03179   0.77464   0.18971   0.00000  Uiso   1.00
O533   O     0.46148   0.90476   0.24686   0.00000  Uiso   1.00
O534   O     0.53852   0.76191   0.25314   0.00000  Uiso   1.00
O535   O     0.56163   0.91420   0.25503   0.00000  Uiso   1.00
O536   O     0.43837   0.75247   0.24498   0.00000  Uiso   1.00
C537   C     0.51476   0.93309   0.25095   0.00000  Uiso   1.00
C538   C     0.48499   0.73367   0.24966   0.00000  Uiso   1.00
O539   O     0.42185   0.82597   0.30855   0.00000  Uiso   1.00
O540   O     0.57815   0.84070   0.19146   0.00000  Uiso   1.00
O541   O     0.52199   0.83540   0.31671   0.00000  Uiso   1.00
O542   O     0.47801   0.83126   0.18329   0.00000  Uiso   1.00
C543   C     0.46061   0.82768   0.33321   0.00000  Uiso   1.00
C544   C     0.53934   0.83792   0.16653   0.00000  Uiso   1.00
Cu545  Cu    0.44071   0.82775   0.24517   0.00000  Uiso   1.00
Cu546  Cu    0.55929   0.83892   0.25484   0.00000  Uiso   1.00
C547   C     0.43493   0.81687   0.38083   0.00000  Uiso   1.00
C548   C     0.56483   0.84424   0.11800   0.00000  Uiso   1.00
C549   C     0.36177   0.76470   0.44194   0.00000  Uiso   1.00
C550   C     0.64218   0.88690   0.05337   0.00000  Uiso   1.00
C551   C     0.37774   0.78083   0.39749   0.00000  Uiso   1.00
C552   C     0.62535   0.87463   0.09872   0.00000  Uiso   1.00
C553   C     0.47412   0.83752   0.40826   0.00000  Uiso   1.00
C554   C     0.52388   0.82375   0.09151   0.00000  Uiso   1.00
C555   C     0.46211   0.82003   0.45142   0.00000  Uiso   1.00
C556   C     0.53874   0.83511   0.04639   0.00000  Uiso   1.00
C557   C     0.40338   0.78534   0.46922   0.00000  Uiso   1.00
C558   C     0.59924   0.86674   0.02712   0.00000  Uiso   1.00
C559   C     0.50787   0.83543   0.47676   0.00000  Uiso   1.00
C560   C     0.49365   0.81790   0.02058   0.00000  Uiso   1.00
C561   C     0.43412   0.78472   0.03756   0.00000  Uiso   1.00
C562   C     0.56887   0.86561   0.45863   0.00000  Uiso   1.00
C563   C     0.38881   0.77067   0.01372   0.00000  Uiso   1.00
C564   C     0.61454   0.87891   0.48200   0.00000  Uiso   1.00
H565   H     0.47888   0.80060   0.10807   0.00000  Uiso   1.00
H566   H     0.51486   0.86708   0.39410   0.00000  Uiso   1.00
H567   H     0.41982   0.76882   0.07002   0.00000  Uiso   1.00
H568   H     0.58497   0.87788   0.42500   0.00000  Uiso   1.00
C569   C     0.52465   0.98835   0.24552   0.00000  Uiso   1.00
C570   C     0.47477   0.67899   0.25651   0.00000  Uiso   1.00
N571   N     0.64839   0.84735   0.26212   0.00000  Uiso   1.00
N572   N     0.35161   0.81932   0.23788   0.00000  Uiso   1.00
O573   O     0.66347   0.74314   0.03579   0.00000  Uiso   1.00
H574   H     0.63153   0.76097   0.03061   0.00000  Uiso   1.00
O575   O     0.34064   0.90405   0.45901   0.00000  Uiso   1.00
H576   H     0.37124   0.88500   0.46442   0.00000  Uiso   1.00
N577   N     0.66661   0.89669   0.12582   0.00000  Uiso   1.00
H578   H     0.35274   0.93579   0.12112   0.00000  Uiso   1.00
C579   C     0.37993   0.86707   0.12687   0.00000  Uiso   1.00
H580   H     0.42049   0.87472   0.09728   0.00000  Uiso   1.00
H581   H     0.35881   0.82470   0.12814   0.00000  Uiso   1.00
H582   H     0.39809   0.87908   0.15641   0.00000  Uiso   1.00
N583   N     0.33963   0.75803   0.36839   0.00000  Uiso   1.00
H584   H     0.66016   0.71799   0.36865   0.00000  Uiso   1.00
C585   C     0.62100   0.78269   0.36929   0.00000  Uiso   1.00
H586   H     0.58219   0.77263   0.39965   0.00000  Uiso   1.00
H587   H     0.60198   0.76912   0.34029   0.00000  Uiso   1.00
H588   H     0.63752   0.82559   0.36803   0.00000  Uiso   1.00
O589   O     0.64252   0.72587   0.45846   0.00000  Uiso   1.00
H590   H     0.61335   0.71933   0.43916   0.00000  Uiso   1.00
O591   O     0.36413   0.92220   0.03497   0.00000  Uiso   1.00
H592   H     0.39625   0.92329   0.05138   0.00000  Uiso   1.00
N593   N     0.58742   0.68299   0.22572   0.00000  Uiso   1.00
H594   H     0.61522   0.69289   0.24771   0.00000  Uiso   1.00
C595   C     0.61984   0.99509   0.18448   0.00000  Uiso   1.00
H596   H     0.65762   0.69269   0.16574   0.00000  Uiso   1.00
H597   H     0.58644   0.97915   0.16380   0.00000  Uiso   1.00
H598   H     0.64239   0.96424   0.19125   0.00000  Uiso   1.00
N599   N     0.41250   0.98799   0.28040   0.00000  Uiso   1.00
H600   H     0.38693   0.96042   0.26344   0.00000  Uiso   1.00
C601   C     0.40505   0.97838   0.32639   0.00000  Uiso   1.00
H602   H     0.35384   0.96777   0.34346   0.00000  Uiso   1.00
H603   H     0.42673   0.68065   0.34275   0.00000  Uiso   1.00
H604   H     0.42762   0.94594   0.32970   0.00000  Uiso   1.00
O605   O     0.33508   0.87269   0.29580   0.00000  Uiso   1.00
H606   H     0.63322   0.88929   0.31216   0.00000  Uiso   1.00
O607   O     0.66312   0.79109   0.20602   0.00000  Uiso   1.00
H608   H     0.36512   0.77464   0.18971   0.00000  Uiso   1.00
O609   O     0.79482   0.90476   0.24686   0.00000  Uiso   1.00
O610   O     0.87185   0.76191   0.25314   0.00000  Uiso   1.00
O611   O     0.89496   0.91420   0.25503   0.00000  Uiso   1.00
O612   O     0.77171   0.75247   0.24498   0.00000  Uiso   1.00
C613   C     0.84810   0.93309   0.25095   0.00000  Uiso   1.00
C614   C     0.81833   0.73367   0.24966   0.00000  Uiso   1.00
O615   O     0.75518   0.82597   0.30855   0.00000  Uiso   1.00
O616   O     0.91149   0.84070   0.19146   0.00000  Uiso   1.00
O617   O     0.85532   0.83540   0.31671   0.00000  Uiso   1.00
O618   O     0.81134   0.83126   0.18329   0.00000  Uiso   1.00
C619   C     0.79395   0.82768   0.33321   0.00000  Uiso   1.00
C620   C     0.87268   0.83792   0.16653   0.00000  Uiso   1.00
Cu621  Cu    0.77404   0.82775   0.24517   0.00000  Uiso   1.00
Cu622  Cu    0.89263   0.83892   0.25484   0.00000  Uiso   1.00
C623   C     0.76826   0.81687   0.38083   0.00000  Uiso   1.00
C624   C     0.89817   0.84424   0.11800   0.00000  Uiso   1.00
C625   C     0.69511   0.76470   0.44194   0.00000  Uiso   1.00
C626   C     0.97552   0.88690   0.05337   0.00000  Uiso   1.00
C627   C     0.71107   0.78083   0.39749   0.00000  Uiso   1.00
C628   C     0.95868   0.87463   0.09872   0.00000  Uiso   1.00
C629   C     0.80746   0.83752   0.40826   0.00000  Uiso   1.00
C630   C     0.85721   0.82375   0.09151   0.00000  Uiso   1.00
C631   C     0.79544   0.82003   0.45142   0.00000  Uiso   1.00
C632   C     0.87207   0.83511   0.04639   0.00000  Uiso   1.00
C633   C     0.73671   0.78534   0.46922   0.00000  Uiso   1.00
C634   C     0.93257   0.86674   0.02712   0.00000  Uiso   1.00
C635   C     0.84120   0.83543   0.47676   0.00000  Uiso   1.00
C636   C     0.82698   0.81790   0.02058   0.00000  Uiso   1.00
C637   C     0.76745   0.78472   0.03756   0.00000  Uiso   1.00
C638   C     0.90220   0.86561   0.45863   0.00000  Uiso   1.00
C639   C     0.72215   0.77067   0.01372   0.00000  Uiso   1.00
C640   C     0.94788   0.87891   0.48200   0.00000  Uiso   1.00
H641   H     0.81221   0.80060   0.10807   0.00000  Uiso   1.00
H642   H     0.84819   0.86708   0.39410   0.00000  Uiso   1.00
H643   H     0.75315   0.76882   0.07002   0.00000  Uiso   1.00
H644   H     0.91830   0.87788   0.42500   0.00000  Uiso   1.00
C645   C     0.85799   0.98835   0.24552   0.00000  Uiso   1.00
C646   C     0.80810   0.67899   0.25651   0.00000  Uiso   1.00
N647   N     0.98173   0.84735   0.26212   0.00000  Uiso   1.00
N648   N     0.68494   0.81932   0.23788   0.00000  Uiso   1.00
O649   O     0.99680   0.74314   0.03579   0.00000  Uiso   1.00
H650   H     0.96486   0.76097   0.03061   0.00000  Uiso   1.00
O651   O     0.67397   0.90405   0.45901   0.00000  Uiso   1.00
H652   H     0.70458   0.88500   0.46442   0.00000  Uiso   1.00
N653   N     0.99994   0.89669   0.12582   0.00000  Uiso   1.00
H654   H     0.68607   0.93579   0.12112   0.00000  Uiso   1.00
C655   C     0.71326   0.86707   0.12687   0.00000  Uiso   1.00
H656   H     0.75382   0.87472   0.09728   0.00000  Uiso   1.00
H657   H     0.69215   0.82470   0.12814   0.00000  Uiso   1.00
H658   H     0.73142   0.87908   0.15641   0.00000  Uiso   1.00
N659   N     0.67296   0.75803   0.36839   0.00000  Uiso   1.00
H660   H     0.99350   0.71799   0.36865   0.00000  Uiso   1.00
C661   C     0.95434   0.78269   0.36929   0.00000  Uiso   1.00
H662   H     0.91552   0.77263   0.39965   0.00000  Uiso   1.00
H663   H     0.93531   0.76912   0.34029   0.00000  Uiso   1.00
H664   H     0.97086   0.82559   0.36803   0.00000  Uiso   1.00
O665   O     0.97586   0.72587   0.45846   0.00000  Uiso   1.00
H666   H     0.94668   0.71933   0.43916   0.00000  Uiso   1.00
O667   O     0.69746   0.92220   0.03497   0.00000  Uiso   1.00
H668   H     0.72958   0.92329   0.05138   0.00000  Uiso   1.00
N669   N     0.92076   0.68299   0.22572   0.00000  Uiso   1.00
H670   H     0.94855   0.69289   0.24771   0.00000  Uiso   1.00
C671   C     0.95318   0.99509   0.18448   0.00000  Uiso   1.00
H672   H     0.99095   0.69269   0.16574   0.00000  Uiso   1.00
H673   H     0.91978   0.97915   0.16380   0.00000  Uiso   1.00
H674   H     0.97572   0.96424   0.19125   0.00000  Uiso   1.00
N675   N     0.74584   0.98799   0.28040   0.00000  Uiso   1.00
H676   H     0.72026   0.96042   0.26344   0.00000  Uiso   1.00
C677   C     0.73838   0.97838   0.32639   0.00000  Uiso   1.00
H678   H     0.68717   0.96777   0.34346   0.00000  Uiso   1.00
H679   H     0.76006   0.68065   0.34275   0.00000  Uiso   1.00
H680   H     0.76095   0.94594   0.32970   0.00000  Uiso   1.00
O681   O     0.66841   0.87269   0.29580   0.00000  Uiso   1.00
H682   H     0.96655   0.88929   0.31216   0.00000  Uiso   1.00
O683   O     0.99646   0.79109   0.20602   0.00000  Uiso   1.00
H684   H     0.69845   0.77464   0.18971   0.00000  Uiso   1.00
O685   O     0.12815   0.23809   0.74686   0.00000  Uiso   1.00
O686   O     0.20518   0.09524   0.75314   0.00000  Uiso   1.00
O687   O     0.22829   0.24753   0.75503   0.00000  Uiso   1.00
O688   O     0.10504   0.08580   0.74498   0.00000  Uiso   1.00
C689   C     0.18143   0.26642   0.75095   0.00000  Uiso   1.00
C690   C     0.15166   0.06701   0.74966   0.00000  Uiso   1.00
O691   O     0.08851   0.15930   0.80855   0.00000  Uiso   1.00
O692   O     0.24482   0.17403   0.69146   0.00000  Uiso   1.00
O693   O     0.18866   0.16874   0.81671   0.00000  Uiso   1.00
O694   O     0.14468   0.16460   0.68329   0.00000  Uiso   1.00
C695   C     0.12728   0.16101   0.83321   0.00000  Uiso   1.00
C696   C     0.20601   0.17126   0.66653   0.00000  Uiso   1.00
Cu697  Cu    0.10737   0.16108   0.74517   0.00000  Uiso   1.00
Cu698  Cu    0.22596   0.17225   0.75484   0.00000  Uiso   1.00
C699   C     0.10159   0.15020   0.88083   0.00000  Uiso   1.00
C700   C     0.23150   0.17757   0.61800   0.00000  Uiso   1.00
C701   C     0.02844   0.09803   0.94194   0.00000  Uiso   1.00
C702   C     0.30885   0.22024   0.55337   0.00000  Uiso   1.00
C703   C     0.04440   0.11417   0.89749   0.00000  Uiso   1.00
C704   C     0.29201   0.20796   0.59872   0.00000  Uiso   1.00
C705   C     0.14079   0.17086   0.90826   0.00000  Uiso   1.00
C706   C     0.19055   0.15708   0.59151   0.00000  Uiso   1.00
C707   C     0.12877   0.15337   0.95142   0.00000  Uiso   1.00
C708   C     0.20540   0.16844   0.54639   0.00000  Uiso   1.00
C709   C     0.07005   0.11867   0.96922   0.00000  Uiso   1.00
C710   C     0.26590   0.20008   0.52712   0.00000  Uiso   1.00
C711   C     0.17453   0.16877   0.97676   0.00000  Uiso   1.00
C712   C     0.16031   0.15123   0.52058   0.00000  Uiso   1.00
C713   C     0.10079   0.11805   0.53756   0.00000  Uiso   1.00
C714   C     0.23553   0.19895   0.95863   0.00000  Uiso   1.00
C715   C     0.05548   0.10400   0.51372   0.00000  Uiso   1.00
C716   C     0.28121   0.21225   0.98200   0.00000  Uiso   1.00
H717   H     0.14554   0.13393   0.60807   0.00000  Uiso   1.00
H718   H     0.18152   0.20041   0.89410   0.00000  Uiso   1.00
H719   H     0.08649   0.10216   0.57002   0.00000  Uiso   1.00
H720   H     0.25163   0.21121   0.92500   0.00000  Uiso   1.00
C721   C     0.19132   0.32169   0.74552   0.00000  Uiso   1.00
C722   C     0.14144   0.01233   0.75651   0.00000  Uiso   1.00
N723   N     0.31506   0.18068   0.76212   0.00000  Uiso   1.00
N724   N     0.01827   0.15265   0.73788   0.00000  Uiso   1.00
O725   O     0.33014   0.07648   0.53579   0.00000  Uiso   1.00
H726   H     0.29819   0.09431   0.53061   0.00000  Uiso   1.00
O727   O     0.00730   0.23738   0.95901   0.00000  Uiso   1.00
H728   H     0.03791   0.21833   0.96442   0.00000  Uiso   1.00
N729   N     0.33327   0.23003   0.62582   0.00000  Uiso   1.00
H730   H     0.01940   0.26912   0.62112   0.00000  Uiso   1.00
C731   C     0.04659   0.20041   0.62687   0.00000  Uiso   1.00
H732   H     0.08716   0.20806   0.59728   0.00000  Uiso   1.00
H733   H     0.02548   0.15804   0.62814   0.00000  Uiso   1.00
H734   H     0.06476   0.21242   0.65641   0.00000  Uiso   1.00
N735   N     0.00629   0.09137   0.86839   0.00000  Uiso   1.00
H736   H     0.32683   0.05132   0.86865   0.00000  Uiso   1.00
C737   C     0.28767   0.11602   0.86929   0.00000  Uiso   1.00
H738   H     0.24886   0.10596   0.89965   0.00000  Uiso   1.00
H739   H     0.26864   0.10245   0.84029   0.00000  Uiso   1.00
H740   H     0.30419   0.15893   0.86803   0.00000  Uiso   1.00
O741   O     0.30919   0.05920   0.95846   0.00000  Uiso   1.00
H742   H     0.28002   0.05266   0.93916   0.00000  Uiso   1.00
O743   O     0.03080   0.25553   0.53497   0.00000  Uiso   1.00
H744   H     0.06291   0.25662   0.55138   0.00000  Uiso   1.00
N745   N     0.25409   0.01632   0.72572   0.00000  Uiso   1.00
H746   H     0.28188   0.02623   0.74771   0.00000  Uiso   1.00
C747   C     0.28651   0.32843   0.68448   0.00000  Uiso   1.00
H748   H     0.32428   0.02602   0.66574   0.00000  Uiso   1.00
H749   H     0.25311   0.31249   0.66380   0.00000  Uiso   1.00
H750   H     0.30906   0.29757   0.69125   0.00000  Uiso   1.00
N751   N     0.07917   0.32133   0.78040   0.00000  Uiso   1.00
H752   H     0.05359   0.29375   0.76344   0.00000  Uiso   1.00
C753   C     0.07172   0.31172   0.82639   0.00000  Uiso   1.00
H754   H     0.02051   0.30110   0.84346   0.00000  Uiso   1.00
H755   H     0.09340   0.01398   0.84275   0.00000  Uiso   1.00
H756   H     0.09428   0.27928   0.82970   0.00000  Uiso   1.00
O757   O     0.00175   0.20602   0.79580   0.00000  Uiso   1.00
H758   H     0.29988   0.22263   0.81216   0.00000  Uiso   1.00
O759   O     0.32979   0.12442   0.70602   0.00000  Uiso   1.00
H760   H     0.03179   0.10797   0.68971   0.00000  Uiso   1.00
O761   O     0.46148   0.23809   0.74686   0.00000  Uiso   1.00
O762   O     0.53852   0.09524   0.75314   0.00000  Uiso   1.00
O763   O     0.56163   0.24753   0.75503   0.00000  Uiso   1.00
O764   O     0.43837   0.08580   0.74498   0.00000  Uiso   1.00
C765   C     0.51476   0.26642   0.75095   0.00000  Uiso   1.00
C766   C     0.48499   0.06701   0.74966   0.00000  Uiso   1.00
O767   O     0.42185   0.15930   0.80855   0.00000  Uiso   1.00
O768   O     0.57815   0.17403   0.69146   0.00000  Uiso   1.00
O769   O     0.52199   0.16874   0.81671   0.00000  Uiso   1.00
O770   O     0.47801   0.16460   0.68329   0.00000  Uiso   1.00
C771   C     0.46061   0.16101   0.83321   0.00000  Uiso   1.00
C772   C     0.53934   0.17126   0.66653   0.00000  Uiso   1.00
Cu773  Cu    0.44071   0.16108   0.74517   0.00000  Uiso   1.00
Cu774  Cu    0.55929   0.17225   0.75484   0.00000  Uiso   1.00
C775   C     0.43493   0.15020   0.88083   0.00000  Uiso   1.00
C776   C     0.56483   0.17757   0.61800   0.00000  Uiso   1.00
C777   C     0.36177   0.09803   0.94194   0.00000  Uiso   1.00
C778   C     0.64218   0.22024   0.55337   0.00000  Uiso   1.00
C779   C     0.37774   0.11417   0.89749   0.00000  Uiso   1.00
C780   C     0.62535   0.20796   0.59872   0.00000  Uiso   1.00
C781   C     0.47412   0.17086   0.90826   0.00000  Uiso   1.00
C782   C     0.52388   0.15708   0.59151   0.00000  Uiso   1.00
C783   C     0.46211   0.15337   0.95142   0.00000  Uiso   1.00
C784   C     0.53874   0.16844   0.54639   0.00000  Uiso   1.00
C785   C     0.40338   0.11867   0.96922   0.00000  Uiso   1.00
C786   C     0.59924   0.20008   0.52712   0.00000  Uiso   1.00
C787   C     0.50787   0.16877   0.97676   0.00000  Uiso   1.00
C788   C     0.49365   0.15123   0.52058   0.00000  Uiso   1.00
C789   C     0.43412   0.11805   0.53756   0.00000  Uiso   1.00
C790   C     0.56887   0.19895   0.95863   0.00000  Uiso   1.00
C791   C     0.38881   0.10400   0.51372   0.00000  Uiso   1.00
C792   C     0.61454   0.21225   0.98200   0.00000  Uiso   1.00
H793   H     0.47888   0.13393   0.60807   0.00000  Uiso   1.00
H794   H     0.51486   0.20041   0.89410   0.00000  Uiso   1.00
H795   H     0.41982   0.10216   0.57002   0.00000  Uiso   1.00
H796   H     0.58497   0.21121   0.92500   0.00000  Uiso   1.00
C797   C     0.52465   0.32169   0.74552   0.00000  Uiso   1.00
C798   C     0.47477   0.01233   0.75651   0.00000  Uiso   1.00
N799   N     0.64839   0.18068   0.76212   0.00000  Uiso   1.00
N800   N     0.35161   0.15265   0.73788   0.00000  Uiso   1.00
O801   O     0.66347   0.07648   0.53579   0.00000  Uiso   1.00
H802   H     0.63153   0.09431   0.53061   0.00000  Uiso   1.00
O803   O     0.34064   0.23738   0.95901   0.00000  Uiso   1.00
H804   H     0.37124   0.21833   0.96442   0.00000  Uiso   1.00
N805   N     0.66661   0.23003   0.62582   0.00000  Uiso   1.00
H806   H     0.35274   0.26912   0.62112   0.00000  Uiso   1.00
C807   C     0.37993   0.20041   0.62687   0.00000  Uiso   1.00
H808   H     0.42049   0.20806   0.59728   0.00000  Uiso   1.00
H809   H     0.35881   0.15804   0.62814   0.00000  Uiso   1.00
H810   H     0.39809   0.21242   0.65641   0.00000  Uiso   1.00
N811   N     0.33963   0.09137   0.86839   0.00000  Uiso   1.00
H812   H     0.66016   0.05132   0.86865   0.00000  Uiso   1.00
C813   C     0.62100   0.11602   0.86929   0.00000  Uiso   1.00
H814   H     0.58219   0.10596   0.89965   0.00000  Uiso   1.00
H815   H     0.60198   0.10245   0.84029   0.00000  Uiso   1.00
H816   H     0.63752   0.15893   0.86803   0.00000  Uiso   1.00
O817   O     0.64252   0.05920   0.95846   0.00000  Uiso   1.00
H818   H     0.61335   0.05266   0.93916   0.00000  Uiso   1.00
O819   O     0.36413   0.25553   0.53497   0.00000  Uiso   1.00
H820   H     0.39625   0.25662   0.55138   0.00000  Uiso   1.00
N821   N     0.58742   0.01632   0.72572   0.00000  Uiso   1.00
H822   H     0.61522   0.02623   0.74771   0.00000  Uiso   1.00
C823   C     0.61984   0.32843   0.68448   0.00000  Uiso   1.00
H824   H     0.65762   0.02602   0.66574   0.00000  Uiso   1.00
H825   H     0.58644   0.31249   0.66380   0.00000  Uiso   1.00
H826   H     0.64239   0.29757   0.69125   0.00000  Uiso   1.00
N827   N     0.41250   0.32133   0.78040   0.00000  Uiso   1.00
H828   H     0.38693   0.29375   0.76344   0.00000  Uiso   1.00
C829   C     0.40505   0.31172   0.82639   0.00000  Uiso   1.00
H830   H     0.35384   0.30110   0.84346   0.00000  Uiso   1.00
H831   H     0.42673   0.01398   0.84275   0.00000  Uiso   1.00
H832   H     0.42762   0.27928   0.82970   0.00000  Uiso   1.00
O833   O     0.33508   0.20602   0.79580   0.00000  Uiso   1.00
H834   H     0.63322   0.22263   0.81216   0.00000  Uiso   1.00
O835   O     0.66312   0.12442   0.70602   0.00000  Uiso   1.00
H836   H     0.36512   0.10797   0.68971   0.00000  Uiso   1.00
O837   O     0.79482   0.23809   0.74686   0.00000  Uiso   1.00
O838   O     0.87185   0.09524   0.75314   0.00000  Uiso   1.00
O839   O     0.89496   0.24753   0.75503   0.00000  Uiso   1.00
O840   O     0.77171   0.08580   0.74498   0.00000  Uiso   1.00
C841   C     0.84810   0.26642   0.75095   0.00000  Uiso   1.00
C842   C     0.81833   0.06701   0.74966   0.00000  Uiso   1.00
O843   O     0.75518   0.15930   0.80855   0.00000  Uiso   1.00
O844   O     0.91149   0.17403   0.69146   0.00000  Uiso   1.00
O845   O     0.85532   0.16874   0.81671   0.00000  Uiso   1.00
O846   O     0.81134   0.16460   0.68329   0.00000  Uiso   1.00
C847   C     0.79395   0.16101   0.83321   0.00000  Uiso   1.00
C848   C     0.87268   0.17126   0.66653   0.00000  Uiso   1.00
Cu849  Cu    0.77404   0.16108   0.74517   0.00000  Uiso   1.00
Cu850  Cu    0.89263   0.17225   0.75484   0.00000  Uiso   1.00
C851   C     0.76826   0.15020   0.88083   0.00000  Uiso   1.00
C852   C     0.89817   0.17757   0.61800   0.00000  Uiso   1.00
C853   C     0.69511   0.09803   0.94194   0.00000  Uiso   1.00
C854   C     0.97552   0.22024   0.55337   0.00000  Uiso   1.00
C855   C     0.71107   0.11417   0.89749   0.00000  Uiso   1.00
C856   C     0.95868   0.20796   0.59872   0.00000  Uiso   1.00
C857   C     0.80746   0.17086   0.90826   0.00000  Uiso   1.00
C858   C     0.85721   0.15708   0.59151   0.00000  Uiso   1.00
C859   C     0.79544   0.15337   0.95142   0.00000  Uiso   1.00
C860   C     0.87207   0.16844   0.54639   0.00000  Uiso   1.00
C861   C     0.73671   0.11867   0.96922   0.00000  Uiso   1.00
C862   C     0.93257   0.20008   0.52712   0.00000  Uiso   1.00
C863   C     0.84120   0.16877   0.97676   0.00000  Uiso   1.00
C864   C     0.82698   0.15123   0.52058   0.00000  Uiso   1.00
C865   C     0.76745   0.11805   0.53756   0.00000  Uiso   1.00
C866   C     0.90220   0.19895   0.95863   0.00000  Uiso   1.00
C867   C     0.72215   0.10400   0.51372   0.00000  Uiso   1.00
C868   C     0.94788   0.21225   0.98200   0.00000  Uiso   1.00
H869   H     0.81221   0.13393   0.60807   0.00000  Uiso   1.00
H870   H     0.84819   0.20041   0.89410   0.00000  Uiso   1.00
H871   H     0.75315   0.10216   0.57002   0.00000  Uiso   1.00
H872   H     0.91830   0.21121   0.92500   0.00000  Uiso   1.00
C873   C     0.85799   0.32169   0.74552   0.00000  Uiso   1.00
C874   C     0.80810   0.01233   0.75651   0.00000  Uiso   1.00
N875   N     0.98173   0.18068   0.76212   0.00000  Uiso   1.00
N876   N     0.68494   0.15265   0.73788   0.00000  Uiso   1.00
O877   O     0.99680   0.07648   0.53579   0.00000  Uiso   1.00
H878   H     0.96486   0.09431   0.53061   0.00000  Uiso   1.00
O879   O     0.67397   0.23738   0.95901   0.00000  Uiso   1.00
H880   H     0.70458   0.21833   0.96442   0.00000  Uiso   1.00
N881   N     0.99994   0.23003   0.62582   0.00000  Uiso   1.00
H882   H     0.68607   0.26912   0.62112   0.00000  Uiso   1.00
C883   C     0.71326   0.20041   0.62687   0.00000  Uiso   1.00
H884   H     0.75382   0.20806   0.59728   0.00000  Uiso   1.00
H885   H     0.69215   0.15804   0.62814   0.00000  Uiso   1.00
H886   H     0.73142   0.21242   0.65641   0.00000  Uiso   1.00
N887   N     0.67296   0.09137   0.86839   0.00000  Uiso   1.00
H888   H     0.99350   0.05132   0.86865   0.00000  Uiso   1.00
C889   C     0.95434   0.11602   0.86929   0.00000  Uiso   1.00
H890   H     0.91552   0.10596   0.89965   0.00000  Uiso   1.00
H891   H     0.93531   0.10245   0.84029   0.00000  Uiso   1.00
H892   H     0.97086   0.15893   0.86803   0.00000  Uiso   1.00
O893   O     0.97586   0.05920   0.95846   0.00000  Uiso   1.00
H894   H     0.94668   0.05266   0.93916   0.00000  Uiso   1.00
O895   O     0.69746   0.25553   0.53497   0.00000  Uiso   1.00
H896   H     0.72958   0.25662   0.55138   0.00000  Uiso   1.00
N897   N     0.92076   0.01632   0.72572   0.00000  Uiso   1.00
H898   H     0.94855   0.02623   0.74771   0.00000  Uiso   1.00
C899   C     0.95318   0.32843   0.68448   0.00000  Uiso   1.00
H900   H     0.99095   0.02602   0.66574   0.00000  Uiso   1.00
H901   H     0.91978   0.31249   0.66380   0.00000  Uiso   1.00
H902   H     0.97572   0.29757   0.69125   0.00000  Uiso   1.00
N903   N     0.74584   0.32133   0.78040   0.00000  Uiso   1.00
H904   H     0.72026   0.29375   0.76344   0.00000  Uiso   1.00
C905   C     0.73838   0.31172   0.82639   0.00000  Uiso   1.00
H906   H     0.68717   0.30110   0.84346   0.00000  Uiso   1.00
H907   H     0.76006   0.01398   0.84275   0.00000  Uiso   1.00
H908   H     0.76095   0.27928   0.82970   0.00000  Uiso   1.00
O909   O     0.66841   0.20602   0.79580   0.00000  Uiso   1.00
H910   H     0.96655   0.22263   0.81216   0.00000  Uiso   1.00
O911   O     0.99646   0.12442   0.70602   0.00000  Uiso   1.00
H912   H     0.69845   0.10797   0.68971   0.00000  Uiso   1.00
O913   O     0.12815   0.57142   0.74686   0.00000  Uiso   1.00
O914   O     0.20518   0.42858   0.75314   0.00000  Uiso   1.00
O915   O     0.22829   0.58086   0.75503   0.00000  Uiso   1.00
O916   O     0.10504   0.41914   0.74498   0.00000  Uiso   1.00
C917   C     0.18143   0.59976   0.75095   0.00000  Uiso   1.00
C918   C     0.15166   0.40034   0.74966   0.00000  Uiso   1.00
O919   O     0.08851   0.49263   0.80855   0.00000  Uiso   1.00
O920   O     0.24482   0.50737   0.69146   0.00000  Uiso   1.00
O921   O     0.18866   0.50207   0.81671   0.00000  Uiso   1.00
O922   O     0.14468   0.49793   0.68329   0.00000  Uiso   1.00
C923   C     0.12728   0.49435   0.83321   0.00000  Uiso   1.00
C924   C     0.20601   0.50459   0.66653   0.00000  Uiso   1.00
Cu925  Cu    0.10737   0.49441   0.74517   0.00000  Uiso   1.00
Cu926  Cu    0.22596   0.50559   0.75484   0.00000  Uiso   1.00
C927   C     0.10159   0.48354   0.88083   0.00000  Uiso   1.00
C928   C     0.23150   0.51091   0.61800   0.00000  Uiso   1.00
C929   C     0.02844   0.43136   0.94194   0.00000  Uiso   1.00
C930   C     0.30885   0.55357   0.55337   0.00000  Uiso   1.00
C931   C     0.04440   0.44750   0.89749   0.00000  Uiso   1.00
C932   C     0.29201   0.54130   0.59872   0.00000  Uiso   1.00
C933   C     0.14079   0.50419   0.90826   0.00000  Uiso   1.00
C934   C     0.19055   0.49041   0.59151   0.00000  Uiso   1.00
C935   C     0.12877   0.48670   0.95142   0.00000  Uiso   1.00
C936   C     0.20540   0.50178   0.54639   0.00000  Uiso   1.00
C937   C     0.07005   0.45200   0.96922   0.00000  Uiso   1.00
C938   C     0.26590   0.53341   0.52712   0.00000  Uiso   1.00
C939   C     0.17453   0.50210   0.97676   0.00000  Uiso   1.00
C940   C     0.16031   0.48456   0.52058   0.00000  Uiso   1.00
C941   C     0.10079   0.45138   0.53756   0.00000  Uiso   1.00
C942   C     0.23553   0.53228   0.95863   0.00000  Uiso   1.00
C943   C     0.05548   0.43734   0.51372   0.00000  Uiso   1.00
C944   C     0.28121   0.54558   0.98200   0.00000  Uiso   1.00
H945   H     0.14554   0.46727   0.60807   0.00000  Uiso   1.00
H946   H     0.18152   0.53375   0.89410   0.00000  Uiso   1.00
H947   H     0.08649   0.43549   0.57002   0.00000  Uiso   1.00
H948   H     0.25163   0.54455   0.92500   0.00000  Uiso   1.00
C949   C     0.19132   0.65502   0.74552   0.00000  Uiso   1.00
C950   C     0.14144   0.34566   0.75651   0.00000  Uiso   1.00
N951   N     0.31506   0.51401   0.76212   0.00000  Uiso   1.00
N952   N     0.01827   0.48599   0.73788   0.00000  Uiso   1.00
O953   O     0.33014   0.40981   0.53579   0.00000  Uiso   1.00
H954   H     0.29819   0.42764   0.53061   0.00000  Uiso   1.00
O955   O     0.00730   0.57072   0.95901   0.00000  Uiso   1.00
H956   H     0.03791   0.55167   0.96442   0.00000  Uiso   1.00
N957   N     0.33327   0.56336   0.62582   0.00000  Uiso   1.00
H958   H     0.01940   0.60246   0.62112   0.00000  Uiso   1.00
C959   C     0.04659   0.53374   0.62687   0.00000  Uiso   1.00
H960   H     0.08716   0.54139   0.59728   0.00000  Uiso   1.00
H961   H     0.02548   0.49137   0.62814   0.00000  Uiso   1.00
H962   H     0.06476   0.54575   0.65641   0.00000  Uiso   1.00
N963   N     0.00629   0.42470   0.86839   0.00000  Uiso   1.00
H964   H     0.32683   0.38466   0.86865   0.00000  Uiso   1.00
C965   C     0.28767   0.44936   0.86929   0.00000  Uiso   1.00
H966   H     0.24886   0.43929   0.89965   0.00000  Uiso   1.00
H967   H     0.26864   0.43578   0.84029   0.00000  Uiso   1.00
H968   H     0.30419   0.49226   0.86803   0.00000  Uiso   1.00
O969   O     0.30919   0.39253   0.95846   0.00000  Uiso   1.00
H970   H     0.28002   0.38599   0.93916   0.00000  Uiso   1.00
O971   O     0.03080   0.58887   0.53497   0.00000  Uiso   1.00
H972   H     0.06291   0.58995   0.55138   0.00000  Uiso   1.00
N973   N     0.25409   0.34965   0.72572   0.00000  Uiso   1.00
H974   H     0.28188   0.35956   0.74771   0.00000  Uiso   1.00
C975   C     0.28651   0.66176   0.68448   0.00000  Uiso   1.00
H976   H     0.32428   0.35935   0.66574   0.00000  Uiso   1.00
H977   H     0.25311   0.64582   0.66380   0.00000  Uiso   1.00
H978   H     0.30906   0.63090   0.69125   0.00000  Uiso   1.00
N979   N     0.07917   0.65466   0.78040   0.00000  Uiso   1.00
H980   H     0.05359   0.62709   0.76344   0.00000  Uiso   1.00
C981   C     0.07172   0.64505   0.82639   0.00000  Uiso   1.00
H982   H     0.02051   0.63443   0.84346   0.00000  Uiso   1.00
H983   H     0.09340   0.34731   0.84275   0.00000  Uiso   1.00
H984   H     0.09428   0.61261   0.82970   0.00000  Uiso   1.00
O985   O     0.00175   0.53935   0.79580   0.00000  Uiso   1.00
H986   H     0.29988   0.55596   0.81216   0.00000  Uiso   1.00
O987   O     0.32979   0.45776   0.70602   0.00000  Uiso   1.00
H988   H     0.03179   0.44130   0.68971   0.00000  Uiso   1.00
O989   O     0.46148   0.57142   0.74686   0.00000  Uiso   1.00
O990   O     0.53852   0.42858   0.75314   0.00000  Uiso   1.00
O991   O     0.56163   0.58086   0.75503   0.00000  Uiso   1.00
O992   O     0.43837   0.41914   0.74498   0.00000  Uiso   1.00
C993   C     0.51476   0.59976   0.75095   0.00000  Uiso   1.00
C994   C     0.48499   0.40034   0.74966   0.00000  Uiso   1.00
O995   O     0.42185   0.49263   0.80855   0.00000  Uiso   1.00
O996   O     0.57815   0.50737   0.69146   0.00000  Uiso   1.00
O997   O     0.52199   0.50207   0.81671   0.00000  Uiso   1.00
O998   O     0.47801   0.49793   0.68329   0.00000  Uiso   1.00
C999   C     0.46061   0.49435   0.83321   0.00000  Uiso   1.00
C1000  C     0.53934   0.50459   0.66653   0.00000  Uiso   1.00
Cu1001 Cu    0.44071   0.49441   0.74517   0.00000  Uiso   1.00
Cu1002 Cu    0.55929   0.50559   0.75484   0.00000  Uiso   1.00
C1003  C     0.43493   0.48354   0.88083   0.00000  Uiso   1.00
C1004  C     0.56483   0.51091   0.61800   0.00000  Uiso   1.00
C1005  C     0.36177   0.43136   0.94194   0.00000  Uiso   1.00
C1006  C     0.64218   0.55357   0.55337   0.00000  Uiso   1.00
C1007  C     0.37774   0.44750   0.89749   0.00000  Uiso   1.00
C1008  C     0.62535   0.54130   0.59872   0.00000  Uiso   1.00
C1009  C     0.47412   0.50419   0.90826   0.00000  Uiso   1.00
C1010  C     0.52388   0.49041   0.59151   0.00000  Uiso   1.00
C1011  C     0.46211   0.48670   0.95142   0.00000  Uiso   1.00
C1012  C     0.53874   0.50178   0.54639   0.00000  Uiso   1.00
C1013  C     0.40338   0.45200   0.96922   0.00000  Uiso   1.00
C1014  C     0.59924   0.53341   0.52712   0.00000  Uiso   1.00
C1015  C     0.50787   0.50210   0.97676   0.00000  Uiso   1.00
C1016  C     0.49365   0.48456   0.52058   0.00000  Uiso   1.00
C1017  C     0.43412   0.45138   0.53756   0.00000  Uiso   1.00
C1018  C     0.56887   0.53228   0.95863   0.00000  Uiso   1.00
C1019  C     0.38881   0.43734   0.51372   0.00000  Uiso   1.00
C1020  C     0.61454   0.54558   0.98200   0.00000  Uiso   1.00
H1021  H     0.47888   0.46727   0.60807   0.00000  Uiso   1.00
H1022  H     0.51486   0.53375   0.89410   0.00000  Uiso   1.00
H1023  H     0.41982   0.43549   0.57002   0.00000  Uiso   1.00
H1024  H     0.58497   0.54455   0.92500   0.00000  Uiso   1.00
C1025  C     0.52465   0.65502   0.74552   0.00000  Uiso   1.00
C1026  C     0.47477   0.34566   0.75651   0.00000  Uiso   1.00
N1027  N     0.64839   0.51401   0.76212   0.00000  Uiso   1.00
N1028  N     0.35161   0.48599   0.73788   0.00000  Uiso   1.00
O1029  O     0.66347   0.40981   0.53579   0.00000  Uiso   1.00
H1030  H     0.63153   0.42764   0.53061   0.00000  Uiso   1.00
O1031  O     0.34064   0.57072   0.95901   0.00000  Uiso   1.00
H1032  H     0.37124   0.55167   0.96442   0.00000  Uiso   1.00
N1033  N     0.66661   0.56336   0.62582   0.00000  Uiso   1.00
H1034  H     0.35274   0.60246   0.62112   0.00000  Uiso   1.00
C1035  C     0.37993   0.53374   0.62687   0.00000  Uiso   1.00
H1036  H     0.42049   0.54139   0.59728   0.00000  Uiso   1.00
H1037  H     0.35881   0.49137   0.62814   0.00000  Uiso   1.00
H1038  H     0.39809   0.54575   0.65641   0.00000  Uiso   1.00
N1039  N     0.33963   0.42470   0.86839   0.00000  Uiso   1.00
H1040  H     0.66016   0.38466   0.86865   0.00000  Uiso   1.00
C1041  C     0.62100   0.44936   0.86929   0.00000  Uiso   1.00
H1042  H     0.58219   0.43929   0.89965   0.00000  Uiso   1.00
H1043  H     0.60198   0.43578   0.84029   0.00000  Uiso   1.00
H1044  H     0.63752   0.49226   0.86803   0.00000  Uiso   1.00
O1045  O     0.64252   0.39253   0.95846   0.00000  Uiso   1.00
H1046  H     0.61335   0.38599   0.93916   0.00000  Uiso   1.00
O1047  O     0.36413   0.58887   0.53497   0.00000  Uiso   1.00
H1048  H     0.39625   0.58995   0.55138   0.00000  Uiso   1.00
N1049  N     0.58742   0.34965   0.72572   0.00000  Uiso   1.00
H1050  H     0.61522   0.35956   0.74771   0.00000  Uiso   1.00
C1051  C     0.61984   0.66176   0.68448   0.00000  Uiso   1.00
H1052  H     0.65762   0.35935   0.66574   0.00000  Uiso   1.00
H1053  H     0.58644   0.64582   0.66380   0.00000  Uiso   1.00
H1054  H     0.64239   0.63090   0.69125   0.00000  Uiso   1.00
N1055  N     0.41250   0.65466   0.78040   0.00000  Uiso   1.00
H1056  H     0.38693   0.62709   0.76344   0.00000  Uiso   1.00
C1057  C     0.40505   0.64505   0.82639   0.00000  Uiso   1.00
H1058  H     0.35384   0.63443   0.84346   0.00000  Uiso   1.00
H1059  H     0.42673   0.34731   0.84275   0.00000  Uiso   1.00
H1060  H     0.42762   0.61261   0.82970   0.00000  Uiso   1.00
O1061  O     0.33508   0.53935   0.79580   0.00000  Uiso   1.00
H1062  H     0.63322   0.55596   0.81216   0.00000  Uiso   1.00
O1063  O     0.66312   0.45776   0.70602   0.00000  Uiso   1.00
H1064  H     0.36512   0.44130   0.68971   0.00000  Uiso   1.00
O1065  O     0.79482   0.57142   0.74686   0.00000  Uiso   1.00
O1066  O     0.87185   0.42858   0.75314   0.00000  Uiso   1.00
O1067  O     0.89496   0.58086   0.75503   0.00000  Uiso   1.00
O1068  O     0.77171   0.41914   0.74498   0.00000  Uiso   1.00
C1069  C     0.84810   0.59976   0.75095   0.00000  Uiso   1.00
C1070  C     0.81833   0.40034   0.74966   0.00000  Uiso   1.00
O1071  O     0.75518   0.49263   0.80855   0.00000  Uiso   1.00
O1072  O     0.91149   0.50737   0.69146   0.00000  Uiso   1.00
O1073  O     0.85532   0.50207   0.81671   0.00000  Uiso   1.00
O1074  O     0.81134   0.49793   0.68329   0.00000  Uiso   1.00
C1075  C     0.79395   0.49435   0.83321   0.00000  Uiso   1.00
C1076  C     0.87268   0.50459   0.66653   0.00000  Uiso   1.00
Cu1077 Cu    0.77404   0.49441   0.74517   0.00000  Uiso   1.00
Cu1078 Cu    0.89263   0.50559   0.75484   0.00000  Uiso   1.00
C1079  C     0.76826   0.48354   0.88083   0.00000  Uiso   1.00
C1080  C     0.89817   0.51091   0.61800   0.00000  Uiso   1.00
C1081  C     0.69511   0.43136   0.94194   0.00000  Uiso   1.00
C1082  C     0.97552   0.55357   0.55337   0.00000  Uiso   1.00
C1083  C     0.71107   0.44750   0.89749   0.00000  Uiso   1.00
C1084  C     0.95868   0.54130   0.59872   0.00000  Uiso   1.00
C1085  C     0.80746   0.50419   0.90826   0.00000  Uiso   1.00
C1086  C     0.85721   0.49041   0.59151   0.00000  Uiso   1.00
C1087  C     0.79544   0.48670   0.95142   0.00000  Uiso   1.00
C1088  C     0.87207   0.50178   0.54639   0.00000  Uiso   1.00
C1089  C     0.73671   0.45200   0.96922   0.00000  Uiso   1.00
C1090  C     0.93257   0.53341   0.52712   0.00000  Uiso   1.00
C1091  C     0.84120   0.50210   0.97676   0.00000  Uiso   1.00
C1092  C     0.82698   0.48456   0.52058   0.00000  Uiso   1.00
C1093  C     0.76745   0.45138   0.53756   0.00000  Uiso   1.00
C1094  C     0.90220   0.53228   0.95863   0.00000  Uiso   1.00
C1095  C     0.72215   0.43734   0.51372   0.00000  Uiso   1.00
C1096  C     0.94788   0.54558   0.98200   0.00000  Uiso   1.00
H1097  H     0.81221   0.46727   0.60807   0.00000  Uiso   1.00
H1098  H     0.84819   0.53375   0.89410   0.00000  Uiso   1.00
H1099  H     0.75315   0.43549   0.57002   0.00000  Uiso   1.00
H1100  H     0.91830   0.54455   0.92500   0.00000  Uiso   1.00
C1101  C     0.85799   0.65502   0.74552   0.00000  Uiso   1.00
C1102  C     0.80810   0.34566   0.75651   0.00000  Uiso   1.00
N1103  N     0.98173   0.51401   0.76212   0.00000  Uiso   1.00
N1104  N     0.68494   0.48599   0.73788   0.00000  Uiso   1.00
O1105  O     0.99680   0.40981   0.53579   0.00000  Uiso   1.00
H1106  H     0.96486   0.42764   0.53061   0.00000  Uiso   1.00
O1107  O     0.67397   0.57072   0.95901   0.00000  Uiso   1.00
H1108  H     0.70458   0.55167   0.96442   0.00000  Uiso   1.00
N1109  N     0.99994   0.56336   0.62582   0.00000  Uiso   1.00
H1110  H     0.68607   0.60246   0.62112   0.00000  Uiso   1.00
C1111  C     0.71326   0.53374   0.62687   0.00000  Uiso   1.00
H1112  H     0.75382   0.54139   0.59728   0.00000  Uiso   1.00
H1113  H     0.69215   0.49137   0.62814   0.00000  Uiso   1.00
H1114  H     0.73142   0.54575   0.65641   0.00000  Uiso   1.00
N1115  N     0.67296   0.42470   0.86839   0.00000  Uiso   1.00
H1116  H     0.99350   0.38466   0.86865   0.00000  Uiso   1.00
C1117  C     0.95434   0.44936   0.86929   0.00000  Uiso   1.00
H1118  H     0.91552   0.43929   0.89965   0.00000  Uiso   1.00
H1119  H     0.93531   0.43578   0.84029   0.00000  Uiso   1.00
H1120  H     0.97086   0.49226   0.86803   0.00000  Uiso   1.00
O1121  O     0.97586   0.39253   0.95846   0.00000  Uiso   1.00
H1122  H     0.94668   0.38599   0.93916   0.00000  Uiso   1.00
O1123  O     0.69746   0.58887   0.53497   0.00000  Uiso   1.00
H1124  H     0.72958   0.58995   0.55138   0.00000  Uiso   1.00
N1125  N     0.92076   0.34965   0.72572   0.00000  Uiso   1.00
H1126  H     0.94855   0.35956   0.74771   0.00000  Uiso   1.00
C1127  C     0.95318   0.66176   0.68448   0.00000  Uiso   1.00
H1128  H     0.99095   0.35935   0.66574   0.00000  Uiso   1.00
H1129  H     0.91978   0.64582   0.66380   0.00000  Uiso   1.00
H1130  H     0.97572   0.63090   0.69125   0.00000  Uiso   1.00
N1131  N     0.74584   0.65466   0.78040   0.00000  Uiso   1.00
H1132  H     0.72026   0.62709   0.76344   0.00000  Uiso   1.00
C1133  C     0.73838   0.64505   0.82639   0.00000  Uiso   1.00
H1134  H     0.68717   0.63443   0.84346   0.00000  Uiso   1.00
H1135  H     0.76006   0.34731   0.84275   0.00000  Uiso   1.00
H1136  H     0.76095   0.61261   0.82970   0.00000  Uiso   1.00
O1137  O     0.66841   0.53935   0.79580   0.00000  Uiso   1.00
H1138  H     0.96655   0.55596   0.81216   0.00000  Uiso   1.00
O1139  O     0.99646   0.45776   0.70602   0.00000  Uiso   1.00
H1140  H     0.69845   0.44130   0.68971   0.00000  Uiso   1.00
O1141  O     0.12815   0.90476   0.74686   0.00000  Uiso   1.00
O1142  O     0.20518   0.76191   0.75314   0.00000  Uiso   1.00
O1143  O     0.22829   0.91420   0.75503   0.00000  Uiso   1.00
O1144  O     0.10504   0.75247   0.74498   0.00000  Uiso   1.00
C1145  C     0.18143   0.93309   0.75095   0.00000  Uiso   1.00
C1146  C     0.15166   0.73367   0.74966   0.00000  Uiso   1.00
O1147  O     0.08851   0.82597   0.80855   0.00000  Uiso   1.00
O1148  O     0.24482   0.84070   0.69146   0.00000  Uiso   1.00
O1149  O     0.18866   0.83540   0.81671   0.00000  Uiso   1.00
O1150  O     0.14468   0.83126   0.68329   0.00000  Uiso   1.00
C1151  C     0.12728   0.82768   0.83321   0.00000  Uiso   1.00
C1152  C     0.20601   0.83792   0.66653   0.00000  Uiso   1.00
Cu1153 Cu    0.10737   0.82775   0.74517   0.00000  Uiso   1.00
Cu1154 Cu    0.22596   0.83892   0.75484   0.00000  Uiso   1.00
C1155  C     0.10159   0.81687   0.88083   0.00000  Uiso   1.00
C1156  C     0.23150   0.84424   0.61800   0.00000  Uiso   1.00
C1157  C     0.02844   0.76470   0.94194   0.00000  Uiso   1.00
C1158  C     0.30885   0.88690   0.55337   0.00000  Uiso   1.00
C1159  C     0.04440   0.78083   0.89749   0.00000  Uiso   1.00
C1160  C     0.29201   0.87463   0.59872   0.00000  Uiso   1.00
C1161  C     0.14079   0.83752   0.90826   0.00000  Uiso   1.00
C1162  C     0.19055   0.82375   0.59151   0.00000  Uiso   1.00
C1163  C     0.12877   0.82003   0.95142   0.00000  Uiso   1.00
C1164  C     0.20540   0.83511   0.54639   0.00000  Uiso   1.00
C1165  C     0.07005   0.78534   0.96922   0.00000  Uiso   1.00
C1166  C     0.26590   0.86674   0.52712   0.00000  Uiso   1.00
C1167  C     0.17453   0.83543   0.97676   0.00000  Uiso   1.00
C1168  C     0.16031   0.81790   0.52058   0.00000  Uiso   1.00
C1169  C     0.10079   0.78472   0.53756   0.00000  Uiso   1.00
C1170  C     0.23553   0.86561   0.95863   0.00000  Uiso   1.00
C1171  C     0.05548   0.77067   0.51372   0.00000  Uiso   1.00
C1172  C     0.28121   0.87891   0.98200   0.00000  Uiso   1.00
H1173  H     0.14554   0.80060   0.60807   0.00000  Uiso   1.00
H1174  H     0.18152   0.86708   0.89410   0.00000  Uiso   1.00
H1175  H     0.08649   0.76882   0.57002   0.00000  Uiso   1.00
H1176  H     0.25163   0.87788   0.92500   0.00000  Uiso   1.00
C1177  C     0.19132   0.98835   0.74552   0.00000  Uiso   1.00
C1178  C     0.14144   0.67899   0.75651   0.00000  Uiso   1.00
N1179  N     0.31506   0.84735   0.76212   0.00000  Uiso   1.00
N1180  N     0.01827   0.81932   0.73788   0.00000  Uiso   1.00
O1181  O     0.33014   0.74314   0.53579   0.00000  Uiso   1.00
H1182  H     0.29819   0.76097   0.53061   0.00000  Uiso   1.00
O1183  O     0.00730   0.90405   0.95901   0.00000  Uiso   1.00
H1184  H     0.03791   0.88500   0.96442   0.00000  Uiso   1.00
N1185  N     0.33327   0.89669   0.62582   0.00000  Uiso   1.00
H1186  H     0.01940   0.93579   0.62112   0.00000  Uiso   1.00
C1187  C     0.04659   0.86707   0.62687   0.00000  Uiso   1.00
H1188  H     0.08716   0.87472   0.59728   0.00000  Uiso   1.00
H1189  H     0.02548   0.82470   0.62814   0.00000  Uiso   1.00
H1190  H     0.06476   0.87908   0.65641   0.00000  Uiso   1.00
N1191  N     0.00629   0.75803   0.86839   0.00000  Uiso   1.00
H1192  H     0.32683   0.71799   0.86865   0.00000  Uiso   1.00
C1193  C     0.28767   0.78269   0.86929   0.00000  Uiso   1.00
H1194  H     0.24886   0.77263   0.89965   0.00000  Uiso   1.00
H1195  H     0.26864   0.76912   0.84029   0.00000  Uiso   1.00
H1196  H     0.30419   0.82559   0.86803   0.00000  Uiso   1.00
O1197  O     0.30919   0.72587   0.95846   0.00000  Uiso   1.00
H1198  H     0.28002   0.71933   0.93916   0.00000  Uiso   1.00
O1199  O     0.03080   0.92220   0.53497   0.00000  Uiso   1.00
H1200  H     0.06291   0.92329   0.55138   0.00000  Uiso   1.00
N1201  N     0.25409   0.68299   0.72572   0.00000  Uiso   1.00
H1202  H     0.28188   0.69289   0.74771   0.00000  Uiso   1.00
C1203  C     0.28651   0.99509   0.68448   0.00000  Uiso   1.00
H1204  H     0.32428   0.69269   0.66574   0.00000  Uiso   1.00
H1205  H     0.25311   0.97915   0.66380   0.00000  Uiso   1.00
H1206  H     0.30906   0.96424   0.69125   0.00000  Uiso   1.00
N1207  N     0.07917   0.98799   0.78040   0.00000  Uiso   1.00
H1208  H     0.05359   0.96042   0.76344   0.00000  Uiso   1.00
C1209  C     0.07172   0.97838   0.82639   0.00000  Uiso   1.00
H1210  H     0.02051   0.96777   0.84346   0.00000  Uiso   1.00
H1211  H     0.09340   0.68065   0.84275   0.00000  Uiso   1.00
H1212  H     0.09428   0.94594   0.82970   0.00000  Uiso   1.00
O1213  O     0.00175   0.87269   0.79580   0.00000  Uiso   1.00
H1214  H     0.29988   0.88929   0.81216   0.00000  Uiso   1.00
O1215  O     0.32979   0.79109   0.70602   0.00000  Uiso   1.00
H1216  H     0.03179   0.77464   0.68971   0.00000  Uiso   1.00
O1217  O     0.46148   0.90476   0.74686   0.00000  Uiso   1.00
O1218  O     0.53852   0.76191   0.75314   0.00000  Uiso   1.00
O1219  O     0.56163   0.91420   0.75503   0.00000  Uiso   1.00
O1220  O     0.43837   0.75247   0.74498   0.00000  Uiso   1.00
C1221  C     0.51476   0.93309   0.75095   0.00000  Uiso   1.00
C1222  C     0.48499   0.73367   0.74966   0.00000  Uiso   1.00
O1223  O     0.42185   0.82597   0.80855   0.00000  Uiso   1.00
O1224  O     0.57815   0.84070   0.69146   0.00000  Uiso   1.00
O1225  O     0.52199   0.83540   0.81671   0.00000  Uiso   1.00
O1226  O     0.47801   0.83126   0.68329   0.00000  Uiso   1.00
C1227  C     0.46061   0.82768   0.83321   0.00000  Uiso   1.00
C1228  C     0.53934   0.83792   0.66653   0.00000  Uiso   1.00
Cu1229 Cu    0.44071   0.82775   0.74517   0.00000  Uiso   1.00
Cu1230 Cu    0.55929   0.83892   0.75484   0.00000  Uiso   1.00
C1231  C     0.43493   0.81687   0.88083   0.00000  Uiso   1.00
C1232  C     0.56483   0.84424   0.61800   0.00000  Uiso   1.00
C1233  C     0.36177   0.76470   0.94194   0.00000  Uiso   1.00
C1234  C     0.64218   0.88690   0.55337   0.00000  Uiso   1.00
C1235  C     0.37774   0.78083   0.89749   0.00000  Uiso   1.00
C1236  C     0.62535   0.87463   0.59872   0.00000  Uiso   1.00
C1237  C     0.47412   0.83752   0.90826   0.00000  Uiso   1.00
C1238  C     0.52388   0.82375   0.59151   0.00000  Uiso   1.00
C1239  C     0.46211   0.82003   0.95142   0.00000  Uiso   1.00
C1240  C     0.53874   0.83511   0.54639   0.00000  Uiso   1.00
C1241  C     0.40338   0.78534   0.96922   0.00000  Uiso   1.00
C1242  C     0.59924   0.86674   0.52712   0.00000  Uiso   1.00
C1243  C     0.50787   0.83543   0.97676   0.00000  Uiso   1.00
C1244  C     0.49365   0.81790   0.52058   0.00000  Uiso   1.00
C1245  C     0.43412   0.78472   0.53756   0.00000  Uiso   1.00
C1246  C     0.56887   0.86561   0.95863   0.00000  Uiso   1.00
C1247  C     0.38881   0.77067   0.51372   0.00000  Uiso   1.00
C1248  C     0.61454   0.87891   0.98200   0.00000  Uiso   1.00
H1249  H     0.47888   0.80060   0.60807   0.00000  Uiso   1.00
H1250  H     0.51486   0.86708   0.89410   0.00000  Uiso   1.00
H1251  H     0.41982   0.76882   0.57002   0.00000  Uiso   1.00
H1252  H     0.58497   0.87788   0.92500   0.00000  Uiso   1.00
C1253  C     0.52465   0.98835   0.74552   0.00000  Uiso   1.00
C1254  C     0.47477   0.67899   0.75651   0.00000  Uiso   1.00
N1255  N     0.64839   0.84735   0.76212   0.00000  Uiso   1.00
N1256  N     0.35161   0.81932   0.73788   0.00000  Uiso   1.00
O1257  O     0.66347   0.74314   0.53579   0.00000  Uiso   1.00
H1258  H     0.63153   0.76097   0.53061   0.00000  Uiso   1.00
O1259  O     0.34064   0.90405   0.95901   0.00000  Uiso   1.00
H1260  H     0.37124   0.88500   0.96442   0.00000  Uiso   1.00
N1261  N     0.66661   0.89669   0.62582   0.00000  Uiso   1.00
H1262  H     0.35274   0.93579   0.62112   0.00000  Uiso   1.00
C1263  C     0.37993   0.86707   0.62687   0.00000  Uiso   1.00
H1264  H     0.42049   0.87472   0.59728   0.00000  Uiso   1.00
H1265  H     0.35881   0.82470   0.62814   0.00000  Uiso   1.00
H1266  H     0.39809   0.87908   0.65641   0.00000  Uiso   1.00
N1267  N     0.33963   0.75803   0.86839   0.00000  Uiso   1.00
H1268  H     0.66016   0.71799   0.86865   0.00000  Uiso   1.00
C1269  C     0.62100   0.78269   0.86929   0.00000  Uiso   1.00
H1270  H     0.58219   0.77263   0.89965   0.00000  Uiso   1.00
H1271  H     0.60198   0.76912   0.84029   0.00000  Uiso   1.00
H1272  H     0.63752   0.82559   0.86803   0.00000  Uiso   1.00
O1273  O     0.64252   0.72587   0.95846   0.00000  Uiso   1.00
H1274  H     0.61335   0.71933   0.93916   0.00000  Uiso   1.00
O1275  O     0.36413   0.92220   0.53497   0.00000  Uiso   1.00
H1276  H     0.39625   0.92329   0.55138   0.00000  Uiso   1.00
N1277  N     0.58742   0.68299   0.72572   0.00000  Uiso   1.00
H1278  H     0.61522   0.69289   0.74771   0.00000  Uiso   1.00
C1279  C     0.61984   0.99509   0.68448   0.00000  Uiso   1.00
H1280  H     0.65762   0.69269   0.66574   0.00000  Uiso   1.00
H1281  H     0.58644   0.97915   0.66380   0.00000  Uiso   1.00
H1282  H     0.64239   0.96424   0.69125   0.00000  Uiso   1.00
N1283  N     0.41250   0.98799   0.78040   0.00000  Uiso   1.00
H1284  H     0.38693   0.96042   0.76344   0.00000  Uiso   1.00
C1285  C     0.40505   0.97838   0.82639   0.00000  Uiso   1.00
H1286  H     0.35384   0.96777   0.84346   0.00000  Uiso   1.00
H1287  H     0.42673   0.68065   0.84275   0.00000  Uiso   1.00
H1288  H     0.42762   0.94594   0.82970   0.00000  Uiso   1.00
O1289  O     0.33508   0.87269   0.79580   0.00000  Uiso   1.00
H1290  H     0.63322   0.88929   0.81216   0.00000  Uiso   1.00
O1291  O     0.66312   0.79109   0.70602   0.00000  Uiso   1.00
H1292  H     0.36512   0.77464   0.68971   0.00000  Uiso   1.00
O1293  O     0.79482   0.90476   0.74686   0.00000  Uiso   1.00
O1294  O     0.87185   0.76191   0.75314   0.00000  Uiso   1.00
O1295  O     0.89496   0.91420   0.75503   0.00000  Uiso   1.00
O1296  O     0.77171   0.75247   0.74498   0.00000  Uiso   1.00
C1297  C     0.84810   0.93309   0.75095   0.00000  Uiso   1.00
C1298  C     0.81833   0.73367   0.74966   0.00000  Uiso   1.00
O1299  O     0.75518   0.82597   0.80855   0.00000  Uiso   1.00
O1300  O     0.91149   0.84070   0.69146   0.00000  Uiso   1.00
O1301  O     0.85532   0.83540   0.81671   0.00000  Uiso   1.00
O1302  O     0.81134   0.83126   0.68329   0.00000  Uiso   1.00
C1303  C     0.79395   0.82768   0.83321   0.00000  Uiso   1.00
C1304  C     0.87268   0.83792   0.66653   0.00000  Uiso   1.00
Cu1305 Cu    0.77404   0.82775   0.74517   0.00000  Uiso   1.00
Cu1306 Cu    0.89263   0.83892   0.75484   0.00000  Uiso   1.00
C1307  C     0.76826   0.81687   0.88083   0.00000  Uiso   1.00
C1308  C     0.89817   0.84424   0.61800   0.00000  Uiso   1.00
C1309  C     0.69511   0.76470   0.94194   0.00000  Uiso   1.00
C1310  C     0.97552   0.88690   0.55337   0.00000  Uiso   1.00
C1311  C     0.71107   0.78083   0.89749   0.00000  Uiso   1.00
C1312  C     0.95868   0.87463   0.59872   0.00000  Uiso   1.00
C1313  C     0.80746   0.83752   0.90826   0.00000  Uiso   1.00
C1314  C     0.85721   0.82375   0.59151   0.00000  Uiso   1.00
C1315  C     0.79544   0.82003   0.95142   0.00000  Uiso   1.00
C1316  C     0.87207   0.83511   0.54639   0.00000  Uiso   1.00
C1317  C     0.73671   0.78534   0.96922   0.00000  Uiso   1.00
C1318  C     0.93257   0.86674   0.52712   0.00000  Uiso   1.00
C1319  C     0.84120   0.83543   0.97676   0.00000  Uiso   1.00
C1320  C     0.82698   0.81790   0.52058   0.00000  Uiso   1.00
C1321  C     0.76745   0.78472   0.53756   0.00000  Uiso   1.00
C1322  C     0.90220   0.86561   0.95863   0.00000  Uiso   1.00
C1323  C     0.72215   0.77067   0.51372   0.00000  Uiso   1.00
C1324  C     0.94788   0.87891   0.98200   0.00000  Uiso   1.00
H1325  H     0.81221   0.80060   0.60807   0.00000  Uiso   1.00
H1326  H     0.84819   0.86708   0.89410   0.00000  Uiso   1.00
H1327  H     0.75315   0.76882   0.57002   0.00000  Uiso   1.00
H1328  H     0.91830   0.87788   0.92500   0.00000  Uiso   1.00
C1329  C     0.85799   0.98835   0.74552   0.00000  Uiso   1.00
C1330  C     0.80810   0.67899   0.75651   0.00000  Uiso   1.00
N1331  N     0.98173   0.84735   0.76212   0.00000  Uiso   1.00
N1332  N     0.68494   0.81932   0.73788   0.00000  Uiso   1.00
O1333  O     0.99680   0.74314   0.53579   0.00000  Uiso   1.00
H1334  H     0.96486   0.76097   0.53061   0.00000  Uiso   1.00
O1335  O     0.67397   0.90405   0.95901   0.00000  Uiso   1.00
H1336  H     0.70458   0.88500   0.96442   0.00000  Uiso   1.00
N1337  N     0.99994   0.89669   0.62582   0.00000  Uiso   1.00
H1338  H     0.68607   0.93579   0.62112   0.00000  Uiso   1.00
C1339  C     0.71326   0.86707   0.62687   0.00000  Uiso   1.00
H1340  H     0.75382   0.87472   0.59728   0.00000  Uiso   1.00
H1341  H     0.69215   0.82470   0.62814   0.00000  Uiso   1.00
H1342  H     0.73142   0.87908   0.65641   0.00000  Uiso   1.00
N1343  N     0.67296   0.75803   0.86839   0.00000  Uiso   1.00
H1344  H     0.99350   0.71799   0.86865   0.00000  Uiso   1.00
C1345  C     0.95434   0.78269   0.86929   0.00000  Uiso   1.00
H1346  H     0.91552   0.77263   0.89965   0.00000  Uiso   1.00
H1347  H     0.93531   0.76912   0.84029   0.00000  Uiso   1.00
H1348  H     0.97086   0.82559   0.86803   0.00000  Uiso   1.00
O1349  O     0.97586   0.72587   0.95846   0.00000  Uiso   1.00
H1350  H     0.94668   0.71933   0.93916   0.00000  Uiso   1.00
O1351  O     0.69746   0.92220   0.53497   0.00000  Uiso   1.00
H1352  H     0.72958   0.92329   0.55138   0.00000  Uiso   1.00
N1353  N     0.92076   0.68299   0.72572   0.00000  Uiso   1.00
H1354  H     0.94855   0.69289   0.74771   0.00000  Uiso   1.00
C1355  C     0.95318   0.99509   0.68448   0.00000  Uiso   1.00
H1356  H     0.99095   0.69269   0.66574   0.00000  Uiso   1.00
H1357  H     0.91978   0.97915   0.66380   0.00000  Uiso   1.00
H1358  H     0.97572   0.96424   0.69125   0.00000  Uiso   1.00
N1359  N     0.74584   0.98799   0.78040   0.00000  Uiso   1.00
H1360  H     0.72026   0.96042   0.76344   0.00000  Uiso   1.00
C1361  C     0.73838   0.97838   0.82639   0.00000  Uiso   1.00
H1362  H     0.68717   0.96777   0.84346   0.00000  Uiso   1.00
H1363  H     0.76006   0.68065   0.84275   0.00000  Uiso   1.00
H1364  H     0.76095   0.94594   0.82970   0.00000  Uiso   1.00
O1365  O     0.66841   0.87269   0.79580   0.00000  Uiso   1.00
H1366  H     0.96655   0.88929   0.81216   0.00000  Uiso   1.00
O1367  O     0.99646   0.79109   0.70602   0.00000  Uiso   1.00
H1368  H     0.69845   0.77464   0.68971   0.00000  Uiso   1.00
loop_
_geom_bond_atom_site_label_1
_geom_bond_atom_site_label_2
_geom_bond_distance
_geom_bond_site_symmetry_2
_ccdc_geom_bond_type
O1     C5      1.290   .     A
O1     Cu13    1.977   .     S
O2     C6      1.288   .     A
O2     Cu14    1.977   .     S
O3     Cu14    1.972   .     S
O3     C5      1.296   .     A
O4     Cu13    1.972   .     S
O4     C6      1.296   .     A
C5     C37     1.440   .     S
C6     C38     1.431   .     S
O7     C11     1.302   .     A
O7     Cu13    1.928   .     S
O8     Cu14    1.928   .     S
O8     C12     1.305   .     A
O9     Cu14    1.904   .     S
O9     C11     1.306   .     A
O10    C12     1.308   .     A
O10    Cu13    1.904   .     S
C11    C15     1.480   .     S
C12    C16     1.490   .     S
Cu13   N40     2.029   .     S
Cu13   Cu14    2.700   .     S
Cu14   N39     2.029   .     S
C15    C19     1.410   .     A
C15    C21     1.390   .     A
C16    C20     1.412   .     A
C16    C22     1.395   .     A
C17    C25     1.425   .     A
C17    C19     1.423   .     A
C17    O209    1.385   1_455 S
C18    C26     1.421   .     A
C18    C20     1.419   .     A
C18    O135    1.384   .     S
C19    N51     1.426   .     S
C20    N45     1.422   .     S
C21    H34     1.075   .     S
C21    C23     1.407   .     A
C22    C24     1.410   .     A
C22    H33     1.073   .     S
C23    C27     1.432   .     A
C23    C25     1.423   .     A
C24    C26     1.424   .     A
C24    C28     1.436   .     A
C25    C715    1.415   .     S
C26    C716    1.414   1_554 S
C27    C30     1.410   .     A
C27    C712    1.420   .     S
C28    C29     1.412   .     A
C28    C711    1.420   1_554 S
C29    H35     1.074   .     S
C29    C31     1.388   .     A
C30    H36     1.074   .     S
C30    C32     1.383   .     A
C31    C709    1.415   1_554 S
C31    O193    1.377   1_455 S
C32    C710    1.414   .     S
C32    O119    1.377   .     S
C37    C266    1.356   .     S
C37    N289    1.429   .     S
C38    C493    1.356   1_545 S
C38    N523    1.425   1_545 S
N39    N116    1.282   .     S
N39    O149    1.335   .     S
N40    N191    1.282   1_455 S
N40    O227    1.335   1_455 S
O41    H42     0.991   .     S
O41    C107    1.377   .     S
O43    H44     0.990   .     S
O43    C184    1.377   1_455 S
N45    H122    1.030   .     S
N45    C123    1.445   .     S
H46    N197    1.030   1_455 S
C47    H49     1.110   .     S
C47    H50     1.109   .     S
C47    H48     1.108   .     S
C47    N197    1.445   1_455 S
N51    H204    1.030   1_455 S
N51    C205    1.446   1_455 S
H52    N127    1.030   .     S
C53    H55     1.110   .     S
C53    H54     1.109   .     S
C53    H56     1.108   .     S
C53    N127    1.446   .     S
O57    H58     0.986   .     S
O57    C93     1.385   .     S
O59    H60     0.986   .     S
O59    C170    1.384   1_455 S
N61    H62     1.032   .     S
N61    C493    1.429   1_545 S
N61    C519    1.445   1_545 S
C63    H65     1.112   .     S
C63    H66     1.109   .     S
C63    N289    1.445   .     S
C63    H292    1.107   .     S
H64    C519    1.107   1_545 S
N67    H68     1.029   .     S
N67    C69     1.448   .     S
N67    C266    1.425   .     S
C69    H70     1.109   .     S
C69    H72     1.110   .     S
C69    H299    1.112   .     S
H71    C525    1.112   1_545 S
O73    N191    1.335   1_455 S
O73    H226    0.989   1_455 S
H74    O149    0.989   .     S
O75    N116    1.335   .     S
O75    H152    0.989   .     S
H76    O227    0.989   1_455 S
O77    C81     1.290   .     A
O77    Cu89    1.977   .     S
O78    C82     1.288   .     A
O78    Cu90    1.977   .     S
O79    Cu90    1.972   .     S
O79    C81     1.296   .     A
O80    Cu89    1.972   .     S
O80    C82     1.296   .     A
C81    C113    1.440   .     S
C82    C114    1.431   .     S
O83    C87     1.302   .     A
O83    Cu89    1.928   .     S
O84    Cu90    1.928   .     S
O84    C88     1.305   .     A
O85    Cu90    1.904   .     S
O85    C87     1.306   .     A
O86    C88     1.308   .     A
O86    Cu89    1.904   .     S
C87    C91     1.480   .     S
C88    C92     1.490   .     S
Cu89   N116    2.029   .     S
Cu89   Cu90    2.700   .     S
Cu90   N115    2.029   .     S
C91    C95     1.410   .     A
C91    C97     1.390   .     A
C92    C96     1.412   .     A
C92    C98     1.395   .     A
C93    C101    1.425   .     A
C93    C95     1.423   .     A
C94    C102    1.421   .     A
C94    C96     1.419   .     A
C94    O211    1.384   .     S
C95    N127    1.426   .     S
C96    N121    1.422   .     S
C97    H110    1.075   .     S
C97    C99     1.407   .     A
C98    C100    1.410   .     A
C98    H109    1.073   .     S
C99    C103    1.432   .     A
C99    C101    1.423   .     A
C100   C102    1.424   .     A
C100   C104    1.436   .     A
C101   C791    1.415   .     S
C102   C792    1.414   1_554 S
C103   C106    1.410   .     A
C103   C788    1.420   .     S
C104   C105    1.412   .     A
C104   C787    1.420   1_554 S
C105   H111    1.074   .     S
C105   C107    1.388   .     A
C106   H112    1.074   .     S
C106   C108    1.383   .     A
C107   C785    1.415   1_554 S
C108   C786    1.414   .     S
C108   O195    1.377   .     S
C113   C342    1.356   .     S
C113   N365    1.429   .     S
C114   C569    1.356   1_545 S
C114   N599    1.425   1_545 S
N115   N192    1.282   .     S
N115   O225    1.335   .     S
O117   H118    0.991   .     S
O117   C183    1.377   .     S
O119   H120    0.990   .     S
N121   H198    1.030   .     S
N121   C199    1.445   .     S
C123   H125    1.110   .     S
C123   H126    1.109   .     S
C123   H124    1.108   .     S
H128   N203    1.030   .     S
C129   H131    1.110   .     S
C129   H130    1.109   .     S
C129   H132    1.108   .     S
C129   N203    1.446   .     S
O133   H134    0.986   .     S
O133   C169    1.385   .     S
O135   H136    0.986   .     S
N137   H138    1.032   .     S
N137   C569    1.429   1_545 S
N137   C595    1.445   1_545 S
C139   H141    1.112   .     S
C139   H142    1.109   .     S
C139   N365    1.445   .     S
C139   H368    1.107   .     S
H140   C595    1.107   1_545 S
N143   H144    1.029   .     S
N143   C145    1.448   .     S
N143   C342    1.425   .     S
C145   H146    1.109   .     S
C145   H148    1.110   .     S
C145   H375    1.112   .     S
H147   C601    1.112   1_545 S
H150   O225    0.989   .     S
O151   N192    1.335   .     S
O151   H228    0.989   .     S
O153   C157    1.290   .     A
O153   Cu165   1.977   .     S
O154   C158    1.288   .     A
O154   Cu166   1.977   .     S
O155   Cu166   1.972   .     S
O155   C157    1.296   .     A
O156   Cu165   1.972   .     S
O156   C158    1.296   .     A
C157   C189    1.440   .     S
C158   C190    1.431   .     S
O159   C163    1.302   .     A
O159   Cu165   1.928   .     S
O160   Cu166   1.928   .     S
O160   C164    1.305   .     A
O161   Cu166   1.904   .     S
O161   C163    1.306   .     A
O162   C164    1.308   .     A
O162   Cu165   1.904   .     S
C163   C167    1.480   .     S
C164   C168    1.490   .     S
Cu165  N192    2.029   .     S
Cu165  Cu166   2.700   .     S
Cu166  N191    2.029   .     S
C167   C171    1.410   .     A
C167   C173    1.390   .     A
C168   C172    1.412   .     A
C168   C174    1.395   .     A
C169   C177    1.425   .     A
C169   C171    1.423   .     A
C170   C178    1.421   .     A
C170   C172    1.419   .     A
C170   O59     1.384   1_655 S
C171   N203    1.426   .     S
C172   N197    1.422   .     S
C173   H186    1.075   .     S
C173   C175    1.407   .     A
C174   C176    1.410   .     A
C174   H185    1.073   .     S
C175   C179    1.432   .     A
C175   C177    1.423   .     A
C176   C178    1.424   .     A
C176   C180    1.436   .     A
C177   C867    1.415   .     S
C178   C868    1.414   1_554 S
C179   C182    1.410   .     A
C179   C864    1.420   .     S
C180   C181    1.412   .     A
C180   C863    1.420   1_554 S
C181   H187    1.074   .     S
C181   C183    1.388   .     A
C182   H188    1.074   .     S
C182   C184    1.383   .     A
C183   C861    1.415   1_554 S
C184   C862    1.414   .     S
C184   O43     1.377   1_655 S
C189   C418    1.356   .     S
C189   N441    1.429   .     S
C190   C645    1.356   1_545 S
C190   N675    1.425   1_545 S
N191   N40     1.282   1_655 S
N191   O73     1.335   1_655 S
O193   H194    0.991   .     S
O193   C31     1.377   1_655 S
O195   H196    0.990   .     S
N197   H46     1.030   1_655 S
N197   C47     1.445   1_655 S
C199   H201    1.110   .     S
C199   H202    1.109   .     S
C199   H200    1.108   .     S
H204   N51     1.030   1_655 S
C205   H207    1.110   .     S
C205   H206    1.109   .     S
C205   H208    1.108   .     S
C205   N51     1.446   1_655 S
O209   H210    0.986   .     S
O209   C17     1.385   1_655 S
O211   H212    0.986   .     S
N213   H214    1.032   .     S
N213   C645    1.429   1_545 S
N213   C671    1.445   1_545 S
C215   H217    1.112   .     S
C215   H218    1.109   .     S
C215   N441    1.445   .     S
C215   H444    1.107   .     S
H216   C671    1.107   1_545 S
N219   H220    1.029   .     S
N219   C221    1.448   .     S
N219   C418    1.425   .     S
C221   H222    1.109   .     S
C221   H224    1.110   .     S
C221   H451    1.112   .     S
H223   C677    1.112   1_545 S
H226   O73     0.989   1_655 S
O227   N40     1.335   1_655 S
O227   H76     0.989   1_655 S
O229   C233    1.290   .     A
O229   Cu241   1.977   .     S
O230   C234    1.288   .     A
O230   Cu242   1.977   .     S
O231   Cu242   1.972   .     S
O231   C233    1.296   .     A
O232   Cu241   1.972   .     S
O232   C234    1.296   .     A
C233   C265    1.440   .     S
C234   C266    1.431   .     S
O235   C239    1.302   .     A
O235   Cu241   1.928   .     S
O236   Cu242   1.928   .     S
O236   C240    1.305   .     A
O237   Cu242   1.904   .     S
O237   C239    1.306   .     A
O238   C240    1.308   .     A
O238   Cu241   1.904   .     S
C239   C243    1.480   .     S
C240   C244    1.490   .     S
Cu241  N268    2.029   .     S
Cu241  Cu242   2.700   .     S
Cu242  N267    2.029   .     S
C243   C247    1.410   .     A
C243   C249    1.390   .     A
C244   C248    1.412   .     A
C244   C250    1.395   .     A
C245   C253    1.425   .     A
C245   C247    1.423   .     A
C245   O437    1.385   1_455 S
C246   C254    1.421   .     A
C246   C248    1.419   .     A
C246   O363    1.384   .     S
C247   N279    1.426   .     S
C248   N273    1.422   .     S
C249   H262    1.075   .     S
C249   C251    1.407   .     A
C250   C252    1.410   .     A
C250   H261    1.073   .     S
C251   C255    1.432   .     A
C251   C253    1.423   .     A
C252   C254    1.424   .     A
C252   C256    1.436   .     A
C253   C943    1.415   .     S
C254   C944    1.414   1_554 S
C255   C258    1.410   .     A
C255   C940    1.420   .     S
C256   C257    1.412   .     A
C256   C939    1.420   1_554 S
C257   H263    1.074   .     S
C257   C259    1.388   .     A
C258   H264    1.074   .     S
C258   C260    1.383   .     A
C259   C937    1.415   1_554 S
C259   O421    1.377   1_455 S
C260   C938    1.414   .     S
C260   O347    1.377   .     S
C265   C494    1.356   .     S
C265   N517    1.429   .     S
N267   N344    1.282   .     S
N267   O377    1.335   .     S
N268   N419    1.282   1_455 S
N268   O455    1.335   1_455 S
O269   H270    0.991   .     S
O269   C335    1.377   .     S
O271   H272    0.990   .     S
O271   C412    1.377   1_455 S
N273   H350    1.030   .     S
N273   C351    1.445   .     S
H274   N425    1.030   1_455 S
C275   H277    1.110   .     S
C275   H278    1.109   .     S
C275   H276    1.108   .     S
C275   N425    1.445   1_455 S
N279   H432    1.030   1_455 S
N279   C433    1.446   1_455 S
H280   N355    1.030   .     S
C281   H283    1.110   .     S
C281   H282    1.109   .     S
C281   H284    1.108   .     S
C281   N355    1.446   .     S
O285   H286    0.986   .     S
O285   C321    1.385   .     S
O287   H288    0.986   .     S
O287   C398    1.384   1_455 S
N289   H290    1.032   .     S
C291   H293    1.112   .     S
C291   H294    1.109   .     S
C291   N517    1.445   .     S
C291   H520    1.107   .     S
N295   H296    1.029   .     S
N295   C297    1.448   .     S
N295   C494    1.425   .     S
C297   H298    1.109   .     S
C297   H300    1.110   .     S
C297   H527    1.112   .     S
O301   N419    1.335   1_455 S
O301   H454    0.989   1_455 S
H302   O377    0.989   .     S
O303   N344    1.335   .     S
O303   H380    0.989   .     S
H304   O455    0.989   1_455 S
O305   C309    1.290   .     A
O305   Cu317   1.977   .     S
O306   C310    1.288   .     A
O306   Cu318   1.977   .     S
O307   Cu318   1.972   .     S
O307   C309    1.296   .     A
O308   Cu317   1.972   .     S
O308   C310    1.296   .     A
C309   C341    1.440   .     S
C310   C342    1.431   .     S
O311   C315    1.302   .     A
O311   Cu317   1.928   .     S
O312   Cu318   1.928   .     S
O312   C316    1.305   .     A
O313   Cu318   1.904   .     S
O313   C315    1.306   .     A
O314   C316    1.308   .     A
O314   Cu317   1.904   .     S
C315   C319    1.480   .     S
C316   C320    1.490   .     S
Cu317  N344    2.029   .     S
Cu317  Cu318   2.700   .     S
Cu318  N343    2.029   .     S
C319   C323    1.410   .     A
C319   C325    1.390   .     A
C320   C324    1.412   .     A
C320   C326    1.395   .     A
C321   C329    1.425   .     A
C321   C323    1.423   .     A
C322   C330    1.421   .     A
C322   C324    1.419   .     A
C322   O439    1.384   .     S
C323   N355    1.426   .     S
C324   N349    1.422   .     S
C325   H338    1.075   .     S
C325   C327    1.407   .     A
C326   C328    1.410   .     A
C326   H337    1.073   .     S
C327   C331    1.432   .     A
C327   C329    1.423   .     A
C328   C330    1.424   .     A
C328   C332    1.436   .     A
C329   C1019   1.415   .     S
C330   C1020   1.414   1_554 S
C331   C334    1.410   .     A
C331   C1016   1.420   .     S
C332   C333    1.412   .     A
C332   C1015   1.420   1_554 S
C333   H339    1.074   .     S
C333   C335    1.388   .     A
C334   H340    1.074   .     S
C334   C336    1.383   .     A
C335   C1013   1.415   1_554 S
C336   C1014   1.414   .     S
C336   O423    1.377   .     S
C341   C570    1.356   .     S
C341   N593    1.429   .     S
N343   N420    1.282   .     S
N343   O453    1.335   .     S
O345   H346    0.991   .     S
O345   C411    1.377   .     S
O347   H348    0.990   .     S
N349   H426    1.030   .     S
N349   C427    1.445   .     S
C351   H353    1.110   .     S
C351   H354    1.109   .     S
C351   H352    1.108   .     S
H356   N431    1.030   .     S
C357   H359    1.110   .     S
C357   H358    1.109   .     S
C357   H360    1.108   .     S
C357   N431    1.446   .     S
O361   H362    0.986   .     S
O361   C397    1.385   .     S
O363   H364    0.986   .     S
N365   H366    1.032   .     S
C367   H369    1.112   .     S
C367   H370    1.109   .     S
C367   N593    1.445   .     S
C367   H596    1.107   .     S
N371   H372    1.029   .     S
N371   C373    1.448   .     S
N371   C570    1.425   .     S
C373   H374    1.109   .     S
C373   H376    1.110   .     S
C373   H603    1.112   .     S
H378   O453    0.989   .     S
O379   N420    1.335   .     S
O379   H456    0.989   .     S
O381   C385    1.290   .     A
O381   Cu393   1.977   .     S
O382   C386    1.288   .     A
O382   Cu394   1.977   .     S
O383   Cu394   1.972   .     S
O383   C385    1.296   .     A
O384   Cu393   1.972   .     S
O384   C386    1.296   .     A
C385   C417    1.440   .     S
C386   C418    1.431   .     S
O387   C391    1.302   .     A
O387   Cu393   1.928   .     S
O388   Cu394   1.928   .     S
O388   C392    1.305   .     A
O389   Cu394   1.904   .     S
O389   C391    1.306   .     A
O390   C392    1.308   .     A
O390   Cu393   1.904   .     S
C391   C395    1.480   .     S
C392   C396    1.490   .     S
Cu393  N420    2.029   .     S
Cu393  Cu394   2.700   .     S
Cu394  N419    2.029   .     S
C395   C399    1.410   .     A
C395   C401    1.390   .     A
C396   C400    1.412   .     A
C396   C402    1.395   .     A
C397   C405    1.425   .     A
C397   C399    1.423   .     A
C398   C406    1.421   .     A
C398   C400    1.419   .     A
C398   O287    1.384   1_655 S
C399   N431    1.426   .     S
C400   N425    1.422   .     S
C401   H414    1.075   .     S
C401   C403    1.407   .     A
C402   C404    1.410   .     A
C402   H413    1.073   .     S
C403   C407    1.432   .     A
C403   C405    1.423   .     A
C404   C406    1.424   .     A
C404   C408    1.436   .     A
C405   C1095   1.415   .     S
C406   C1096   1.414   1_554 S
C407   C410    1.410   .     A
C407   C1092   1.420   .     S
C408   C409    1.412   .     A
C408   C1091   1.420   1_554 S
C409   H415    1.074   .     S
C409   C411    1.388   .     A
C410   H416    1.074   .     S
C410   C412    1.383   .     A
C411   C1089   1.415   1_554 S
C412   C1090   1.414   .     S
C412   O271    1.377   1_655 S
C417   C646    1.356   .     S
C417   N669    1.429   .     S
N419   N268    1.282   1_655 S
N419   O301    1.335   1_655 S
O421   H422    0.991   .     S
O421   C259    1.377   1_655 S
O423   H424    0.990   .     S
N425   H274    1.030   1_655 S
N425   C275    1.445   1_655 S
C427   H429    1.110   .     S
C427   H430    1.109   .     S
C427   H428    1.108   .     S
H432   N279    1.030   1_655 S
C433   H435    1.110   .     S
C433   H434    1.109   .     S
C433   H436    1.108   .     S
C433   N279    1.446   1_655 S
O437   H438    0.986   .     S
O437   C245    1.385   1_655 S
O439   H440    0.986   .     S
N441   H442    1.032   .     S
C443   H445    1.112   .     S
C443   H446    1.109   .     S
C443   N669    1.445   .     S
C443   H672    1.107   .     S
N447   H448    1.029   .     S
N447   C449    1.448   .     S
N447   C646    1.425   .     S
C449   H450    1.109   .     S
C449   H452    1.110   .     S
C449   H679    1.112   .     S
H454   O301    0.989   1_655 S
O455   N268    1.335   1_655 S
O455   H304    0.989   1_655 S
O457   C461    1.290   .     A
O457   Cu469   1.977   .     S
O458   C462    1.288   .     A
O458   Cu470   1.977   .     S
O459   Cu470   1.972   .     S
O459   C461    1.296   .     A
O460   Cu469   1.972   .     S
O460   C462    1.296   .     A
C461   C493    1.440   .     S
C462   C494    1.431   .     S
O463   C467    1.302   .     A
O463   Cu469   1.928   .     S
O464   Cu470   1.928   .     S
O464   C468    1.305   .     A
O465   Cu470   1.904   .     S
O465   C467    1.306   .     A
O466   C468    1.308   .     A
O466   Cu469   1.904   .     S
C467   C471    1.480   .     S
C468   C472    1.490   .     S
Cu469  N496    2.029   .     S
Cu469  Cu470   2.700   .     S
Cu470  N495    2.029   .     S
C471   C475    1.410   .     A
C471   C477    1.390   .     A
C472   C476    1.412   .     A
C472   C478    1.395   .     A
C473   C481    1.425   .     A
C473   C475    1.423   .     A
C473   O665    1.385   1_455 S
C474   C482    1.421   .     A
C474   C476    1.419   .     A
C474   O591    1.384   .     S
C475   N507    1.426   .     S
C476   N501    1.422   .     S
C477   H490    1.075   .     S
C477   C479    1.407   .     A
C478   C480    1.410   .     A
C478   H489    1.073   .     S
C479   C483    1.432   .     A
C479   C481    1.423   .     A
C480   C482    1.424   .     A
C480   C484    1.436   .     A
C481   C1171   1.415   .     S
C482   C1172   1.414   1_554 S
C483   C486    1.410   .     A
C483   C1168   1.420   .     S
C484   C485    1.412   .     A
C484   C1167   1.420   1_554 S
C485   H491    1.074   .     S
C485   C487    1.388   .     A
C486   H492    1.074   .     S
C486   C488    1.383   .     A
C487   C1165   1.415   1_554 S
C487   O649    1.377   1_455 S
C488   C1166   1.414   .     S
C488   O575    1.377   .     S
C493   C38     1.356   1_565 S
C493   N61     1.429   1_565 S
N495   N572    1.282   .     S
N495   O605    1.335   .     S
N496   N647    1.282   1_455 S
N496   O683    1.335   1_455 S
O497   H498    0.991   .     S
O497   C563    1.377   .     S
O499   H500    0.990   .     S
O499   C640    1.377   1_455 S
N501   H578    1.030   .     S
N501   C579    1.445   .     S
H502   N653    1.030   1_455 S
C503   H505    1.110   .     S
C503   H506    1.109   .     S
C503   H504    1.108   .     S
C503   N653    1.445   1_455 S
N507   H660    1.030   1_455 S
N507   C661    1.446   1_455 S
H508   N583    1.030   .     S
C509   H511    1.110   .     S
C509   H510    1.109   .     S
C509   H512    1.108   .     S
C509   N583    1.446   .     S
O513   H514    0.986   .     S
O513   C549    1.385   .     S
O515   H516    0.986   .     S
O515   C626    1.384   1_455 S
N517   H518    1.032   .     S
C519   H521    1.112   .     S
C519   H522    1.109   .     S
C519   N61     1.445   1_565 S
C519   H64     1.107   1_565 S
N523   H524    1.029   .     S
N523   C525    1.448   .     S
N523   C38     1.425   1_565 S
C525   H526    1.109   .     S
C525   H528    1.110   .     S
C525   H71     1.112   1_565 S
O529   N647    1.335   1_455 S
O529   H682    0.989   1_455 S
H530   O605    0.989   .     S
O531   N572    1.335   .     S
O531   H608    0.989   .     S
H532   O683    0.989   1_455 S
O533   C537    1.290   .     A
O533   Cu545   1.977   .     S
O534   C538    1.288   .     A
O534   Cu546   1.977   .     S
O535   Cu546   1.972   .     S
O535   C537    1.296   .     A
O536   Cu545   1.972   .     S
O536   C538    1.296   .     A
C537   C569    1.440   .     S
C538   C570    1.431   .     S
O539   C543    1.302   .     A
O539   Cu545   1.928   .     S
O540   Cu546   1.928   .     S
O540   C544    1.305   .     A
O541   Cu546   1.904   .     S
O541   C543    1.306   .     A
O542   C544    1.308   .     A
O542   Cu545   1.904   .     S
C543   C547    1.480   .     S
C544   C548    1.490   .     S
Cu545  N572    2.029   .     S
Cu545  Cu546   2.700   .     S
Cu546  N571    2.029   .     S
C547   C551    1.410   .     A
C547   C553    1.390   .     A
C548   C552    1.412   .     A
C548   C554    1.395   .     A
C549   C557    1.425   .     A
C549   C551    1.423   .     A
C550   C558    1.421   .     A
C550   C552    1.419   .     A
C550   O667    1.384   .     S
C551   N583    1.426   .     S
C552   N577    1.422   .     S
C553   H566    1.075   .     S
C553   C555    1.407   .     A
C554   C556    1.410   .     A
C554   H565    1.073   .     S
C555   C559    1.432   .     A
C555   C557    1.423   .     A
C556   C558    1.424   .     A
C556   C560    1.436   .     A
C557   C1247   1.415   .     S
C558   C1248   1.414   1_554 S
C559   C562    1.410   .     A
C559   C1244   1.420   .     S
C560   C561    1.412   .     A
C560   C1243   1.420   1_554 S
C561   H567    1.074   .     S
C561   C563    1.388   .     A
C562   H568    1.074   .     S
C562   C564    1.383   .     A
C563   C1241   1.415   1_554 S
C564   C1242   1.414   .     S
C564   O651    1.377   .     S
C569   C114    1.356   1_565 S
C569   N137    1.429   1_565 S
N571   N648    1.282   .     S
N571   O681    1.335   .     S
O573   H574    0.991   .     S
O573   C639    1.377   .     S
O575   H576    0.990   .     S
N577   H654    1.030   .     S
N577   C655    1.445   .     S
C579   H581    1.110   .     S
C579   H582    1.109   .     S
C579   H580    1.108   .     S
H584   N659    1.030   .     S
C585   H587    1.110   .     S
C585   H586    1.109   .     S
C585   H588    1.108   .     S
C585   N659    1.446   .     S
O589   H590    0.986   .     S
O589   C625    1.385   .     S
O591   H592    0.986   .     S
N593   H594    1.032   .     S
C595   H597    1.112   .     S
C595   H598    1.109   .     S
C595   N137    1.445   1_565 S
C595   H140    1.107   1_565 S
N599   H600    1.029   .     S
N599   C601    1.448   .     S
N599   C114    1.425   1_565 S
C601   H602    1.109   .     S
C601   H604    1.110   .     S
C601   H147    1.112   1_565 S
H606   O681    0.989   .     S
O607   N648    1.335   .     S
O607   H684    0.989   .     S
O609   C613    1.290   .     A
O609   Cu621   1.977   .     S
O610   C614    1.288   .     A
O610   Cu622   1.977   .     S
O611   Cu622   1.972   .     S
O611   C613    1.296   .     A
O612   Cu621   1.972   .     S
O612   C614    1.296   .     A
C613   C645    1.440   .     S
C614   C646    1.431   .     S
O615   C619    1.302   .     A
O615   Cu621   1.928   .     S
O616   Cu622   1.928   .     S
O616   C620    1.305   .     A
O617   Cu622   1.904   .     S
O617   C619    1.306   .     A
O618   C620    1.308   .     A
O618   Cu621   1.904   .     S
C619   C623    1.480   .     S
C620   C624    1.490   .     S
Cu621  N648    2.029   .     S
Cu621  Cu622   2.700   .     S
Cu622  N647    2.029   .     S
C623   C627    1.410   .     A
C623   C629    1.390   .     A
C624   C628    1.412   .     A
C624   C630    1.395   .     A
C625   C633    1.425   .     A
C625   C627    1.423   .     A
C626   C634    1.421   .     A
C626   C628    1.419   .     A
C626   O515    1.384   1_655 S
C627   N659    1.426   .     S
C628   N653    1.422   .     S
C629   H642    1.075   .     S
C629   C631    1.407   .     A
C630   C632    1.410   .     A
C630   H641    1.073   .     S
C631   C635    1.432   .     A
C631   C633    1.423   .     A
C632   C634    1.424   .     A
C632   C636    1.436   .     A
C633   C1323   1.415   .     S
C634   C1324   1.414   1_554 S
C635   C638    1.410   .     A
C635   C1320   1.420   .     S
C636   C637    1.412   .     A
C636   C1319   1.420   1_554 S
C637   H643    1.074   .     S
C637   C639    1.388   .     A
C638   H644    1.074   .     S
C638   C640    1.383   .     A
C639   C1317   1.415   1_554 S
C640   C1318   1.414   .     S
C640   O499    1.377   1_655 S
C645   C190    1.356   1_565 S
C645   N213    1.429   1_565 S
N647   N496    1.282   1_655 S
N647   O529    1.335   1_655 S
O649   H650    0.991   .     S
O649   C487    1.377   1_655 S
O651   H652    0.990   .     S
N653   H502    1.030   1_655 S
N653   C503    1.445   1_655 S
C655   H657    1.110   .     S
C655   H658    1.109   .     S
C655   H656    1.108   .     S
H660   N507    1.030   1_655 S
C661   H663    1.110   .     S
C661   H662    1.109   .     S
C661   H664    1.108   .     S
C661   N507    1.446   1_655 S
O665   H666    0.986   .     S
O665   C473    1.385   1_655 S
O667   H668    0.986   .     S
N669   H670    1.032   .     S
C671   H673    1.112   .     S
C671   H674    1.109   .     S
C671   N213    1.445   1_565 S
C671   H216    1.107   1_565 S
N675   H676    1.029   .     S
N675   C677    1.448   .     S
N675   C190    1.425   1_565 S
C677   H678    1.109   .     S
C677   H680    1.110   .     S
C677   H223    1.112   1_565 S
H682   O529    0.989   1_655 S
O683   N496    1.335   1_655 S
O683   H532    0.989   1_655 S
O685   C689    1.290   .     A
O685   Cu697   1.977   .     S
O686   C690    1.288   .     A
O686   Cu698   1.977   .     S
O687   Cu698   1.972   .     S
O687   C689    1.296   .     A
O688   Cu697   1.972   .     S
O688   C690    1.296   .     A
C689   C721    1.440   .     S
C690   C722    1.431   .     S
O691   C695    1.302   .     A
O691   Cu697   1.928   .     S
O692   Cu698   1.928   .     S
O692   C696    1.305   .     A
O693   Cu698   1.904   .     S
O693   C695    1.306   .     A
O694   C696    1.308   .     A
O694   Cu697   1.904   .     S
C695   C699    1.480   .     S
C696   C700    1.490   .     S
Cu697  N724    2.029   .     S
Cu697  Cu698   2.700   .     S
Cu698  N723    2.029   .     S
C699   C703    1.410   .     A
C699   C705    1.390   .     A
C700   C704    1.412   .     A
C700   C706    1.395   .     A
C701   C709    1.425   .     A
C701   C703    1.423   .     A
C701   O893    1.385   1_455 S
C702   C710    1.421   .     A
C702   C704    1.419   .     A
C702   O819    1.384   .     S
C703   N735    1.426   .     S
C704   N729    1.422   .     S
C705   H718    1.075   .     S
C705   C707    1.407   .     A
C706   C708    1.410   .     A
C706   H717    1.073   .     S
C707   C711    1.432   .     A
C707   C709    1.423   .     A
C708   C710    1.424   .     A
C708   C712    1.436   .     A
C709   C31     1.415   1_556 S
C711   C714    1.410   .     A
C711   C28     1.420   1_556 S
C712   C713    1.412   .     A
C713   H719    1.074   .     S
C713   C715    1.388   .     A
C714   H720    1.074   .     S
C714   C716    1.383   .     A
C715   O877    1.377   1_455 S
C716   C26     1.414   1_556 S
C716   O803    1.377   .     S
C721   C950    1.356   .     S
C721   N973    1.429   .     S
C722   C1177   1.356   1_545 S
C722   N1207   1.425   1_545 S
N723   N800    1.282   .     S
N723   O833    1.335   .     S
N724   N875    1.282   1_455 S
N724   O911    1.335   1_455 S
O725   H726    0.991   .     S
O725   C791    1.377   .     S
O727   H728    0.990   .     S
O727   C868    1.377   1_455 S
N729   H806    1.030   .     S
N729   C807    1.445   .     S
H730   N881    1.030   1_455 S
C731   H733    1.110   .     S
C731   H734    1.109   .     S
C731   H732    1.108   .     S
C731   N881    1.445   1_455 S
N735   H888    1.030   1_455 S
N735   C889    1.446   1_455 S
H736   N811    1.030   .     S
C737   H739    1.110   .     S
C737   H738    1.109   .     S
C737   H740    1.108   .     S
C737   N811    1.446   .     S
O741   H742    0.986   .     S
O741   C777    1.385   .     S
O743   H744    0.986   .     S
O743   C854    1.384   1_455 S
N745   H746    1.032   .     S
N745   C1177   1.429   1_545 S
N745   C1203   1.445   1_545 S
C747   H749    1.112   .     S
C747   H750    1.109   .     S
C747   N973    1.445   .     S
C747   H976    1.107   .     S
H748   C1203   1.107   1_545 S
N751   H752    1.029   .     S
N751   C753    1.448   .     S
N751   C950    1.425   .     S
C753   H754    1.109   .     S
C753   H756    1.110   .     S
C753   H983    1.112   .     S
H755   C1209   1.112   1_545 S
O757   N875    1.335   1_455 S
O757   H910    0.989   1_455 S
H758   O833    0.989   .     S
O759   N800    1.335   .     S
O759   H836    0.989   .     S
H760   O911    0.989   1_455 S
O761   C765    1.290   .     A
O761   Cu773   1.977   .     S
O762   C766    1.288   .     A
O762   Cu774   1.977   .     S
O763   Cu774   1.972   .     S
O763   C765    1.296   .     A
O764   Cu773   1.972   .     S
O764   C766    1.296   .     A
C765   C797    1.440   .     S
C766   C798    1.431   .     S
O767   C771    1.302   .     A
O767   Cu773   1.928   .     S
O768   Cu774   1.928   .     S
O768   C772    1.305   .     A
O769   Cu774   1.904   .     S
O769   C771    1.306   .     A
O770   C772    1.308   .     A
O770   Cu773   1.904   .     S
C771   C775    1.480   .     S
C772   C776    1.490   .     S
Cu773  N800    2.029   .     S
Cu773  Cu774   2.700   .     S
Cu774  N799    2.029   .     S
C775   C779    1.410   .     A
C775   C781    1.390   .     A
C776   C780    1.412   .     A
C776   C782    1.395   .     A
C777   C785    1.425   .     A
C777   C779    1.423   .     A
C778   C786    1.421   .     A
C778   C780    1.419   .     A
C778   O895    1.384   .     S
C779   N811    1.426   .     S
C780   N805    1.422   .     S
C781   H794    1.075   .     S
C781   C783    1.407   .     A
C782   C784    1.410   .     A
C782   H793    1.073   .     S
C783   C787    1.432   .     A
C783   C785    1.423   .     A
C784   C786    1.424   .     A
C784   C788    1.436   .     A
C785   C107    1.415   1_556 S
C787   C790    1.410   .     A
C787   C104    1.420   1_556 S
C788   C789    1.412   .     A
C789   H795    1.074   .     S
C789   C791    1.388   .     A
C790   H796    1.074   .     S
C790   C792    1.383   .     A
C792   C102    1.414   1_556 S
C792   O879    1.377   .     S
C797   C1026   1.356   .     S
C797   N1049   1.429   .     S
C798   C1253   1.356   1_545 S
C798   N1283   1.425   1_545 S
N799   N876    1.282   .     S
N799   O909    1.335   .     S
O801   H802    0.991   .     S
O801   C867    1.377   .     S
O803   H804    0.990   .     S
N805   H882    1.030   .     S
N805   C883    1.445   .     S
C807   H809    1.110   .     S
C807   H810    1.109   .     S
C807   H808    1.108   .     S
H812   N887    1.030   .     S
C813   H815    1.110   .     S
C813   H814    1.109   .     S
C813   H816    1.108   .     S
C813   N887    1.446   .     S
O817   H818    0.986   .     S
O817   C853    1.385   .     S
O819   H820    0.986   .     S
N821   H822    1.032   .     S
N821   C1253   1.429   1_545 S
N821   C1279   1.445   1_545 S
C823   H825    1.112   .     S
C823   H826    1.109   .     S
C823   N1049   1.445   .     S
C823   H1052   1.107   .     S
H824   C1279   1.107   1_545 S
N827   H828    1.029   .     S
N827   C829    1.448   .     S
N827   C1026   1.425   .     S
C829   H830    1.109   .     S
C829   H832    1.110   .     S
C829   H1059   1.112   .     S
H831   C1285   1.112   1_545 S
H834   O909    0.989   .     S
O835   N876    1.335   .     S
O835   H912    0.989   .     S
O837   C841    1.290   .     A
O837   Cu849   1.977   .     S
O838   C842    1.288   .     A
O838   Cu850   1.977   .     S
O839   Cu850   1.972   .     S
O839   C841    1.296   .     A
O840   Cu849   1.972   .     S
O840   C842    1.296   .     A
C841   C873    1.440   .     S
C842   C874    1.431   .     S
O843   C847    1.302   .     A
O843   Cu849   1.928   .     S
O844   Cu850   1.928   .     S
O844   C848    1.305   .     A
O845   Cu850   1.904   .     S
O845   C847    1.306   .     A
O846   C848    1.308   .     A
O846   Cu849   1.904   .     S
C847   C851    1.480   .     S
C848   C852    1.490   .     S
Cu849  N876    2.029   .     S
Cu849  Cu850   2.700   .     S
Cu850  N875    2.029   .     S
C851   C855    1.410   .     A
C851   C857    1.390   .     A
C852   C856    1.412   .     A
C852   C858    1.395   .     A
C853   C861    1.425   .     A
C853   C855    1.423   .     A
C854   C862    1.421   .     A
C854   C856    1.419   .     A
C854   O743    1.384   1_655 S
C855   N887    1.426   .     S
C856   N881    1.422   .     S
C857   H870    1.075   .     S
C857   C859    1.407   .     A
C858   C860    1.410   .     A
C858   H869    1.073   .     S
C859   C863    1.432   .     A
C859   C861    1.423   .     A
C860   C862    1.424   .     A
C860   C864    1.436   .     A
C861   C183    1.415   1_556 S
C863   C866    1.410   .     A
C863   C180    1.420   1_556 S
C864   C865    1.412   .     A
C865   H871    1.074   .     S
C865   C867    1.388   .     A
C866   H872    1.074   .     S
C866   C868    1.383   .     A
C868   C178    1.414   1_556 S
C868   O727    1.377   1_655 S
C873   C1102   1.356   .     S
C873   N1125   1.429   .     S
C874   C1329   1.356   1_545 S
C874   N1359   1.425   1_545 S
N875   N724    1.282   1_655 S
N875   O757    1.335   1_655 S
O877   H878    0.991   .     S
O877   C715    1.377   1_655 S
O879   H880    0.990   .     S
N881   H730    1.030   1_655 S
N881   C731    1.445   1_655 S
C883   H885    1.110   .     S
C883   H886    1.109   .     S
C883   H884    1.108   .     S
H888   N735    1.030   1_655 S
C889   H891    1.110   .     S
C889   H890    1.109   .     S
C889   H892    1.108   .     S
C889   N735    1.446   1_655 S
O893   H894    0.986   .     S
O893   C701    1.385   1_655 S
O895   H896    0.986   .     S
N897   H898    1.032   .     S
N897   C1329   1.429   1_545 S
N897   C1355   1.445   1_545 S
C899   H901    1.112   .     S
C899   H902    1.109   .     S
C899   N1125   1.445   .     S
C899   H1128   1.107   .     S
H900   C1355   1.107   1_545 S
N903   H904    1.029   .     S
N903   C905    1.448   .     S
N903   C1102   1.425   .     S
C905   H906    1.109   .     S
C905   H908    1.110   .     S
C905   H1135   1.112   .     S
H907   C1361   1.112   1_545 S
H910   O757    0.989   1_655 S
O911   N724    1.335   1_655 S
O911   H760    0.989   1_655 S
O913   C917    1.290   .     A
O913   Cu925   1.977   .     S
O914   C918    1.288   .     A
O914   Cu926   1.977   .     S
O915   Cu926   1.972   .     S
O915   C917    1.296   .     A
O916   Cu925   1.972   .     S
O916   C918    1.296   .     A
C917   C949    1.440   .     S
C918   C950    1.431   .     S
O919   C923    1.302   .     A
O919   Cu925   1.928   .     S
O920   Cu926   1.928   .     S
O920   C924    1.305   .     A
O921   Cu926   1.904   .     S
O921   C923    1.306   .     A
O922   C924    1.308   .     A
O922   Cu925   1.904   .     S
C923   C927    1.480   .     S
C924   C928    1.490   .     S
Cu925  N952    2.029   .     S
Cu925  Cu926   2.700   .     S
Cu926  N951    2.029   .     S
C927   C931    1.410   .     A
C927   C933    1.390   .     A
C928   C932    1.412   .     A
C928   C934    1.395   .     A
C929   C937    1.425   .     A
C929   C931    1.423   .     A
C929   O1121   1.385   1_455 S
C930   C938    1.421   .     A
C930   C932    1.419   .     A
C930   O1047   1.384   .     S
C931   N963    1.426   .     S
C932   N957    1.422   .     S
C933   H946    1.075   .     S
C933   C935    1.407   .     A
C934   C936    1.410   .     A
C934   H945    1.073   .     S
C935   C939    1.432   .     A
C935   C937    1.423   .     A
C936   C938    1.424   .     A
C936   C940    1.436   .     A
C937   C259    1.415   1_556 S
C939   C942    1.410   .     A
C939   C256    1.420   1_556 S
C940   C941    1.412   .     A
C941   H947    1.074   .     S
C941   C943    1.388   .     A
C942   H948    1.074   .     S
C942   C944    1.383   .     A
C943   O1105   1.377   1_455 S
C944   C254    1.414   1_556 S
C944   O1031   1.377   .     S
C949   C1178   1.356   .     S
C949   N1201   1.429   .     S
N951   N1028   1.282   .     S
N951   O1061   1.335   .     S
N952   N1103   1.282   1_455 S
N952   O1139   1.335   1_455 S
O953   H954    0.991   .     S
O953   C1019   1.377   .     S
O955   H956    0.990   .     S
O955   C1096   1.377   1_455 S
N957   H1034   1.030   .     S
N957   C1035   1.445   .     S
H958   N1109   1.030   1_455 S
C959   H961    1.110   .     S
C959   H962    1.109   .     S
C959   H960    1.108   .     S
C959   N1109   1.445   1_455 S
N963   H1116   1.030   1_455 S
N963   C1117   1.446   1_455 S
H964   N1039   1.030   .     S
C965   H967    1.110   .     S
C965   H966    1.109   .     S
C965   H968    1.108   .     S
C965   N1039   1.446   .     S
O969   H970    0.986   .     S
O969   C1005   1.385   .     S
O971   H972    0.986   .     S
O971   C1082   1.384   1_455 S
N973   H974    1.032   .     S
C975   H977    1.112   .     S
C975   H978    1.109   .     S
C975   N1201   1.445   .     S
C975   H1204   1.107   .     S
N979   H980    1.029   .     S
N979   C981    1.448   .     S
N979   C1178   1.425   .     S
C981   H982    1.109   .     S
C981   H984    1.110   .     S
C981   H1211   1.112   .     S
O985   N1103   1.335   1_455 S
O985   H1138   0.989   1_455 S
H986   O1061   0.989   .     S
O987   N1028   1.335   .     S
O987   H1064   0.989   .     S
H988   O1139   0.989   1_455 S
O989   C993    1.290   .     A
O989   Cu1001  1.977   .     S
O990   C994    1.288   .     A
O990   Cu1002  1.977   .     S
O991   Cu1002  1.972   .     S
O991   C993    1.296   .     A
O992   Cu1001  1.972   .     S
O992   C994    1.296   .     A
C993   C1025   1.440   .     S
C994   C1026   1.431   .     S
O995   C999    1.302   .     A
O995   Cu1001  1.928   .     S
O996   Cu1002  1.928   .     S
O996   C1000   1.305   .     A
O997   Cu1002  1.904   .     S
O997   C999    1.306   .     A
O998   C1000   1.308   .     A
O998   Cu1001  1.904   .     S
C999   C1003   1.480   .     S
C1000  C1004   1.490   .     S
Cu1001 N1028   2.029   .     S
Cu1001 Cu1002  2.700   .     S
Cu1002 N1027   2.029   .     S
C1003  C1007   1.410   .     A
C1003  C1009   1.390   .     A
C1004  C1008   1.412   .     A
C1004  C1010   1.395   .     A
C1005  C1013   1.425   .     A
C1005  C1007   1.423   .     A
C1006  C1014   1.421   .     A
C1006  C1008   1.419   .     A
C1006  O1123   1.384   .     S
C1007  N1039   1.426   .     S
C1008  N1033   1.422   .     S
C1009  H1022   1.075   .     S
C1009  C1011   1.407   .     A
C1010  C1012   1.410   .     A
C1010  H1021   1.073   .     S
C1011  C1015   1.432   .     A
C1011  C1013   1.423   .     A
C1012  C1014   1.424   .     A
C1012  C1016   1.436   .     A
C1013  C335    1.415   1_556 S
C1015  C1018   1.410   .     A
C1015  C332    1.420   1_556 S
C1016  C1017   1.412   .     A
C1017  H1023   1.074   .     S
C1017  C1019   1.388   .     A
C1018  H1024   1.074   .     S
C1018  C1020   1.383   .     A
C1020  C330    1.414   1_556 S
C1020  O1107   1.377   .     S
C1025  C1254   1.356   .     S
C1025  N1277   1.429   .     S
N1027  N1104   1.282   .     S
N1027  O1137   1.335   .     S
O1029  H1030   0.991   .     S
O1029  C1095   1.377   .     S
O1031  H1032   0.990   .     S
N1033  H1110   1.030   .     S
N1033  C1111   1.445   .     S
C1035  H1037   1.110   .     S
C1035  H1038   1.109   .     S
C1035  H1036   1.108   .     S
H1040  N1115   1.030   .     S
C1041  H1043   1.110   .     S
C1041  H1042   1.109   .     S
C1041  H1044   1.108   .     S
C1041  N1115   1.446   .     S
O1045  H1046   0.986   .     S
O1045  C1081   1.385   .     S
O1047  H1048   0.986   .     S
N1049  H1050   1.032   .     S
C1051  H1053   1.112   .     S
C1051  H1054   1.109   .     S
C1051  N1277   1.445   .     S
C1051  H1280   1.107   .     S
N1055  H1056   1.029   .     S
N1055  C1057   1.448   .     S
N1055  C1254   1.425   .     S
C1057  H1058   1.109   .     S
C1057  H1060   1.110   .     S
C1057  H1287   1.112   .     S
H1062  O1137   0.989   .     S
O1063  N1104   1.335   .     S
O1063  H1140   0.989   .     S
O1065  C1069   1.290   .     A
O1065  Cu1077  1.977   .     S
O1066  C1070   1.288   .     A
O1066  Cu1078  1.977   .     S
O1067  Cu1078  1.972   .     S
O1067  C1069   1.296   .     A
O1068  Cu1077  1.972   .     S
O1068  C1070   1.296   .     A
C1069  C1101   1.440   .     S
C1070  C1102   1.431   .     S
O1071  C1075   1.302   .     A
O1071  Cu1077  1.928   .     S
O1072  Cu1078  1.928   .     S
O1072  C1076   1.305   .     A
O1073  Cu1078  1.904   .     S
O1073  C1075   1.306   .     A
O1074  C1076   1.308   .     A
O1074  Cu1077  1.904   .     S
C1075  C1079   1.480   .     S
C1076  C1080   1.490   .     S
Cu1077 N1104   2.029   .     S
Cu1077 Cu1078  2.700   .     S
Cu1078 N1103   2.029   .     S
C1079  C1083   1.410   .     A
C1079  C1085   1.390   .     A
C1080  C1084   1.412   .     A
C1080  C1086   1.395   .     A
C1081  C1089   1.425   .     A
C1081  C1083   1.423   .     A
C1082  C1090   1.421   .     A
C1082  C1084   1.419   .     A
C1082  O971    1.384   1_655 S
C1083  N1115   1.426   .     S
C1084  N1109   1.422   .     S
C1085  H1098   1.075   .     S
C1085  C1087   1.407   .     A
C1086  C1088   1.410   .     A
C1086  H1097   1.073   .     S
C1087  C1091   1.432   .     A
C1087  C1089   1.423   .     A
C1088  C1090   1.424   .     A
C1088  C1092   1.436   .     A
C1089  C411    1.415   1_556 S
C1091  C1094   1.410   .     A
C1091  C408    1.420   1_556 S
C1092  C1093   1.412   .     A
C1093  H1099   1.074   .     S
C1093  C1095   1.388   .     A
C1094  H1100   1.074   .     S
C1094  C1096   1.383   .     A
C1096  C406    1.414   1_556 S
C1096  O955    1.377   1_655 S
C1101  C1330   1.356   .     S
C1101  N1353   1.429   .     S
N1103  N952    1.282   1_655 S
N1103  O985    1.335   1_655 S
O1105  H1106   0.991   .     S
O1105  C943    1.377   1_655 S
O1107  H1108   0.990   .     S
N1109  H958    1.030   1_655 S
N1109  C959    1.445   1_655 S
C1111  H1113   1.110   .     S
C1111  H1114   1.109   .     S
C1111  H1112   1.108   .     S
H1116  N963    1.030   1_655 S
C1117  H1119   1.110   .     S
C1117  H1118   1.109   .     S
C1117  H1120   1.108   .     S
C1117  N963    1.446   1_655 S
O1121  H1122   0.986   .     S
O1121  C929    1.385   1_655 S
O1123  H1124   0.986   .     S
N1125  H1126   1.032   .     S
C1127  H1129   1.112   .     S
C1127  H1130   1.109   .     S
C1127  N1353   1.445   .     S
C1127  H1356   1.107   .     S
N1131  H1132   1.029   .     S
N1131  C1133   1.448   .     S
N1131  C1330   1.425   .     S
C1133  H1134   1.109   .     S
C1133  H1136   1.110   .     S
C1133  H1363   1.112   .     S
H1138  O985    0.989   1_655 S
O1139  N952    1.335   1_655 S
O1139  H988    0.989   1_655 S
O1141  C1145   1.290   .     A
O1141  Cu1153  1.977   .     S
O1142  C1146   1.288   .     A
O1142  Cu1154  1.977   .     S
O1143  Cu1154  1.972   .     S
O1143  C1145   1.296   .     A
O1144  Cu1153  1.972   .     S
O1144  C1146   1.296   .     A
C1145  C1177   1.440   .     S
C1146  C1178   1.431   .     S
O1147  C1151   1.302   .     A
O1147  Cu1153  1.928   .     S
O1148  Cu1154  1.928   .     S
O1148  C1152   1.305   .     A
O1149  Cu1154  1.904   .     S
O1149  C1151   1.306   .     A
O1150  C1152   1.308   .     A
O1150  Cu1153  1.904   .     S
C1151  C1155   1.480   .     S
C1152  C1156   1.490   .     S
Cu1153 N1180   2.029   .     S
Cu1153 Cu1154  2.700   .     S
Cu1154 N1179   2.029   .     S
C1155  C1159   1.410   .     A
C1155  C1161   1.390   .     A
C1156  C1160   1.412   .     A
C1156  C1162   1.395   .     A
C1157  C1165   1.425   .     A
C1157  C1159   1.423   .     A
C1157  O1349   1.385   1_455 S
C1158  C1166   1.421   .     A
C1158  C1160   1.419   .     A
C1158  O1275   1.384   .     S
C1159  N1191   1.426   .     S
C1160  N1185   1.422   .     S
C1161  H1174   1.075   .     S
C1161  C1163   1.407   .     A
C1162  C1164   1.410   .     A
C1162  H1173   1.073   .     S
C1163  C1167   1.432   .     A
C1163  C1165   1.423   .     A
C1164  C1166   1.424   .     A
C1164  C1168   1.436   .     A
C1165  C487    1.415   1_556 S
C1167  C1170   1.410   .     A
C1167  C484    1.420   1_556 S
C1168  C1169   1.412   .     A
C1169  H1175   1.074   .     S
C1169  C1171   1.388   .     A
C1170  H1176   1.074   .     S
C1170  C1172   1.383   .     A
C1171  O1333   1.377   1_455 S
C1172  C482    1.414   1_556 S
C1172  O1259   1.377   .     S
C1177  C722    1.356   1_565 S
C1177  N745    1.429   1_565 S
N1179  N1256   1.282   .     S
N1179  O1289   1.335   .     S
N1180  N1331   1.282   1_455 S
N1180  O1367   1.335   1_455 S
O1181  H1182   0.991   .     S
O1181  C1247   1.377   .     S
O1183  H1184   0.990   .     S
O1183  C1324   1.377   1_455 S
N1185  H1262   1.030   .     S
N1185  C1263   1.445   .     S
H1186  N1337   1.030   1_455 S
C1187  H1189   1.110   .     S
C1187  H1190   1.109   .     S
C1187  H1188   1.108   .     S
C1187  N1337   1.445   1_455 S
N1191  H1344   1.030   1_455 S
N1191  C1345   1.446   1_455 S
H1192  N1267   1.030   .     S
C1193  H1195   1.110   .     S
C1193  H1194   1.109   .     S
C1193  H1196   1.108   .     S
C1193  N1267   1.446   .     S
O1197  H1198   0.986   .     S
O1197  C1233   1.385   .     S
O1199  H1200   0.986   .     S
O1199  C1310   1.384   1_455 S
N1201  H1202   1.032   .     S
C1203  H1205   1.112   .     S
C1203  H1206   1.109   .     S
C1203  N745    1.445   1_565 S
C1203  H748    1.107   1_565 S
N1207  H1208   1.029   .     S
N1207  C1209   1.448   .     S
N1207  C722    1.425   1_565 S
C1209  H1210   1.109   .     S
C1209  H1212   1.110   .     S
C1209  H755    1.112   1_565 S
O1213  N1331   1.335   1_455 S
O1213  H1366   0.989   1_455 S
H1214  O1289   0.989   .     S
O1215  N1256   1.335   .     S
O1215  H1292   0.989   .     S
H1216  O1367   0.989   1_455 S
O1217  C1221   1.290   .     A
O1217  Cu1229  1.977   .     S
O1218  C1222   1.288   .     A
O1218  Cu1230  1.977   .     S
O1219  Cu1230  1.972   .     S
O1219  C1221   1.296   .     A
O1220  Cu1229  1.972   .     S
O1220  C1222   1.296   .     A
C1221  C1253   1.440   .     S
C1222  C1254   1.431   .     S
O1223  C1227   1.302   .     A
O1223  Cu1229  1.928   .     S
O1224  Cu1230  1.928   .     S
O1224  C1228   1.305   .     A
O1225  Cu1230  1.904   .     S
O1225  C1227   1.306   .     A
O1226  C1228   1.308   .     A
O1226  Cu1229  1.904   .     S
C1227  C1231   1.480   .     S
C1228  C1232   1.490   .     S
Cu1229 N1256   2.029   .     S
Cu1229 Cu1230  2.700   .     S
Cu1230 N1255   2.029   .     S
C1231  C1235   1.410   .     A
C1231  C1237   1.390   .     A
C1232  C1236   1.412   .     A
C1232  C1238   1.395   .     A
C1233  C1241   1.425   .     A
C1233  C1235   1.423   .     A
C1234  C1242   1.421   .     A
C1234  C1236   1.419   .     A
C1234  O1351   1.384   .     S
C1235  N1267   1.426   .     S
C1236  N1261   1.422   .     S
C1237  H1250   1.075   .     S
C1237  C1239   1.407   .     A
C1238  C1240   1.410   .     A
C1238  H1249   1.073   .     S
C1239  C1243   1.432   .     A
C1239  C1241   1.423   .     A
C1240  C1242   1.424   .     A
C1240  C1244   1.436   .     A
C1241  C563    1.415   1_556 S
C1243  C1246   1.410   .     A
C1243  C560    1.420   1_556 S
C1244  C1245   1.412   .     A
C1245  H1251   1.074   .     S
C1245  C1247   1.388   .     A
C1246  H1252   1.074   .     S
C1246  C1248   1.383   .     A
C1248  C558    1.414   1_556 S
C1248  O1335   1.377   .     S
C1253  C798    1.356   1_565 S
C1253  N821    1.429   1_565 S
N1255  N1332   1.282   .     S
N1255  O1365   1.335   .     S
O1257  H1258   0.991   .     S
O1257  C1323   1.377   .     S
O1259  H1260   0.990   .     S
N1261  H1338   1.030   .     S
N1261  C1339   1.445   .     S
C1263  H1265   1.110   .     S
C1263  H1266   1.109   .     S
C1263  H1264   1.108   .     S
H1268  N1343   1.030   .     S
C1269  H1271   1.110   .     S
C1269  H1270   1.109   .     S
C1269  H1272   1.108   .     S
C1269  N1343   1.446   .     S
O1273  H1274   0.986   .     S
O1273  C1309   1.385   .     S
O1275  H1276   0.986   .     S
N1277  H1278   1.032   .     S
C1279  H1281   1.112   .     S
C1279  H1282   1.109   .     S
C1279  N821    1.445   1_565 S
C1279  H824    1.107   1_565 S
N1283  H1284   1.029   .     S
N1283  C1285   1.448   .     S
N1283  C798    1.425   1_565 S
C1285  H1286   1.109   .     S
C1285  H1288   1.110   .     S
C1285  H831    1.112   1_565 S
H1290  O1365   0.989   .     S
O1291  N1332   1.335   .     S
O1291  H1368   0.989   .     S
O1293  C1297   1.290   .     A
O1293  Cu1305  1.977   .     S
O1294  C1298   1.288   .     A
O1294  Cu1306  1.977   .     S
O1295  Cu1306  1.972   .     S
O1295  C1297   1.296   .     A
O1296  Cu1305  1.972   .     S
O1296  C1298   1.296   .     A
C1297  C1329   1.440   .     S
C1298  C1330   1.431   .     S
O1299  C1303   1.302   .     A
O1299  Cu1305  1.928   .     S
O1300  Cu1306  1.928   .     S
O1300  C1304   1.305   .     A
O1301  Cu1306  1.904   .     S
O1301  C1303   1.306   .     A
O1302  C1304   1.308   .     A
O1302  Cu1305  1.904   .     S
C1303  C1307   1.480   .     S
C1304  C1308   1.490   .     S
Cu1305 N1332   2.029   .     S
Cu1305 Cu1306  2.700   .     S
Cu1306 N1331   2.029   .     S
C1307  C1311   1.410   .     A
C1307  C1313   1.390   .     A
C1308  C1312   1.412   .     A
C1308  C1314   1.395   .     A
C1309  C1317   1.425   .     A
C1309  C1311   1.423   .     A
C1310  C1318   1.421   .     A
C1310  C1312   1.419   .     A
C1310  O1199   1.384   1_655 S
C1311  N1343   1.426   .     S
C1312  N1337   1.422   .     S
C1313  H1326   1.075   .     S
C1313  C1315   1.407   .     A
C1314  C1316   1.410   .     A
C1314  H1325   1.073   .     S
C1315  C1319   1.432   .     A
C1315  C1317   1.423   .     A
C1316  C1318   1.424   .     A
C1316  C1320   1.436   .     A
C1317  C639    1.415   1_556 S
C1319  C1322   1.410   .     A
C1319  C636    1.420   1_556 S
C1320  C1321   1.412   .     A
C1321  H1327   1.074   .     S
C1321  C1323   1.388   .     A
C1322  H1328   1.074   .     S
C1322  C1324   1.383   .     A
C1324  C634    1.414   1_556 S
C1324  O1183   1.377   1_655 S
C1329  C874    1.356   1_565 S
C1329  N897    1.429   1_565 S
N1331  N1180   1.282   1_655 S
N1331  O1213   1.335   1_655 S
O1333  H1334   0.991   .     S
O1333  C1171   1.377   1_655 S
O1335  H1336   0.990   .     S
N1337  H1186   1.030   1_655 S
N1337  C1187   1.445   1_655 S
C1339  H1341   1.110   .     S
C1339  H1342   1.109   .     S
C1339  H1340   1.108   .     S
H1344  N1191   1.030   1_655 S
C1345  H1347   1.110   .     S
C1345  H1346   1.109   .     S
C1345  H1348   1.108   .     S
C1345  N1191   1.446   1_655 S
O1349  H1350   0.986   .     S
O1349  C1157   1.385   1_655 S
O1351  H1352   0.986   .     S
N1353  H1354   1.032   .     S
C1355  H1357   1.112   .     S
C1355  H1358   1.109   .     S
C1355  N897    1.445   1_565 S
C1355  H900    1.107   1_565 S
N1359  H1360   1.029   .     S
N1359  C1361   1.448   .     S
N1359  C874    1.425   1_565 S
C1361  H1362   1.109   .     S
C1361  H1364   1.110   .     S
C1361  H907    1.112   1_565 S
H1366  O1213   0.989   1_655 S
O1367  N1180   1.335   1_655 S
O1367  H1216   0.989   1_655 S
