data_str_m2_o2_o5_pcu_sym.73
_audit_creation_date              2020-01-03
_audit_creation_method            'Materials Studio'
_symmetry_space_group_name_H-M    'P1'
_symmetry_Int_Tables_number       1
_symmetry_cell_setting            triclinic
loop_
_symmetry_equiv_pos_as_xyz
  x,y,z
_cell_length_a                    30.2852
_cell_length_b                    27.9542
_cell_length_c                    27.2165
_cell_angle_alpha                 90.2345
_cell_angle_beta                  91.8831
_cell_angle_gamma                 89.7461
loop_
_atom_site_label
_atom_site_type_symbol
_atom_site_fract_x
_atom_site_fract_y
_atom_site_fract_z
_atom_site_U_iso_or_equiv
_atom_site_adp_type
_atom_site_occupancy
C1     C     0.16502   0.25006   0.16672   0.00000  Uiso   1.00
C2     C     0.27047   0.44582   0.20607   0.00000  Uiso   1.00
C3     C     0.24993   0.24994   0.07359   0.00000  Uiso   1.00
C4     C     0.25007   0.25006   0.25974   0.00000  Uiso   1.00
C5     C     0.25248   0.02741   0.16377   0.00000  Uiso   1.00
C6     C     0.24731   0.47263   0.16932   0.00000  Uiso   1.00
C7     C     0.24998   0.24992   0.02186   0.00000  Uiso   1.00
C8     C     0.25003   0.25008   0.31147   0.00000  Uiso   1.00
C9     C     0.04690   0.29100   0.15360   0.00000  Uiso   1.00
C10    C     0.45202   0.20875   0.15194   0.00000  Uiso   1.00
C11    C     0.45264   0.29028   0.18279   0.00000  Uiso   1.00
C12    C     0.33497   0.24990   0.16680   0.00000  Uiso   1.00
C13    C     0.04834   0.20848   0.18083   0.00000  Uiso   1.00
C14    C     0.09279   0.29133   0.15396   0.00000  Uiso   1.00
C15    C     0.40611   0.20870   0.15219   0.00000  Uiso   1.00
C16    C     0.40675   0.29051   0.18220   0.00000  Uiso   1.00
C17    C     0.09423   0.20857   0.18034   0.00000  Uiso   1.00
C18    C     0.11675   0.25004   0.16703   0.00000  Uiso   1.00
C19    C     0.38321   0.24969   0.16706   0.00000  Uiso   1.00
C20    C     0.02427   0.24964   0.16724   0.00000  Uiso   1.00
C21    C     0.47568   0.24951   0.16736   0.00000  Uiso   1.00
C22    C     0.28061   0.10446   0.19496   0.00000  Uiso   1.00
C23    C     0.21983   0.39549   0.13774   0.00000  Uiso   1.00
C24    C     0.22478   0.10452   0.13239   0.00000  Uiso   1.00
C25    C     0.27468   0.39560   0.20135   0.00000  Uiso   1.00
C26    C     0.28487   0.05420   0.19058   0.00000  Uiso   1.00
C27    C     0.21529   0.44570   0.14211   0.00000  Uiso   1.00
C28    C     0.22896   0.05434   0.12739   0.00000  Uiso   1.00
Cl29   Cl    0.31676   0.13434   0.23668   0.00000  Uiso   1.00
Cl30   Cl    0.18464   0.36564   0.09505   0.00000  Uiso   1.00
Cl31   Cl    0.18724   0.13437   0.09218   0.00000  Uiso   1.00
Cl32   Cl    0.31162   0.36592   0.24233   0.00000  Uiso   1.00
Cl33   Cl    0.33826   0.02975   0.20232   0.00000  Uiso   1.00
Cl34   Cl    0.16174   0.46966   0.13025   0.00000  Uiso   1.00
Cl35   Cl    0.22025   0.03051   0.06741   0.00000  Uiso   1.00
Cl36   Cl    0.27910   0.47012   0.26587   0.00000  Uiso   1.00
Cu37   Cu    0.25000   0.29821   0.16667   0.00000  Uiso   1.00
Cu38   Cu    0.25000   0.20178   0.16667   0.00000  Uiso   1.00
H39    H     0.02916   0.32297   0.14210   0.00000  Uiso   1.00
H40    H     0.46892   0.17712   0.13903   0.00000  Uiso   1.00
H41    H     0.47005   0.32187   0.19580   0.00000  Uiso   1.00
H42    H     0.03177   0.17640   0.19240   0.00000  Uiso   1.00
H43    H     0.10941   0.32370   0.14342   0.00000  Uiso   1.00
H44    H     0.38854   0.17690   0.14001   0.00000  Uiso   1.00
H45    H     0.38977   0.32242   0.19418   0.00000  Uiso   1.00
H46    H     0.11206   0.17638   0.19101   0.00000  Uiso   1.00
N47    N     0.25000   0.12934   0.16667   0.00000  Uiso   1.00
N48    N     0.25000   0.37065   0.16667   0.00000  Uiso   1.00
O49    O     0.18573   0.29071   0.16667   0.00000  Uiso   1.00
O50    O     0.31427   0.20928   0.16666   0.00000  Uiso   1.00
O51    O     0.31427   0.29071   0.16666   0.00000  Uiso   1.00
O52    O     0.18573   0.20928   0.16667   0.00000  Uiso   1.00
O53    O     0.25000   0.29071   0.09613   0.00000  Uiso   1.00
O54    O     0.25000   0.20929   0.23720   0.00000  Uiso   1.00
O55    O     0.25000   0.29071   0.23720   0.00000  Uiso   1.00
O56    O     0.25000   0.20929   0.09613   0.00000  Uiso   1.00
C57    C     0.66502   0.25006   0.16672   0.00000  Uiso   1.00
C58    C     0.77047   0.44582   0.20607   0.00000  Uiso   1.00
C59    C     0.74993   0.24994   0.07359   0.00000  Uiso   1.00
C60    C     0.75007   0.25006   0.25974   0.00000  Uiso   1.00
C61    C     0.75248   0.02741   0.16377   0.00000  Uiso   1.00
C62    C     0.74731   0.47263   0.16932   0.00000  Uiso   1.00
C63    C     0.74998   0.24992   0.02186   0.00000  Uiso   1.00
C64    C     0.75003   0.25008   0.31147   0.00000  Uiso   1.00
C65    C     0.54690   0.29100   0.15360   0.00000  Uiso   1.00
C66    C     0.95202   0.20875   0.15194   0.00000  Uiso   1.00
C67    C     0.95264   0.29028   0.18279   0.00000  Uiso   1.00
C68    C     0.83497   0.24990   0.16680   0.00000  Uiso   1.00
C69    C     0.54834   0.20848   0.18083   0.00000  Uiso   1.00
C70    C     0.59279   0.29133   0.15396   0.00000  Uiso   1.00
C71    C     0.90611   0.20870   0.15219   0.00000  Uiso   1.00
C72    C     0.90675   0.29051   0.18220   0.00000  Uiso   1.00
C73    C     0.59423   0.20857   0.18034   0.00000  Uiso   1.00
C74    C     0.61675   0.25004   0.16703   0.00000  Uiso   1.00
C75    C     0.88321   0.24969   0.16706   0.00000  Uiso   1.00
C76    C     0.52427   0.24964   0.16724   0.00000  Uiso   1.00
C77    C     0.97568   0.24951   0.16736   0.00000  Uiso   1.00
C78    C     0.78061   0.10446   0.19496   0.00000  Uiso   1.00
C79    C     0.71983   0.39549   0.13774   0.00000  Uiso   1.00
C80    C     0.72478   0.10452   0.13239   0.00000  Uiso   1.00
C81    C     0.77468   0.39560   0.20135   0.00000  Uiso   1.00
C82    C     0.78487   0.05420   0.19058   0.00000  Uiso   1.00
C83    C     0.71529   0.44570   0.14211   0.00000  Uiso   1.00
C84    C     0.72896   0.05434   0.12739   0.00000  Uiso   1.00
Cl85   Cl    0.81676   0.13434   0.23668   0.00000  Uiso   1.00
Cl86   Cl    0.68464   0.36564   0.09505   0.00000  Uiso   1.00
Cl87   Cl    0.68724   0.13437   0.09218   0.00000  Uiso   1.00
Cl88   Cl    0.81162   0.36592   0.24233   0.00000  Uiso   1.00
Cl89   Cl    0.83826   0.02975   0.20232   0.00000  Uiso   1.00
Cl90   Cl    0.66174   0.46966   0.13025   0.00000  Uiso   1.00
Cl91   Cl    0.72025   0.03051   0.06741   0.00000  Uiso   1.00
Cl92   Cl    0.77910   0.47012   0.26587   0.00000  Uiso   1.00
Cu93   Cu    0.75000   0.29821   0.16667   0.00000  Uiso   1.00
Cu94   Cu    0.75000   0.20178   0.16667   0.00000  Uiso   1.00
H95    H     0.52916   0.32297   0.14210   0.00000  Uiso   1.00
H96    H     0.96892   0.17712   0.13903   0.00000  Uiso   1.00
H97    H     0.97005   0.32187   0.19580   0.00000  Uiso   1.00
H98    H     0.53177   0.17640   0.19240   0.00000  Uiso   1.00
H99    H     0.60941   0.32370   0.14342   0.00000  Uiso   1.00
H100   H     0.88854   0.17690   0.14001   0.00000  Uiso   1.00
H101   H     0.88977   0.32242   0.19418   0.00000  Uiso   1.00
H102   H     0.61206   0.17638   0.19101   0.00000  Uiso   1.00
N103   N     0.75000   0.12934   0.16667   0.00000  Uiso   1.00
N104   N     0.75000   0.37065   0.16667   0.00000  Uiso   1.00
O105   O     0.68573   0.29071   0.16667   0.00000  Uiso   1.00
O106   O     0.81427   0.20928   0.16666   0.00000  Uiso   1.00
O107   O     0.81427   0.29071   0.16666   0.00000  Uiso   1.00
O108   O     0.68573   0.20928   0.16667   0.00000  Uiso   1.00
O109   O     0.75000   0.29071   0.09613   0.00000  Uiso   1.00
O110   O     0.75000   0.20929   0.23720   0.00000  Uiso   1.00
O111   O     0.75000   0.29071   0.23720   0.00000  Uiso   1.00
O112   O     0.75000   0.20929   0.09613   0.00000  Uiso   1.00
C113   C     0.16502   0.75006   0.16672   0.00000  Uiso   1.00
C114   C     0.27047   0.94582   0.20607   0.00000  Uiso   1.00
C115   C     0.24993   0.74994   0.07359   0.00000  Uiso   1.00
C116   C     0.25007   0.75006   0.25974   0.00000  Uiso   1.00
C117   C     0.25248   0.52741   0.16377   0.00000  Uiso   1.00
C118   C     0.24731   0.97263   0.16932   0.00000  Uiso   1.00
C119   C     0.24998   0.74992   0.02186   0.00000  Uiso   1.00
C120   C     0.25003   0.75008   0.31147   0.00000  Uiso   1.00
C121   C     0.04690   0.79100   0.15360   0.00000  Uiso   1.00
C122   C     0.45202   0.70875   0.15194   0.00000  Uiso   1.00
C123   C     0.45264   0.79028   0.18279   0.00000  Uiso   1.00
C124   C     0.33497   0.74990   0.16680   0.00000  Uiso   1.00
C125   C     0.04834   0.70848   0.18083   0.00000  Uiso   1.00
C126   C     0.09279   0.79133   0.15396   0.00000  Uiso   1.00
C127   C     0.40611   0.70870   0.15219   0.00000  Uiso   1.00
C128   C     0.40675   0.79051   0.18220   0.00000  Uiso   1.00
C129   C     0.09423   0.70857   0.18034   0.00000  Uiso   1.00
C130   C     0.11675   0.75004   0.16703   0.00000  Uiso   1.00
C131   C     0.38321   0.74969   0.16706   0.00000  Uiso   1.00
C132   C     0.02427   0.74964   0.16724   0.00000  Uiso   1.00
C133   C     0.47568   0.74951   0.16736   0.00000  Uiso   1.00
C134   C     0.28061   0.60446   0.19496   0.00000  Uiso   1.00
C135   C     0.21983   0.89549   0.13774   0.00000  Uiso   1.00
C136   C     0.22478   0.60452   0.13239   0.00000  Uiso   1.00
C137   C     0.27468   0.89560   0.20135   0.00000  Uiso   1.00
C138   C     0.28487   0.55420   0.19058   0.00000  Uiso   1.00
C139   C     0.21529   0.94570   0.14211   0.00000  Uiso   1.00
C140   C     0.22896   0.55434   0.12739   0.00000  Uiso   1.00
Cl141  Cl    0.31676   0.63434   0.23668   0.00000  Uiso   1.00
Cl142  Cl    0.18464   0.86564   0.09505   0.00000  Uiso   1.00
Cl143  Cl    0.18724   0.63437   0.09218   0.00000  Uiso   1.00
Cl144  Cl    0.31162   0.86592   0.24233   0.00000  Uiso   1.00
Cl145  Cl    0.33826   0.52975   0.20232   0.00000  Uiso   1.00
Cl146  Cl    0.16174   0.96966   0.13025   0.00000  Uiso   1.00
Cl147  Cl    0.22025   0.53051   0.06741   0.00000  Uiso   1.00
Cl148  Cl    0.27910   0.97012   0.26587   0.00000  Uiso   1.00
Cu149  Cu    0.25000   0.79821   0.16667   0.00000  Uiso   1.00
Cu150  Cu    0.25000   0.70178   0.16667   0.00000  Uiso   1.00
H151   H     0.02916   0.82297   0.14210   0.00000  Uiso   1.00
H152   H     0.46892   0.67712   0.13903   0.00000  Uiso   1.00
H153   H     0.47005   0.82187   0.19580   0.00000  Uiso   1.00
H154   H     0.03177   0.67640   0.19240   0.00000  Uiso   1.00
H155   H     0.10941   0.82370   0.14342   0.00000  Uiso   1.00
H156   H     0.38854   0.67690   0.14001   0.00000  Uiso   1.00
H157   H     0.38977   0.82242   0.19418   0.00000  Uiso   1.00
H158   H     0.11206   0.67638   0.19101   0.00000  Uiso   1.00
N159   N     0.25000   0.62934   0.16667   0.00000  Uiso   1.00
N160   N     0.25000   0.87065   0.16667   0.00000  Uiso   1.00
O161   O     0.18573   0.79071   0.16667   0.00000  Uiso   1.00
O162   O     0.31427   0.70928   0.16666   0.00000  Uiso   1.00
O163   O     0.31427   0.79071   0.16666   0.00000  Uiso   1.00
O164   O     0.18573   0.70928   0.16667   0.00000  Uiso   1.00
O165   O     0.25000   0.79071   0.09613   0.00000  Uiso   1.00
O166   O     0.25000   0.70929   0.23720   0.00000  Uiso   1.00
O167   O     0.25000   0.79071   0.23720   0.00000  Uiso   1.00
O168   O     0.25000   0.70929   0.09613   0.00000  Uiso   1.00
C169   C     0.66502   0.75006   0.16672   0.00000  Uiso   1.00
C170   C     0.77047   0.94582   0.20607   0.00000  Uiso   1.00
C171   C     0.74993   0.74994   0.07359   0.00000  Uiso   1.00
C172   C     0.75007   0.75006   0.25974   0.00000  Uiso   1.00
C173   C     0.75248   0.52741   0.16377   0.00000  Uiso   1.00
C174   C     0.74731   0.97263   0.16932   0.00000  Uiso   1.00
C175   C     0.74998   0.74992   0.02186   0.00000  Uiso   1.00
C176   C     0.75003   0.75008   0.31147   0.00000  Uiso   1.00
C177   C     0.54690   0.79100   0.15360   0.00000  Uiso   1.00
C178   C     0.95202   0.70875   0.15194   0.00000  Uiso   1.00
C179   C     0.95264   0.79028   0.18279   0.00000  Uiso   1.00
C180   C     0.83497   0.74990   0.16680   0.00000  Uiso   1.00
C181   C     0.54834   0.70848   0.18083   0.00000  Uiso   1.00
C182   C     0.59279   0.79133   0.15396   0.00000  Uiso   1.00
C183   C     0.90611   0.70870   0.15219   0.00000  Uiso   1.00
C184   C     0.90675   0.79051   0.18220   0.00000  Uiso   1.00
C185   C     0.59423   0.70857   0.18034   0.00000  Uiso   1.00
C186   C     0.61675   0.75004   0.16703   0.00000  Uiso   1.00
C187   C     0.88321   0.74969   0.16706   0.00000  Uiso   1.00
C188   C     0.52427   0.74964   0.16724   0.00000  Uiso   1.00
C189   C     0.97568   0.74951   0.16736   0.00000  Uiso   1.00
C190   C     0.78061   0.60446   0.19496   0.00000  Uiso   1.00
C191   C     0.71983   0.89549   0.13774   0.00000  Uiso   1.00
C192   C     0.72478   0.60452   0.13239   0.00000  Uiso   1.00
C193   C     0.77468   0.89560   0.20135   0.00000  Uiso   1.00
C194   C     0.78487   0.55420   0.19058   0.00000  Uiso   1.00
C195   C     0.71529   0.94570   0.14211   0.00000  Uiso   1.00
C196   C     0.72896   0.55434   0.12739   0.00000  Uiso   1.00
Cl197  Cl    0.81676   0.63434   0.23668   0.00000  Uiso   1.00
Cl198  Cl    0.68464   0.86564   0.09505   0.00000  Uiso   1.00
Cl199  Cl    0.68724   0.63437   0.09218   0.00000  Uiso   1.00
Cl200  Cl    0.81162   0.86592   0.24233   0.00000  Uiso   1.00
Cl201  Cl    0.83826   0.52975   0.20232   0.00000  Uiso   1.00
Cl202  Cl    0.66174   0.96966   0.13025   0.00000  Uiso   1.00
Cl203  Cl    0.72025   0.53051   0.06741   0.00000  Uiso   1.00
Cl204  Cl    0.77910   0.97012   0.26587   0.00000  Uiso   1.00
Cu205  Cu    0.75000   0.79821   0.16667   0.00000  Uiso   1.00
Cu206  Cu    0.75000   0.70178   0.16667   0.00000  Uiso   1.00
H207   H     0.52916   0.82297   0.14210   0.00000  Uiso   1.00
H208   H     0.96892   0.67712   0.13903   0.00000  Uiso   1.00
H209   H     0.97005   0.82187   0.19580   0.00000  Uiso   1.00
H210   H     0.53177   0.67640   0.19240   0.00000  Uiso   1.00
H211   H     0.60941   0.82370   0.14342   0.00000  Uiso   1.00
H212   H     0.88854   0.67690   0.14001   0.00000  Uiso   1.00
H213   H     0.88977   0.82242   0.19418   0.00000  Uiso   1.00
H214   H     0.61206   0.67638   0.19101   0.00000  Uiso   1.00
N215   N     0.75000   0.62934   0.16667   0.00000  Uiso   1.00
N216   N     0.75000   0.87065   0.16667   0.00000  Uiso   1.00
O217   O     0.68573   0.79071   0.16667   0.00000  Uiso   1.00
O218   O     0.81427   0.70928   0.16666   0.00000  Uiso   1.00
O219   O     0.81427   0.79071   0.16666   0.00000  Uiso   1.00
O220   O     0.68573   0.70928   0.16667   0.00000  Uiso   1.00
O221   O     0.75000   0.79071   0.09613   0.00000  Uiso   1.00
O222   O     0.75000   0.70929   0.23720   0.00000  Uiso   1.00
O223   O     0.75000   0.79071   0.23720   0.00000  Uiso   1.00
O224   O     0.75000   0.70929   0.09613   0.00000  Uiso   1.00
C225   C     0.16502   0.25006   0.50005   0.00000  Uiso   1.00
C226   C     0.27047   0.44582   0.53941   0.00000  Uiso   1.00
C227   C     0.24993   0.24994   0.40693   0.00000  Uiso   1.00
C228   C     0.25007   0.25006   0.59307   0.00000  Uiso   1.00
C229   C     0.25248   0.02741   0.49710   0.00000  Uiso   1.00
C230   C     0.24731   0.47263   0.50265   0.00000  Uiso   1.00
C231   C     0.24998   0.24992   0.35519   0.00000  Uiso   1.00
C232   C     0.25003   0.25008   0.64481   0.00000  Uiso   1.00
C233   C     0.04690   0.29100   0.48693   0.00000  Uiso   1.00
C234   C     0.45202   0.20875   0.48527   0.00000  Uiso   1.00
C235   C     0.45264   0.29028   0.51612   0.00000  Uiso   1.00
C236   C     0.33497   0.24990   0.50014   0.00000  Uiso   1.00
C237   C     0.04834   0.20848   0.51416   0.00000  Uiso   1.00
C238   C     0.09279   0.29133   0.48730   0.00000  Uiso   1.00
C239   C     0.40611   0.20870   0.48552   0.00000  Uiso   1.00
C240   C     0.40675   0.29051   0.51553   0.00000  Uiso   1.00
C241   C     0.09423   0.20857   0.51367   0.00000  Uiso   1.00
C242   C     0.11675   0.25004   0.50036   0.00000  Uiso   1.00
C243   C     0.38321   0.24969   0.50040   0.00000  Uiso   1.00
C244   C     0.02427   0.24964   0.50057   0.00000  Uiso   1.00
C245   C     0.47568   0.24951   0.50070   0.00000  Uiso   1.00
C246   C     0.28061   0.10446   0.52829   0.00000  Uiso   1.00
C247   C     0.21983   0.39549   0.47108   0.00000  Uiso   1.00
C248   C     0.22478   0.10452   0.46573   0.00000  Uiso   1.00
C249   C     0.27468   0.39560   0.53468   0.00000  Uiso   1.00
C250   C     0.28487   0.05420   0.52392   0.00000  Uiso   1.00
C251   C     0.21529   0.44570   0.47544   0.00000  Uiso   1.00
C252   C     0.22896   0.05434   0.46072   0.00000  Uiso   1.00
Cl253  Cl    0.31676   0.13434   0.57001   0.00000  Uiso   1.00
Cl254  Cl    0.18464   0.36564   0.42838   0.00000  Uiso   1.00
Cl255  Cl    0.18724   0.13437   0.42551   0.00000  Uiso   1.00
Cl256  Cl    0.31162   0.36592   0.57566   0.00000  Uiso   1.00
Cl257  Cl    0.33826   0.02975   0.53566   0.00000  Uiso   1.00
Cl258  Cl    0.16174   0.46966   0.46359   0.00000  Uiso   1.00
Cl259  Cl    0.22025   0.03051   0.40075   0.00000  Uiso   1.00
Cl260  Cl    0.27910   0.47012   0.59920   0.00000  Uiso   1.00
Cu261  Cu    0.25000   0.29821   0.50000   0.00000  Uiso   1.00
Cu262  Cu    0.25000   0.20178   0.50000   0.00000  Uiso   1.00
H263   H     0.02916   0.32297   0.47543   0.00000  Uiso   1.00
H264   H     0.46892   0.17712   0.47237   0.00000  Uiso   1.00
H265   H     0.47005   0.32187   0.52913   0.00000  Uiso   1.00
H266   H     0.03177   0.17640   0.52573   0.00000  Uiso   1.00
H267   H     0.10941   0.32370   0.47675   0.00000  Uiso   1.00
H268   H     0.38854   0.17690   0.47335   0.00000  Uiso   1.00
H269   H     0.38977   0.32242   0.52751   0.00000  Uiso   1.00
H270   H     0.11206   0.17638   0.52434   0.00000  Uiso   1.00
N271   N     0.25000   0.12934   0.50000   0.00000  Uiso   1.00
N272   N     0.25000   0.37065   0.50000   0.00000  Uiso   1.00
O273   O     0.18573   0.29071   0.50000   0.00000  Uiso   1.00
O274   O     0.31427   0.20928   0.50000   0.00000  Uiso   1.00
O275   O     0.31427   0.29071   0.50000   0.00000  Uiso   1.00
O276   O     0.18573   0.20928   0.50000   0.00000  Uiso   1.00
O277   O     0.25000   0.29071   0.42946   0.00000  Uiso   1.00
O278   O     0.25000   0.20929   0.57054   0.00000  Uiso   1.00
O279   O     0.25000   0.29071   0.57054   0.00000  Uiso   1.00
O280   O     0.25000   0.20929   0.42946   0.00000  Uiso   1.00
C281   C     0.66502   0.25006   0.50005   0.00000  Uiso   1.00
C282   C     0.77047   0.44582   0.53941   0.00000  Uiso   1.00
C283   C     0.74993   0.24994   0.40693   0.00000  Uiso   1.00
C284   C     0.75007   0.25006   0.59307   0.00000  Uiso   1.00
C285   C     0.75248   0.02741   0.49710   0.00000  Uiso   1.00
C286   C     0.74731   0.47263   0.50265   0.00000  Uiso   1.00
C287   C     0.74998   0.24992   0.35519   0.00000  Uiso   1.00
C288   C     0.75003   0.25008   0.64481   0.00000  Uiso   1.00
C289   C     0.54690   0.29100   0.48693   0.00000  Uiso   1.00
C290   C     0.95202   0.20875   0.48527   0.00000  Uiso   1.00
C291   C     0.95264   0.29028   0.51612   0.00000  Uiso   1.00
C292   C     0.83497   0.24990   0.50014   0.00000  Uiso   1.00
C293   C     0.54834   0.20848   0.51416   0.00000  Uiso   1.00
C294   C     0.59279   0.29133   0.48730   0.00000  Uiso   1.00
C295   C     0.90611   0.20870   0.48552   0.00000  Uiso   1.00
C296   C     0.90675   0.29051   0.51553   0.00000  Uiso   1.00
C297   C     0.59423   0.20857   0.51367   0.00000  Uiso   1.00
C298   C     0.61675   0.25004   0.50036   0.00000  Uiso   1.00
C299   C     0.88321   0.24969   0.50040   0.00000  Uiso   1.00
C300   C     0.52427   0.24964   0.50057   0.00000  Uiso   1.00
C301   C     0.97568   0.24951   0.50070   0.00000  Uiso   1.00
C302   C     0.78061   0.10446   0.52829   0.00000  Uiso   1.00
C303   C     0.71983   0.39549   0.47108   0.00000  Uiso   1.00
C304   C     0.72478   0.10452   0.46573   0.00000  Uiso   1.00
C305   C     0.77468   0.39560   0.53468   0.00000  Uiso   1.00
C306   C     0.78487   0.05420   0.52392   0.00000  Uiso   1.00
C307   C     0.71529   0.44570   0.47544   0.00000  Uiso   1.00
C308   C     0.72896   0.05434   0.46072   0.00000  Uiso   1.00
Cl309  Cl    0.81676   0.13434   0.57001   0.00000  Uiso   1.00
Cl310  Cl    0.68464   0.36564   0.42838   0.00000  Uiso   1.00
Cl311  Cl    0.68724   0.13437   0.42551   0.00000  Uiso   1.00
Cl312  Cl    0.81162   0.36592   0.57566   0.00000  Uiso   1.00
Cl313  Cl    0.83826   0.02975   0.53566   0.00000  Uiso   1.00
Cl314  Cl    0.66174   0.46966   0.46359   0.00000  Uiso   1.00
Cl315  Cl    0.72025   0.03051   0.40075   0.00000  Uiso   1.00
Cl316  Cl    0.77910   0.47012   0.59920   0.00000  Uiso   1.00
Cu317  Cu    0.75000   0.29821   0.50000   0.00000  Uiso   1.00
Cu318  Cu    0.75000   0.20178   0.50000   0.00000  Uiso   1.00
H319   H     0.52916   0.32297   0.47543   0.00000  Uiso   1.00
H320   H     0.96892   0.17712   0.47237   0.00000  Uiso   1.00
H321   H     0.97005   0.32187   0.52913   0.00000  Uiso   1.00
H322   H     0.53177   0.17640   0.52573   0.00000  Uiso   1.00
H323   H     0.60941   0.32370   0.47675   0.00000  Uiso   1.00
H324   H     0.88854   0.17690   0.47335   0.00000  Uiso   1.00
H325   H     0.88977   0.32242   0.52751   0.00000  Uiso   1.00
H326   H     0.61206   0.17638   0.52434   0.00000  Uiso   1.00
N327   N     0.75000   0.12934   0.50000   0.00000  Uiso   1.00
N328   N     0.75000   0.37065   0.50000   0.00000  Uiso   1.00
O329   O     0.68573   0.29071   0.50000   0.00000  Uiso   1.00
O330   O     0.81427   0.20928   0.50000   0.00000  Uiso   1.00
O331   O     0.81427   0.29071   0.50000   0.00000  Uiso   1.00
O332   O     0.68573   0.20928   0.50000   0.00000  Uiso   1.00
O333   O     0.75000   0.29071   0.42946   0.00000  Uiso   1.00
O334   O     0.75000   0.20929   0.57054   0.00000  Uiso   1.00
O335   O     0.75000   0.29071   0.57054   0.00000  Uiso   1.00
O336   O     0.75000   0.20929   0.42946   0.00000  Uiso   1.00
C337   C     0.16502   0.75006   0.50005   0.00000  Uiso   1.00
C338   C     0.27047   0.94582   0.53941   0.00000  Uiso   1.00
C339   C     0.24993   0.74994   0.40693   0.00000  Uiso   1.00
C340   C     0.25007   0.75006   0.59307   0.00000  Uiso   1.00
C341   C     0.25248   0.52741   0.49710   0.00000  Uiso   1.00
C342   C     0.24731   0.97263   0.50265   0.00000  Uiso   1.00
C343   C     0.24998   0.74992   0.35519   0.00000  Uiso   1.00
C344   C     0.25003   0.75008   0.64481   0.00000  Uiso   1.00
C345   C     0.04690   0.79100   0.48693   0.00000  Uiso   1.00
C346   C     0.45202   0.70875   0.48527   0.00000  Uiso   1.00
C347   C     0.45264   0.79028   0.51612   0.00000  Uiso   1.00
C348   C     0.33497   0.74990   0.50014   0.00000  Uiso   1.00
C349   C     0.04834   0.70848   0.51416   0.00000  Uiso   1.00
C350   C     0.09279   0.79133   0.48730   0.00000  Uiso   1.00
C351   C     0.40611   0.70870   0.48552   0.00000  Uiso   1.00
C352   C     0.40675   0.79051   0.51553   0.00000  Uiso   1.00
C353   C     0.09423   0.70857   0.51367   0.00000  Uiso   1.00
C354   C     0.11675   0.75004   0.50036   0.00000  Uiso   1.00
C355   C     0.38321   0.74969   0.50040   0.00000  Uiso   1.00
C356   C     0.02427   0.74964   0.50057   0.00000  Uiso   1.00
C357   C     0.47568   0.74951   0.50070   0.00000  Uiso   1.00
C358   C     0.28061   0.60446   0.52829   0.00000  Uiso   1.00
C359   C     0.21983   0.89549   0.47108   0.00000  Uiso   1.00
C360   C     0.22478   0.60452   0.46573   0.00000  Uiso   1.00
C361   C     0.27468   0.89560   0.53468   0.00000  Uiso   1.00
C362   C     0.28487   0.55420   0.52392   0.00000  Uiso   1.00
C363   C     0.21529   0.94570   0.47544   0.00000  Uiso   1.00
C364   C     0.22896   0.55434   0.46072   0.00000  Uiso   1.00
Cl365  Cl    0.31676   0.63434   0.57001   0.00000  Uiso   1.00
Cl366  Cl    0.18464   0.86564   0.42838   0.00000  Uiso   1.00
Cl367  Cl    0.18724   0.63437   0.42551   0.00000  Uiso   1.00
Cl368  Cl    0.31162   0.86592   0.57566   0.00000  Uiso   1.00
Cl369  Cl    0.33826   0.52975   0.53566   0.00000  Uiso   1.00
Cl370  Cl    0.16174   0.96966   0.46359   0.00000  Uiso   1.00
Cl371  Cl    0.22025   0.53051   0.40075   0.00000  Uiso   1.00
Cl372  Cl    0.27910   0.97012   0.59920   0.00000  Uiso   1.00
Cu373  Cu    0.25000   0.79821   0.50000   0.00000  Uiso   1.00
Cu374  Cu    0.25000   0.70178   0.50000   0.00000  Uiso   1.00
H375   H     0.02916   0.82297   0.47543   0.00000  Uiso   1.00
H376   H     0.46892   0.67712   0.47237   0.00000  Uiso   1.00
H377   H     0.47005   0.82187   0.52913   0.00000  Uiso   1.00
H378   H     0.03177   0.67640   0.52573   0.00000  Uiso   1.00
H379   H     0.10941   0.82370   0.47675   0.00000  Uiso   1.00
H380   H     0.38854   0.67690   0.47335   0.00000  Uiso   1.00
H381   H     0.38977   0.82242   0.52751   0.00000  Uiso   1.00
H382   H     0.11206   0.67638   0.52434   0.00000  Uiso   1.00
N383   N     0.25000   0.62934   0.50000   0.00000  Uiso   1.00
N384   N     0.25000   0.87065   0.50000   0.00000  Uiso   1.00
O385   O     0.18573   0.79071   0.50000   0.00000  Uiso   1.00
O386   O     0.31427   0.70928   0.50000   0.00000  Uiso   1.00
O387   O     0.31427   0.79071   0.50000   0.00000  Uiso   1.00
O388   O     0.18573   0.70928   0.50000   0.00000  Uiso   1.00
O389   O     0.25000   0.79071   0.42946   0.00000  Uiso   1.00
O390   O     0.25000   0.70929   0.57054   0.00000  Uiso   1.00
O391   O     0.25000   0.79071   0.57054   0.00000  Uiso   1.00
O392   O     0.25000   0.70929   0.42946   0.00000  Uiso   1.00
C393   C     0.66502   0.75006   0.50005   0.00000  Uiso   1.00
C394   C     0.77047   0.94582   0.53941   0.00000  Uiso   1.00
C395   C     0.74993   0.74994   0.40693   0.00000  Uiso   1.00
C396   C     0.75007   0.75006   0.59307   0.00000  Uiso   1.00
C397   C     0.75248   0.52741   0.49710   0.00000  Uiso   1.00
C398   C     0.74731   0.97263   0.50265   0.00000  Uiso   1.00
C399   C     0.74998   0.74992   0.35519   0.00000  Uiso   1.00
C400   C     0.75003   0.75008   0.64481   0.00000  Uiso   1.00
C401   C     0.54690   0.79100   0.48693   0.00000  Uiso   1.00
C402   C     0.95202   0.70875   0.48527   0.00000  Uiso   1.00
C403   C     0.95264   0.79028   0.51612   0.00000  Uiso   1.00
C404   C     0.83497   0.74990   0.50014   0.00000  Uiso   1.00
C405   C     0.54834   0.70848   0.51416   0.00000  Uiso   1.00
C406   C     0.59279   0.79133   0.48730   0.00000  Uiso   1.00
C407   C     0.90611   0.70870   0.48552   0.00000  Uiso   1.00
C408   C     0.90675   0.79051   0.51553   0.00000  Uiso   1.00
C409   C     0.59423   0.70857   0.51367   0.00000  Uiso   1.00
C410   C     0.61675   0.75004   0.50036   0.00000  Uiso   1.00
C411   C     0.88321   0.74969   0.50040   0.00000  Uiso   1.00
C412   C     0.52427   0.74964   0.50057   0.00000  Uiso   1.00
C413   C     0.97568   0.74951   0.50070   0.00000  Uiso   1.00
C414   C     0.78061   0.60446   0.52829   0.00000  Uiso   1.00
C415   C     0.71983   0.89549   0.47108   0.00000  Uiso   1.00
C416   C     0.72478   0.60452   0.46573   0.00000  Uiso   1.00
C417   C     0.77468   0.89560   0.53468   0.00000  Uiso   1.00
C418   C     0.78487   0.55420   0.52392   0.00000  Uiso   1.00
C419   C     0.71529   0.94570   0.47544   0.00000  Uiso   1.00
C420   C     0.72896   0.55434   0.46072   0.00000  Uiso   1.00
Cl421  Cl    0.81676   0.63434   0.57001   0.00000  Uiso   1.00
Cl422  Cl    0.68464   0.86564   0.42838   0.00000  Uiso   1.00
Cl423  Cl    0.68724   0.63437   0.42551   0.00000  Uiso   1.00
Cl424  Cl    0.81162   0.86592   0.57566   0.00000  Uiso   1.00
Cl425  Cl    0.83826   0.52975   0.53566   0.00000  Uiso   1.00
Cl426  Cl    0.66174   0.96966   0.46359   0.00000  Uiso   1.00
Cl427  Cl    0.72025   0.53051   0.40075   0.00000  Uiso   1.00
Cl428  Cl    0.77910   0.97012   0.59920   0.00000  Uiso   1.00
Cu429  Cu    0.75000   0.79821   0.50000   0.00000  Uiso   1.00
Cu430  Cu    0.75000   0.70178   0.50000   0.00000  Uiso   1.00
H431   H     0.52916   0.82297   0.47543   0.00000  Uiso   1.00
H432   H     0.96892   0.67712   0.47237   0.00000  Uiso   1.00
H433   H     0.97005   0.82187   0.52913   0.00000  Uiso   1.00
H434   H     0.53177   0.67640   0.52573   0.00000  Uiso   1.00
H435   H     0.60941   0.82370   0.47675   0.00000  Uiso   1.00
H436   H     0.88854   0.67690   0.47335   0.00000  Uiso   1.00
H437   H     0.88977   0.82242   0.52751   0.00000  Uiso   1.00
H438   H     0.61206   0.67638   0.52434   0.00000  Uiso   1.00
N439   N     0.75000   0.62934   0.50000   0.00000  Uiso   1.00
N440   N     0.75000   0.87065   0.50000   0.00000  Uiso   1.00
O441   O     0.68573   0.79071   0.50000   0.00000  Uiso   1.00
O442   O     0.81427   0.70928   0.50000   0.00000  Uiso   1.00
O443   O     0.81427   0.79071   0.50000   0.00000  Uiso   1.00
O444   O     0.68573   0.70928   0.50000   0.00000  Uiso   1.00
O445   O     0.75000   0.79071   0.42946   0.00000  Uiso   1.00
O446   O     0.75000   0.70929   0.57054   0.00000  Uiso   1.00
O447   O     0.75000   0.79071   0.57054   0.00000  Uiso   1.00
O448   O     0.75000   0.70929   0.42946   0.00000  Uiso   1.00
C449   C     0.16502   0.25006   0.83339   0.00000  Uiso   1.00
C450   C     0.27047   0.44582   0.87274   0.00000  Uiso   1.00
C451   C     0.24993   0.24994   0.74026   0.00000  Uiso   1.00
C452   C     0.25007   0.25006   0.92641   0.00000  Uiso   1.00
C453   C     0.25248   0.02741   0.83043   0.00000  Uiso   1.00
C454   C     0.24731   0.47263   0.83599   0.00000  Uiso   1.00
C455   C     0.24998   0.24992   0.68853   0.00000  Uiso   1.00
C456   C     0.25003   0.25008   0.97814   0.00000  Uiso   1.00
C457   C     0.04690   0.29100   0.82026   0.00000  Uiso   1.00
C458   C     0.45202   0.20875   0.81860   0.00000  Uiso   1.00
C459   C     0.45264   0.29028   0.84946   0.00000  Uiso   1.00
C460   C     0.33497   0.24990   0.83347   0.00000  Uiso   1.00
C461   C     0.04834   0.20848   0.84749   0.00000  Uiso   1.00
C462   C     0.09279   0.29133   0.82063   0.00000  Uiso   1.00
C463   C     0.40611   0.20870   0.81886   0.00000  Uiso   1.00
C464   C     0.40675   0.29051   0.84886   0.00000  Uiso   1.00
C465   C     0.09423   0.20857   0.84700   0.00000  Uiso   1.00
C466   C     0.11675   0.25004   0.83369   0.00000  Uiso   1.00
C467   C     0.38321   0.24969   0.83373   0.00000  Uiso   1.00
C468   C     0.02427   0.24964   0.83390   0.00000  Uiso   1.00
C469   C     0.47568   0.24951   0.83403   0.00000  Uiso   1.00
C470   C     0.28061   0.10446   0.86162   0.00000  Uiso   1.00
C471   C     0.21983   0.39549   0.80441   0.00000  Uiso   1.00
C472   C     0.22478   0.10452   0.79906   0.00000  Uiso   1.00
C473   C     0.27468   0.39560   0.86801   0.00000  Uiso   1.00
C474   C     0.28487   0.05420   0.85725   0.00000  Uiso   1.00
C475   C     0.21529   0.44570   0.80878   0.00000  Uiso   1.00
C476   C     0.22896   0.05434   0.79405   0.00000  Uiso   1.00
Cl477  Cl    0.31676   0.13434   0.90335   0.00000  Uiso   1.00
Cl478  Cl    0.18464   0.36564   0.76172   0.00000  Uiso   1.00
Cl479  Cl    0.18724   0.13437   0.75884   0.00000  Uiso   1.00
Cl480  Cl    0.31162   0.36592   0.90900   0.00000  Uiso   1.00
Cl481  Cl    0.33826   0.02975   0.86899   0.00000  Uiso   1.00
Cl482  Cl    0.16174   0.46966   0.79692   0.00000  Uiso   1.00
Cl483  Cl    0.22025   0.03051   0.73408   0.00000  Uiso   1.00
Cl484  Cl    0.27910   0.47012   0.93254   0.00000  Uiso   1.00
Cu485  Cu    0.25000   0.29821   0.83333   0.00000  Uiso   1.00
Cu486  Cu    0.25000   0.20178   0.83333   0.00000  Uiso   1.00
H487   H     0.02916   0.32297   0.80876   0.00000  Uiso   1.00
H488   H     0.46892   0.17712   0.80570   0.00000  Uiso   1.00
H489   H     0.47005   0.32187   0.86246   0.00000  Uiso   1.00
H490   H     0.03177   0.17640   0.85907   0.00000  Uiso   1.00
H491   H     0.10941   0.32370   0.81008   0.00000  Uiso   1.00
H492   H     0.38854   0.17690   0.80668   0.00000  Uiso   1.00
H493   H     0.38977   0.32242   0.86085   0.00000  Uiso   1.00
H494   H     0.11206   0.17638   0.85768   0.00000  Uiso   1.00
N495   N     0.25000   0.12934   0.83333   0.00000  Uiso   1.00
N496   N     0.25000   0.37065   0.83333   0.00000  Uiso   1.00
O497   O     0.18573   0.29071   0.83334   0.00000  Uiso   1.00
O498   O     0.31427   0.20928   0.83333   0.00000  Uiso   1.00
O499   O     0.31427   0.29071   0.83333   0.00000  Uiso   1.00
O500   O     0.18573   0.20928   0.83334   0.00000  Uiso   1.00
O501   O     0.25000   0.29071   0.76280   0.00000  Uiso   1.00
O502   O     0.25000   0.20929   0.90387   0.00000  Uiso   1.00
O503   O     0.25000   0.29071   0.90387   0.00000  Uiso   1.00
O504   O     0.25000   0.20929   0.76280   0.00000  Uiso   1.00
C505   C     0.66502   0.25006   0.83339   0.00000  Uiso   1.00
C506   C     0.77047   0.44582   0.87274   0.00000  Uiso   1.00
C507   C     0.74993   0.24994   0.74026   0.00000  Uiso   1.00
C508   C     0.75007   0.25006   0.92641   0.00000  Uiso   1.00
C509   C     0.75248   0.02741   0.83043   0.00000  Uiso   1.00
C510   C     0.74731   0.47263   0.83599   0.00000  Uiso   1.00
C511   C     0.74998   0.24992   0.68853   0.00000  Uiso   1.00
C512   C     0.75003   0.25008   0.97814   0.00000  Uiso   1.00
C513   C     0.54690   0.29100   0.82026   0.00000  Uiso   1.00
C514   C     0.95202   0.20875   0.81860   0.00000  Uiso   1.00
C515   C     0.95264   0.29028   0.84946   0.00000  Uiso   1.00
C516   C     0.83497   0.24990   0.83347   0.00000  Uiso   1.00
C517   C     0.54834   0.20848   0.84749   0.00000  Uiso   1.00
C518   C     0.59279   0.29133   0.82063   0.00000  Uiso   1.00
C519   C     0.90611   0.20870   0.81886   0.00000  Uiso   1.00
C520   C     0.90675   0.29051   0.84886   0.00000  Uiso   1.00
C521   C     0.59423   0.20857   0.84700   0.00000  Uiso   1.00
C522   C     0.61675   0.25004   0.83369   0.00000  Uiso   1.00
C523   C     0.88321   0.24969   0.83373   0.00000  Uiso   1.00
C524   C     0.52427   0.24964   0.83390   0.00000  Uiso   1.00
C525   C     0.97568   0.24951   0.83403   0.00000  Uiso   1.00
C526   C     0.78061   0.10446   0.86162   0.00000  Uiso   1.00
C527   C     0.71983   0.39549   0.80441   0.00000  Uiso   1.00
C528   C     0.72478   0.10452   0.79906   0.00000  Uiso   1.00
C529   C     0.77468   0.39560   0.86801   0.00000  Uiso   1.00
C530   C     0.78487   0.05420   0.85725   0.00000  Uiso   1.00
C531   C     0.71529   0.44570   0.80878   0.00000  Uiso   1.00
C532   C     0.72896   0.05434   0.79405   0.00000  Uiso   1.00
Cl533  Cl    0.81676   0.13434   0.90335   0.00000  Uiso   1.00
Cl534  Cl    0.68464   0.36564   0.76172   0.00000  Uiso   1.00
Cl535  Cl    0.68724   0.13437   0.75884   0.00000  Uiso   1.00
Cl536  Cl    0.81162   0.36592   0.90900   0.00000  Uiso   1.00
Cl537  Cl    0.83826   0.02975   0.86899   0.00000  Uiso   1.00
Cl538  Cl    0.66174   0.46966   0.79692   0.00000  Uiso   1.00
Cl539  Cl    0.72025   0.03051   0.73408   0.00000  Uiso   1.00
Cl540  Cl    0.77910   0.47012   0.93254   0.00000  Uiso   1.00
Cu541  Cu    0.75000   0.29821   0.83333   0.00000  Uiso   1.00
Cu542  Cu    0.75000   0.20178   0.83333   0.00000  Uiso   1.00
H543   H     0.52916   0.32297   0.80876   0.00000  Uiso   1.00
H544   H     0.96892   0.17712   0.80570   0.00000  Uiso   1.00
H545   H     0.97005   0.32187   0.86246   0.00000  Uiso   1.00
H546   H     0.53177   0.17640   0.85907   0.00000  Uiso   1.00
H547   H     0.60941   0.32370   0.81008   0.00000  Uiso   1.00
H548   H     0.88854   0.17690   0.80668   0.00000  Uiso   1.00
H549   H     0.88977   0.32242   0.86085   0.00000  Uiso   1.00
H550   H     0.61206   0.17638   0.85768   0.00000  Uiso   1.00
N551   N     0.75000   0.12934   0.83333   0.00000  Uiso   1.00
N552   N     0.75000   0.37065   0.83333   0.00000  Uiso   1.00
O553   O     0.68573   0.29071   0.83334   0.00000  Uiso   1.00
O554   O     0.81427   0.20928   0.83333   0.00000  Uiso   1.00
O555   O     0.81427   0.29071   0.83333   0.00000  Uiso   1.00
O556   O     0.68573   0.20928   0.83334   0.00000  Uiso   1.00
O557   O     0.75000   0.29071   0.76280   0.00000  Uiso   1.00
O558   O     0.75000   0.20929   0.90387   0.00000  Uiso   1.00
O559   O     0.75000   0.29071   0.90387   0.00000  Uiso   1.00
O560   O     0.75000   0.20929   0.76280   0.00000  Uiso   1.00
C561   C     0.16502   0.75006   0.83339   0.00000  Uiso   1.00
C562   C     0.27047   0.94582   0.87274   0.00000  Uiso   1.00
C563   C     0.24993   0.74994   0.74026   0.00000  Uiso   1.00
C564   C     0.25007   0.75006   0.92641   0.00000  Uiso   1.00
C565   C     0.25248   0.52741   0.83043   0.00000  Uiso   1.00
C566   C     0.24731   0.97263   0.83599   0.00000  Uiso   1.00
C567   C     0.24998   0.74992   0.68853   0.00000  Uiso   1.00
C568   C     0.25003   0.75008   0.97814   0.00000  Uiso   1.00
C569   C     0.04690   0.79100   0.82026   0.00000  Uiso   1.00
C570   C     0.45202   0.70875   0.81860   0.00000  Uiso   1.00
C571   C     0.45264   0.79028   0.84946   0.00000  Uiso   1.00
C572   C     0.33497   0.74990   0.83347   0.00000  Uiso   1.00
C573   C     0.04834   0.70848   0.84749   0.00000  Uiso   1.00
C574   C     0.09279   0.79133   0.82063   0.00000  Uiso   1.00
C575   C     0.40611   0.70870   0.81886   0.00000  Uiso   1.00
C576   C     0.40675   0.79051   0.84886   0.00000  Uiso   1.00
C577   C     0.09423   0.70857   0.84700   0.00000  Uiso   1.00
C578   C     0.11675   0.75004   0.83369   0.00000  Uiso   1.00
C579   C     0.38321   0.74969   0.83373   0.00000  Uiso   1.00
C580   C     0.02427   0.74964   0.83390   0.00000  Uiso   1.00
C581   C     0.47568   0.74951   0.83403   0.00000  Uiso   1.00
C582   C     0.28061   0.60446   0.86162   0.00000  Uiso   1.00
C583   C     0.21983   0.89549   0.80441   0.00000  Uiso   1.00
C584   C     0.22478   0.60452   0.79906   0.00000  Uiso   1.00
C585   C     0.27468   0.89560   0.86801   0.00000  Uiso   1.00
C586   C     0.28487   0.55420   0.85725   0.00000  Uiso   1.00
C587   C     0.21529   0.94570   0.80878   0.00000  Uiso   1.00
C588   C     0.22896   0.55434   0.79405   0.00000  Uiso   1.00
Cl589  Cl    0.31676   0.63434   0.90335   0.00000  Uiso   1.00
Cl590  Cl    0.18464   0.86564   0.76172   0.00000  Uiso   1.00
Cl591  Cl    0.18724   0.63437   0.75884   0.00000  Uiso   1.00
Cl592  Cl    0.31162   0.86592   0.90900   0.00000  Uiso   1.00
Cl593  Cl    0.33826   0.52975   0.86899   0.00000  Uiso   1.00
Cl594  Cl    0.16174   0.96966   0.79692   0.00000  Uiso   1.00
Cl595  Cl    0.22025   0.53051   0.73408   0.00000  Uiso   1.00
Cl596  Cl    0.27910   0.97012   0.93254   0.00000  Uiso   1.00
Cu597  Cu    0.25000   0.79821   0.83333   0.00000  Uiso   1.00
Cu598  Cu    0.25000   0.70178   0.83333   0.00000  Uiso   1.00
H599   H     0.02916   0.82297   0.80876   0.00000  Uiso   1.00
H600   H     0.46892   0.67712   0.80570   0.00000  Uiso   1.00
H601   H     0.47005   0.82187   0.86246   0.00000  Uiso   1.00
H602   H     0.03177   0.67640   0.85907   0.00000  Uiso   1.00
H603   H     0.10941   0.82370   0.81008   0.00000  Uiso   1.00
H604   H     0.38854   0.67690   0.80668   0.00000  Uiso   1.00
H605   H     0.38977   0.82242   0.86085   0.00000  Uiso   1.00
H606   H     0.11206   0.67638   0.85768   0.00000  Uiso   1.00
N607   N     0.25000   0.62934   0.83333   0.00000  Uiso   1.00
N608   N     0.25000   0.87065   0.83333   0.00000  Uiso   1.00
O609   O     0.18573   0.79071   0.83334   0.00000  Uiso   1.00
O610   O     0.31427   0.70928   0.83333   0.00000  Uiso   1.00
O611   O     0.31427   0.79071   0.83333   0.00000  Uiso   1.00
O612   O     0.18573   0.70928   0.83334   0.00000  Uiso   1.00
O613   O     0.25000   0.79071   0.76280   0.00000  Uiso   1.00
O614   O     0.25000   0.70929   0.90387   0.00000  Uiso   1.00
O615   O     0.25000   0.79071   0.90387   0.00000  Uiso   1.00
O616   O     0.25000   0.70929   0.76280   0.00000  Uiso   1.00
C617   C     0.66502   0.75006   0.83339   0.00000  Uiso   1.00
C618   C     0.77047   0.94582   0.87274   0.00000  Uiso   1.00
C619   C     0.74993   0.74994   0.74026   0.00000  Uiso   1.00
C620   C     0.75007   0.75006   0.92641   0.00000  Uiso   1.00
C621   C     0.75248   0.52741   0.83043   0.00000  Uiso   1.00
C622   C     0.74731   0.97263   0.83599   0.00000  Uiso   1.00
C623   C     0.74998   0.74992   0.68853   0.00000  Uiso   1.00
C624   C     0.75003   0.75008   0.97814   0.00000  Uiso   1.00
C625   C     0.54690   0.79100   0.82026   0.00000  Uiso   1.00
C626   C     0.95202   0.70875   0.81860   0.00000  Uiso   1.00
C627   C     0.95264   0.79028   0.84946   0.00000  Uiso   1.00
C628   C     0.83497   0.74990   0.83347   0.00000  Uiso   1.00
C629   C     0.54834   0.70848   0.84749   0.00000  Uiso   1.00
C630   C     0.59279   0.79133   0.82063   0.00000  Uiso   1.00
C631   C     0.90611   0.70870   0.81886   0.00000  Uiso   1.00
C632   C     0.90675   0.79051   0.84886   0.00000  Uiso   1.00
C633   C     0.59423   0.70857   0.84700   0.00000  Uiso   1.00
C634   C     0.61675   0.75004   0.83369   0.00000  Uiso   1.00
C635   C     0.88321   0.74969   0.83373   0.00000  Uiso   1.00
C636   C     0.52427   0.74964   0.83390   0.00000  Uiso   1.00
C637   C     0.97568   0.74951   0.83403   0.00000  Uiso   1.00
C638   C     0.78061   0.60446   0.86162   0.00000  Uiso   1.00
C639   C     0.71983   0.89549   0.80441   0.00000  Uiso   1.00
C640   C     0.72478   0.60452   0.79906   0.00000  Uiso   1.00
C641   C     0.77468   0.89560   0.86801   0.00000  Uiso   1.00
C642   C     0.78487   0.55420   0.85725   0.00000  Uiso   1.00
C643   C     0.71529   0.94570   0.80878   0.00000  Uiso   1.00
C644   C     0.72896   0.55434   0.79405   0.00000  Uiso   1.00
Cl645  Cl    0.81676   0.63434   0.90335   0.00000  Uiso   1.00
Cl646  Cl    0.68464   0.86564   0.76172   0.00000  Uiso   1.00
Cl647  Cl    0.68724   0.63437   0.75884   0.00000  Uiso   1.00
Cl648  Cl    0.81162   0.86592   0.90900   0.00000  Uiso   1.00
Cl649  Cl    0.83826   0.52975   0.86899   0.00000  Uiso   1.00
Cl650  Cl    0.66174   0.96966   0.79692   0.00000  Uiso   1.00
Cl651  Cl    0.72025   0.53051   0.73408   0.00000  Uiso   1.00
Cl652  Cl    0.77910   0.97012   0.93254   0.00000  Uiso   1.00
Cu653  Cu    0.75000   0.79821   0.83333   0.00000  Uiso   1.00
Cu654  Cu    0.75000   0.70178   0.83333   0.00000  Uiso   1.00
H655   H     0.52916   0.82297   0.80876   0.00000  Uiso   1.00
H656   H     0.96892   0.67712   0.80570   0.00000  Uiso   1.00
H657   H     0.97005   0.82187   0.86246   0.00000  Uiso   1.00
H658   H     0.53177   0.67640   0.85907   0.00000  Uiso   1.00
H659   H     0.60941   0.82370   0.81008   0.00000  Uiso   1.00
H660   H     0.88854   0.67690   0.80668   0.00000  Uiso   1.00
H661   H     0.88977   0.82242   0.86085   0.00000  Uiso   1.00
H662   H     0.61206   0.67638   0.85768   0.00000  Uiso   1.00
N663   N     0.75000   0.62934   0.83333   0.00000  Uiso   1.00
N664   N     0.75000   0.87065   0.83333   0.00000  Uiso   1.00
O665   O     0.68573   0.79071   0.83334   0.00000  Uiso   1.00
O666   O     0.81427   0.70928   0.83333   0.00000  Uiso   1.00
O667   O     0.81427   0.79071   0.83333   0.00000  Uiso   1.00
O668   O     0.68573   0.70928   0.83334   0.00000  Uiso   1.00
O669   O     0.75000   0.79071   0.76280   0.00000  Uiso   1.00
O670   O     0.75000   0.70929   0.90387   0.00000  Uiso   1.00
O671   O     0.75000   0.79071   0.90387   0.00000  Uiso   1.00
O672   O     0.75000   0.70929   0.76280   0.00000  Uiso   1.00
loop_
_geom_bond_atom_site_label_1
_geom_bond_atom_site_label_2
_geom_bond_distance
_geom_bond_site_symmetry_2
_ccdc_geom_bond_type
C1     C18     1.462   .     S
C1     O52     1.299   .     A
C1     O49     1.301   .     A
C2     C6      1.418   .     A
C2     C25     1.415   .     A
C2     Cl36    1.773   .     S
C3     O56     1.294   .     A
C3     O53     1.292   .     A
C3     C7      1.408   .     S
C4     C8      1.408   .     S
C4     O55     1.294   .     A
C4     O54     1.292   .     A
C5     C28     1.418   .     A
C5     C26     1.418   .     A
C5     C118    1.548   1_545 S
C6     C27     1.418   .     A
C6     C117    1.548   .     S
C7     C456    1.190   1_554 S
C8     C231    1.190   .     S
C9     C14     1.390   .     A
C9     C20     1.404   .     A
C9     H39     1.083   .     S
C10    C15     1.391   .     A
C10    C21     1.404   .     A
C10    H40     1.083   .     S
C11    H41     1.083   .     S
C11    C16     1.389   .     A
C11    C21     1.404   .     A
C12    O50     1.299   .     A
C12    C19     1.461   .     S
C12    O51     1.299   .     A
C13    C17     1.390   .     A
C13    H42     1.083   .     S
C13    C20     1.404   .     A
C14    C18     1.401   .     A
C14    H43     1.082   .     S
C15    C19     1.402   .     A
C15    H44     1.083   .     S
C16    H45     1.082   .     S
C16    C19     1.401   .     A
C17    C18     1.402   .     A
C17    H46     1.083   .     S
C20    C77     1.472   1_455 S
C21    C76     1.472   .     S
C22    Cl29    1.762   .     S
C22    C26     1.415   .     A
C22    N47     1.374   .     A
C23    C27     1.415   .     A
C23    Cl30    1.761   .     S
C23    N48     1.374   .     A
C24    Cl31    1.762   .     S
C24    N47     1.374   .     A
C24    C28     1.414   .     A
C25    Cl32    1.761   .     S
C25    N48     1.374   .     A
C26    Cl33    1.772   .     S
C27    Cl34    1.772   .     S
C28    Cl35    1.773   .     S
Cu37   Cu38    2.696   .     S
Cu37   O49     1.959   .     S
Cu37   O53     1.930   .     S
Cu37   N48     2.025   .     S
Cu37   O51     1.957   .     S
Cu37   O55     1.932   .     S
Cu38   O50     1.959   .     S
Cu38   O54     1.930   .     S
Cu38   N47     2.025   .     S
Cu38   O52     1.957   .     S
Cu38   O56     1.932   .     S
C57    C74     1.462   .     S
C57    O108    1.299   .     A
C57    O105    1.301   .     A
C58    C62     1.418   .     A
C58    C81     1.415   .     A
C58    Cl92    1.773   .     S
C59    O112    1.294   .     A
C59    O109    1.292   .     A
C59    C63     1.408   .     S
C60    C64     1.408   .     S
C60    O111    1.294   .     A
C60    O110    1.292   .     A
C61    C84     1.418   .     A
C61    C82     1.418   .     A
C61    C174    1.548   1_545 S
C62    C83     1.418   .     A
C62    C173    1.548   .     S
C63    C512    1.190   1_554 S
C64    C287    1.190   .     S
C65    C70     1.390   .     A
C65    C76     1.404   .     A
C65    H95     1.083   .     S
C66    C71     1.391   .     A
C66    C77     1.404   .     A
C66    H96     1.083   .     S
C67    H97     1.083   .     S
C67    C72     1.389   .     A
C67    C77     1.404   .     A
C68    O106    1.299   .     A
C68    C75     1.461   .     S
C68    O107    1.299   .     A
C69    C73     1.390   .     A
C69    H98     1.083   .     S
C69    C76     1.404   .     A
C70    C74     1.401   .     A
C70    H99     1.082   .     S
C71    C75     1.402   .     A
C71    H100    1.083   .     S
C72    H101    1.082   .     S
C72    C75     1.401   .     A
C73    C74     1.402   .     A
C73    H102    1.083   .     S
C77    C20     1.472   1_655 S
C78    Cl85    1.762   .     S
C78    C82     1.415   .     A
C78    N103    1.374   .     A
C79    C83     1.415   .     A
C79    Cl86    1.761   .     S
C79    N104    1.374   .     A
C80    Cl87    1.762   .     S
C80    N103    1.374   .     A
C80    C84     1.414   .     A
C81    Cl88    1.761   .     S
C81    N104    1.374   .     A
C82    Cl89    1.772   .     S
C83    Cl90    1.772   .     S
C84    Cl91    1.773   .     S
Cu93   Cu94    2.696   .     S
Cu93   O105    1.959   .     S
Cu93   O109    1.930   .     S
Cu93   N104    2.025   .     S
Cu93   O107    1.957   .     S
Cu93   O111    1.932   .     S
Cu94   O106    1.959   .     S
Cu94   O110    1.930   .     S
Cu94   N103    2.025   .     S
Cu94   O108    1.957   .     S
Cu94   O112    1.932   .     S
C113   C130    1.462   .     S
C113   O164    1.299   .     A
C113   O161    1.301   .     A
C114   C118    1.418   .     A
C114   C137    1.415   .     A
C114   Cl148   1.773   .     S
C115   O168    1.294   .     A
C115   O165    1.292   .     A
C115   C119    1.408   .     S
C116   C120    1.408   .     S
C116   O167    1.294   .     A
C116   O166    1.292   .     A
C117   C140    1.418   .     A
C117   C138    1.418   .     A
C118   C139    1.418   .     A
C118   C5      1.548   1_565 S
C119   C568    1.190   1_554 S
C120   C343    1.190   .     S
C121   C126    1.390   .     A
C121   C132    1.404   .     A
C121   H151    1.083   .     S
C122   C127    1.391   .     A
C122   C133    1.404   .     A
C122   H152    1.083   .     S
C123   H153    1.083   .     S
C123   C128    1.389   .     A
C123   C133    1.404   .     A
C124   O162    1.299   .     A
C124   C131    1.461   .     S
C124   O163    1.299   .     A
C125   C129    1.390   .     A
C125   H154    1.083   .     S
C125   C132    1.404   .     A
C126   C130    1.401   .     A
C126   H155    1.082   .     S
C127   C131    1.402   .     A
C127   H156    1.083   .     S
C128   H157    1.082   .     S
C128   C131    1.401   .     A
C129   C130    1.402   .     A
C129   H158    1.083   .     S
C132   C189    1.472   1_455 S
C133   C188    1.472   .     S
C134   Cl141   1.762   .     S
C134   C138    1.415   .     A
C134   N159    1.374   .     A
C135   C139    1.415   .     A
C135   Cl142   1.761   .     S
C135   N160    1.374   .     A
C136   Cl143   1.762   .     S
C136   N159    1.374   .     A
C136   C140    1.414   .     A
C137   Cl144   1.761   .     S
C137   N160    1.374   .     A
C138   Cl145   1.772   .     S
C139   Cl146   1.772   .     S
C140   Cl147   1.773   .     S
Cu149  Cu150   2.696   .     S
Cu149  O161    1.959   .     S
Cu149  O165    1.930   .     S
Cu149  N160    2.025   .     S
Cu149  O163    1.957   .     S
Cu149  O167    1.932   .     S
Cu150  O162    1.959   .     S
Cu150  O166    1.930   .     S
Cu150  N159    2.025   .     S
Cu150  O164    1.957   .     S
Cu150  O168    1.932   .     S
C169   C186    1.462   .     S
C169   O220    1.299   .     A
C169   O217    1.301   .     A
C170   C174    1.418   .     A
C170   C193    1.415   .     A
C170   Cl204   1.773   .     S
C171   O224    1.294   .     A
C171   O221    1.292   .     A
C171   C175    1.408   .     S
C172   C176    1.408   .     S
C172   O223    1.294   .     A
C172   O222    1.292   .     A
C173   C196    1.418   .     A
C173   C194    1.418   .     A
C174   C195    1.418   .     A
C174   C61     1.548   1_565 S
C175   C624    1.190   1_554 S
C176   C399    1.190   .     S
C177   C182    1.390   .     A
C177   C188    1.404   .     A
C177   H207    1.083   .     S
C178   C183    1.391   .     A
C178   C189    1.404   .     A
C178   H208    1.083   .     S
C179   H209    1.083   .     S
C179   C184    1.389   .     A
C179   C189    1.404   .     A
C180   O218    1.299   .     A
C180   C187    1.461   .     S
C180   O219    1.299   .     A
C181   C185    1.390   .     A
C181   H210    1.083   .     S
C181   C188    1.404   .     A
C182   C186    1.401   .     A
C182   H211    1.082   .     S
C183   C187    1.402   .     A
C183   H212    1.083   .     S
C184   H213    1.082   .     S
C184   C187    1.401   .     A
C185   C186    1.402   .     A
C185   H214    1.083   .     S
C189   C132    1.472   1_655 S
C190   Cl197   1.762   .     S
C190   C194    1.415   .     A
C190   N215    1.374   .     A
C191   C195    1.415   .     A
C191   Cl198   1.761   .     S
C191   N216    1.374   .     A
C192   Cl199   1.762   .     S
C192   N215    1.374   .     A
C192   C196    1.414   .     A
C193   Cl200   1.761   .     S
C193   N216    1.374   .     A
C194   Cl201   1.772   .     S
C195   Cl202   1.772   .     S
C196   Cl203   1.773   .     S
Cu205  Cu206   2.696   .     S
Cu205  O217    1.959   .     S
Cu205  O221    1.930   .     S
Cu205  N216    2.025   .     S
Cu205  O219    1.957   .     S
Cu205  O223    1.932   .     S
Cu206  O218    1.959   .     S
Cu206  O222    1.930   .     S
Cu206  N215    2.025   .     S
Cu206  O220    1.957   .     S
Cu206  O224    1.932   .     S
C225   C242    1.462   .     S
C225   O276    1.299   .     A
C225   O273    1.301   .     A
C226   C230    1.418   .     A
C226   C249    1.415   .     A
C226   Cl260   1.773   .     S
C227   O280    1.294   .     A
C227   O277    1.292   .     A
C227   C231    1.408   .     S
C228   C232    1.408   .     S
C228   O279    1.294   .     A
C228   O278    1.292   .     A
C229   C252    1.418   .     A
C229   C250    1.418   .     A
C229   C342    1.548   1_545 S
C230   C251    1.418   .     A
C230   C341    1.548   .     S
C232   C455    1.190   .     S
C233   C238    1.390   .     A
C233   C244    1.404   .     A
C233   H263    1.083   .     S
C234   C239    1.391   .     A
C234   C245    1.404   .     A
C234   H264    1.083   .     S
C235   H265    1.083   .     S
C235   C240    1.389   .     A
C235   C245    1.404   .     A
C236   O274    1.299   .     A
C236   C243    1.461   .     S
C236   O275    1.299   .     A
C237   C241    1.390   .     A
C237   H266    1.083   .     S
C237   C244    1.404   .     A
C238   C242    1.401   .     A
C238   H267    1.082   .     S
C239   C243    1.402   .     A
C239   H268    1.083   .     S
C240   H269    1.082   .     S
C240   C243    1.401   .     A
C241   C242    1.402   .     A
C241   H270    1.083   .     S
C244   C301    1.472   1_455 S
C245   C300    1.472   .     S
C246   Cl253   1.762   .     S
C246   C250    1.415   .     A
C246   N271    1.374   .     A
C247   C251    1.415   .     A
C247   Cl254   1.761   .     S
C247   N272    1.374   .     A
C248   Cl255   1.762   .     S
C248   N271    1.374   .     A
C248   C252    1.414   .     A
C249   Cl256   1.761   .     S
C249   N272    1.374   .     A
C250   Cl257   1.772   .     S
C251   Cl258   1.772   .     S
C252   Cl259   1.773   .     S
Cu261  Cu262   2.696   .     S
Cu261  O273    1.959   .     S
Cu261  O277    1.930   .     S
Cu261  N272    2.025   .     S
Cu261  O275    1.957   .     S
Cu261  O279    1.932   .     S
Cu262  O274    1.959   .     S
Cu262  O278    1.930   .     S
Cu262  N271    2.025   .     S
Cu262  O276    1.957   .     S
Cu262  O280    1.932   .     S
C281   C298    1.462   .     S
C281   O332    1.299   .     A
C281   O329    1.301   .     A
C282   C286    1.418   .     A
C282   C305    1.415   .     A
C282   Cl316   1.773   .     S
C283   O336    1.294   .     A
C283   O333    1.292   .     A
C283   C287    1.408   .     S
C284   C288    1.408   .     S
C284   O335    1.294   .     A
C284   O334    1.292   .     A
C285   C308    1.418   .     A
C285   C306    1.418   .     A
C285   C398    1.548   1_545 S
C286   C307    1.418   .     A
C286   C397    1.548   .     S
C288   C511    1.190   .     S
C289   C294    1.390   .     A
C289   C300    1.404   .     A
C289   H319    1.083   .     S
C290   C295    1.391   .     A
C290   C301    1.404   .     A
C290   H320    1.083   .     S
C291   H321    1.083   .     S
C291   C296    1.389   .     A
C291   C301    1.404   .     A
C292   O330    1.299   .     A
C292   C299    1.461   .     S
C292   O331    1.299   .     A
C293   C297    1.390   .     A
C293   H322    1.083   .     S
C293   C300    1.404   .     A
C294   C298    1.401   .     A
C294   H323    1.082   .     S
C295   C299    1.402   .     A
C295   H324    1.083   .     S
C296   H325    1.082   .     S
C296   C299    1.401   .     A
C297   C298    1.402   .     A
C297   H326    1.083   .     S
C301   C244    1.472   1_655 S
C302   Cl309   1.762   .     S
C302   C306    1.415   .     A
C302   N327    1.374   .     A
C303   C307    1.415   .     A
C303   Cl310   1.761   .     S
C303   N328    1.374   .     A
C304   Cl311   1.762   .     S
C304   N327    1.374   .     A
C304   C308    1.414   .     A
C305   Cl312   1.761   .     S
C305   N328    1.374   .     A
C306   Cl313   1.772   .     S
C307   Cl314   1.772   .     S
C308   Cl315   1.773   .     S
Cu317  Cu318   2.696   .     S
Cu317  O329    1.959   .     S
Cu317  O333    1.930   .     S
Cu317  N328    2.025   .     S
Cu317  O331    1.957   .     S
Cu317  O335    1.932   .     S
Cu318  O330    1.959   .     S
Cu318  O334    1.930   .     S
Cu318  N327    2.025   .     S
Cu318  O332    1.957   .     S
Cu318  O336    1.932   .     S
C337   C354    1.462   .     S
C337   O388    1.299   .     A
C337   O385    1.301   .     A
C338   C342    1.418   .     A
C338   C361    1.415   .     A
C338   Cl372   1.773   .     S
C339   O392    1.294   .     A
C339   O389    1.292   .     A
C339   C343    1.408   .     S
C340   C344    1.408   .     S
C340   O391    1.294   .     A
C340   O390    1.292   .     A
C341   C364    1.418   .     A
C341   C362    1.418   .     A
C342   C363    1.418   .     A
C342   C229    1.548   1_565 S
C344   C567    1.190   .     S
C345   C350    1.390   .     A
C345   C356    1.404   .     A
C345   H375    1.083   .     S
C346   C351    1.391   .     A
C346   C357    1.404   .     A
C346   H376    1.083   .     S
C347   H377    1.083   .     S
C347   C352    1.389   .     A
C347   C357    1.404   .     A
C348   O386    1.299   .     A
C348   C355    1.461   .     S
C348   O387    1.299   .     A
C349   C353    1.390   .     A
C349   H378    1.083   .     S
C349   C356    1.404   .     A
C350   C354    1.401   .     A
C350   H379    1.082   .     S
C351   C355    1.402   .     A
C351   H380    1.083   .     S
C352   H381    1.082   .     S
C352   C355    1.401   .     A
C353   C354    1.402   .     A
C353   H382    1.083   .     S
C356   C413    1.472   1_455 S
C357   C412    1.472   .     S
C358   Cl365   1.762   .     S
C358   C362    1.415   .     A
C358   N383    1.374   .     A
C359   C363    1.415   .     A
C359   Cl366   1.761   .     S
C359   N384    1.374   .     A
C360   Cl367   1.762   .     S
C360   N383    1.374   .     A
C360   C364    1.414   .     A
C361   Cl368   1.761   .     S
C361   N384    1.374   .     A
C362   Cl369   1.772   .     S
C363   Cl370   1.772   .     S
C364   Cl371   1.773   .     S
Cu373  Cu374   2.696   .     S
Cu373  O385    1.959   .     S
Cu373  O389    1.930   .     S
Cu373  N384    2.025   .     S
Cu373  O387    1.957   .     S
Cu373  O391    1.932   .     S
Cu374  O386    1.959   .     S
Cu374  O390    1.930   .     S
Cu374  N383    2.025   .     S
Cu374  O388    1.957   .     S
Cu374  O392    1.932   .     S
C393   C410    1.462   .     S
C393   O444    1.299   .     A
C393   O441    1.301   .     A
C394   C398    1.418   .     A
C394   C417    1.415   .     A
C394   Cl428   1.773   .     S
C395   O448    1.294   .     A
C395   O445    1.292   .     A
C395   C399    1.408   .     S
C396   C400    1.408   .     S
C396   O447    1.294   .     A
C396   O446    1.292   .     A
C397   C420    1.418   .     A
C397   C418    1.418   .     A
C398   C419    1.418   .     A
C398   C285    1.548   1_565 S
C400   C623    1.190   .     S
C401   C406    1.390   .     A
C401   C412    1.404   .     A
C401   H431    1.083   .     S
C402   C407    1.391   .     A
C402   C413    1.404   .     A
C402   H432    1.083   .     S
C403   H433    1.083   .     S
C403   C408    1.389   .     A
C403   C413    1.404   .     A
C404   O442    1.299   .     A
C404   C411    1.461   .     S
C404   O443    1.299   .     A
C405   C409    1.390   .     A
C405   H434    1.083   .     S
C405   C412    1.404   .     A
C406   C410    1.401   .     A
C406   H435    1.082   .     S
C407   C411    1.402   .     A
C407   H436    1.083   .     S
C408   H437    1.082   .     S
C408   C411    1.401   .     A
C409   C410    1.402   .     A
C409   H438    1.083   .     S
C413   C356    1.472   1_655 S
C414   Cl421   1.762   .     S
C414   C418    1.415   .     A
C414   N439    1.374   .     A
C415   C419    1.415   .     A
C415   Cl422   1.761   .     S
C415   N440    1.374   .     A
C416   Cl423   1.762   .     S
C416   N439    1.374   .     A
C416   C420    1.414   .     A
C417   Cl424   1.761   .     S
C417   N440    1.374   .     A
C418   Cl425   1.772   .     S
C419   Cl426   1.772   .     S
C420   Cl427   1.773   .     S
Cu429  Cu430   2.696   .     S
Cu429  O441    1.959   .     S
Cu429  O445    1.930   .     S
Cu429  N440    2.025   .     S
Cu429  O443    1.957   .     S
Cu429  O447    1.932   .     S
Cu430  O442    1.959   .     S
Cu430  O446    1.930   .     S
Cu430  N439    2.025   .     S
Cu430  O444    1.957   .     S
Cu430  O448    1.932   .     S
C449   C466    1.462   .     S
C449   O500    1.299   .     A
C449   O497    1.301   .     A
C450   C454    1.418   .     A
C450   C473    1.415   .     A
C450   Cl484   1.773   .     S
C451   O504    1.294   .     A
C451   O501    1.292   .     A
C451   C455    1.408   .     S
C452   C456    1.408   .     S
C452   O503    1.294   .     A
C452   O502    1.292   .     A
C453   C476    1.418   .     A
C453   C474    1.418   .     A
C453   C566    1.548   1_545 S
C454   C475    1.418   .     A
C454   C565    1.548   .     S
C456   C7      1.190   1_556 S
C457   C462    1.390   .     A
C457   C468    1.404   .     A
C457   H487    1.083   .     S
C458   C463    1.391   .     A
C458   C469    1.404   .     A
C458   H488    1.083   .     S
C459   H489    1.083   .     S
C459   C464    1.389   .     A
C459   C469    1.404   .     A
C460   O498    1.299   .     A
C460   C467    1.461   .     S
C460   O499    1.299   .     A
C461   C465    1.390   .     A
C461   H490    1.083   .     S
C461   C468    1.404   .     A
C462   C466    1.401   .     A
C462   H491    1.082   .     S
C463   C467    1.402   .     A
C463   H492    1.083   .     S
C464   H493    1.082   .     S
C464   C467    1.401   .     A
C465   C466    1.402   .     A
C465   H494    1.083   .     S
C468   C525    1.472   1_455 S
C469   C524    1.472   .     S
C470   Cl477   1.762   .     S
C470   C474    1.415   .     A
C470   N495    1.374   .     A
C471   C475    1.415   .     A
C471   Cl478   1.761   .     S
C471   N496    1.374   .     A
C472   Cl479   1.762   .     S
C472   N495    1.374   .     A
C472   C476    1.414   .     A
C473   Cl480   1.761   .     S
C473   N496    1.374   .     A
C474   Cl481   1.772   .     S
C475   Cl482   1.772   .     S
C476   Cl483   1.773   .     S
Cu485  Cu486   2.696   .     S
Cu485  O497    1.959   .     S
Cu485  O501    1.930   .     S
Cu485  N496    2.025   .     S
Cu485  O499    1.957   .     S
Cu485  O503    1.932   .     S
Cu486  O498    1.959   .     S
Cu486  O502    1.930   .     S
Cu486  N495    2.025   .     S
Cu486  O500    1.957   .     S
Cu486  O504    1.932   .     S
C505   C522    1.462   .     S
C505   O556    1.299   .     A
C505   O553    1.301   .     A
C506   C510    1.418   .     A
C506   C529    1.415   .     A
C506   Cl540   1.773   .     S
C507   O560    1.294   .     A
C507   O557    1.292   .     A
C507   C511    1.408   .     S
C508   C512    1.408   .     S
C508   O559    1.294   .     A
C508   O558    1.292   .     A
C509   C532    1.418   .     A
C509   C530    1.418   .     A
C509   C622    1.548   1_545 S
C510   C531    1.418   .     A
C510   C621    1.548   .     S
C512   C63     1.190   1_556 S
C513   C518    1.390   .     A
C513   C524    1.404   .     A
C513   H543    1.083   .     S
C514   C519    1.391   .     A
C514   C525    1.404   .     A
C514   H544    1.083   .     S
C515   H545    1.083   .     S
C515   C520    1.389   .     A
C515   C525    1.404   .     A
C516   O554    1.299   .     A
C516   C523    1.461   .     S
C516   O555    1.299   .     A
C517   C521    1.390   .     A
C517   H546    1.083   .     S
C517   C524    1.404   .     A
C518   C522    1.401   .     A
C518   H547    1.082   .     S
C519   C523    1.402   .     A
C519   H548    1.083   .     S
C520   H549    1.082   .     S
C520   C523    1.401   .     A
C521   C522    1.402   .     A
C521   H550    1.083   .     S
C525   C468    1.472   1_655 S
C526   Cl533   1.762   .     S
C526   C530    1.415   .     A
C526   N551    1.374   .     A
C527   C531    1.415   .     A
C527   Cl534   1.761   .     S
C527   N552    1.374   .     A
C528   Cl535   1.762   .     S
C528   N551    1.374   .     A
C528   C532    1.414   .     A
C529   Cl536   1.761   .     S
C529   N552    1.374   .     A
C530   Cl537   1.772   .     S
C531   Cl538   1.772   .     S
C532   Cl539   1.773   .     S
Cu541  Cu542   2.696   .     S
Cu541  O553    1.959   .     S
Cu541  O557    1.930   .     S
Cu541  N552    2.025   .     S
Cu541  O555    1.957   .     S
Cu541  O559    1.932   .     S
Cu542  O554    1.959   .     S
Cu542  O558    1.930   .     S
Cu542  N551    2.025   .     S
Cu542  O556    1.957   .     S
Cu542  O560    1.932   .     S
C561   C578    1.462   .     S
C561   O612    1.299   .     A
C561   O609    1.301   .     A
C562   C566    1.418   .     A
C562   C585    1.415   .     A
C562   Cl596   1.773   .     S
C563   O616    1.294   .     A
C563   O613    1.292   .     A
C563   C567    1.408   .     S
C564   C568    1.408   .     S
C564   O615    1.294   .     A
C564   O614    1.292   .     A
C565   C588    1.418   .     A
C565   C586    1.418   .     A
C566   C587    1.418   .     A
C566   C453    1.548   1_565 S
C568   C119    1.190   1_556 S
C569   C574    1.390   .     A
C569   C580    1.404   .     A
C569   H599    1.083   .     S
C570   C575    1.391   .     A
C570   C581    1.404   .     A
C570   H600    1.083   .     S
C571   H601    1.083   .     S
C571   C576    1.389   .     A
C571   C581    1.404   .     A
C572   O610    1.299   .     A
C572   C579    1.461   .     S
C572   O611    1.299   .     A
C573   C577    1.390   .     A
C573   H602    1.083   .     S
C573   C580    1.404   .     A
C574   C578    1.401   .     A
C574   H603    1.082   .     S
C575   C579    1.402   .     A
C575   H604    1.083   .     S
C576   H605    1.082   .     S
C576   C579    1.401   .     A
C577   C578    1.402   .     A
C577   H606    1.083   .     S
C580   C637    1.472   1_455 S
C581   C636    1.472   .     S
C582   Cl589   1.762   .     S
C582   C586    1.415   .     A
C582   N607    1.374   .     A
C583   C587    1.415   .     A
C583   Cl590   1.761   .     S
C583   N608    1.374   .     A
C584   Cl591   1.762   .     S
C584   N607    1.374   .     A
C584   C588    1.414   .     A
C585   Cl592   1.761   .     S
C585   N608    1.374   .     A
C586   Cl593   1.772   .     S
C587   Cl594   1.772   .     S
C588   Cl595   1.773   .     S
Cu597  Cu598   2.696   .     S
Cu597  O609    1.959   .     S
Cu597  O613    1.930   .     S
Cu597  N608    2.025   .     S
Cu597  O611    1.957   .     S
Cu597  O615    1.932   .     S
Cu598  O610    1.959   .     S
Cu598  O614    1.930   .     S
Cu598  N607    2.025   .     S
Cu598  O612    1.957   .     S
Cu598  O616    1.932   .     S
C617   C634    1.462   .     S
C617   O668    1.299   .     A
C617   O665    1.301   .     A
C618   C622    1.418   .     A
C618   C641    1.415   .     A
C618   Cl652   1.773   .     S
C619   O672    1.294   .     A
C619   O669    1.292   .     A
C619   C623    1.408   .     S
C620   C624    1.408   .     S
C620   O671    1.294   .     A
C620   O670    1.292   .     A
C621   C644    1.418   .     A
C621   C642    1.418   .     A
C622   C643    1.418   .     A
C622   C509    1.548   1_565 S
C624   C175    1.190   1_556 S
C625   C630    1.390   .     A
C625   C636    1.404   .     A
C625   H655    1.083   .     S
C626   C631    1.391   .     A
C626   C637    1.404   .     A
C626   H656    1.083   .     S
C627   H657    1.083   .     S
C627   C632    1.389   .     A
C627   C637    1.404   .     A
C628   O666    1.299   .     A
C628   C635    1.461   .     S
C628   O667    1.299   .     A
C629   C633    1.390   .     A
C629   H658    1.083   .     S
C629   C636    1.404   .     A
C630   C634    1.401   .     A
C630   H659    1.082   .     S
C631   C635    1.402   .     A
C631   H660    1.083   .     S
C632   H661    1.082   .     S
C632   C635    1.401   .     A
C633   C634    1.402   .     A
C633   H662    1.083   .     S
C637   C580    1.472   1_655 S
C638   Cl645   1.762   .     S
C638   C642    1.415   .     A
C638   N663    1.374   .     A
C639   C643    1.415   .     A
C639   Cl646   1.761   .     S
C639   N664    1.374   .     A
C640   Cl647   1.762   .     S
C640   N663    1.374   .     A
C640   C644    1.414   .     A
C641   Cl648   1.761   .     S
C641   N664    1.374   .     A
C642   Cl649   1.772   .     S
C643   Cl650   1.772   .     S
C644   Cl651   1.773   .     S
Cu653  Cu654   2.696   .     S
Cu653  O665    1.959   .     S
Cu653  O669    1.930   .     S
Cu653  N664    2.025   .     S
Cu653  O667    1.957   .     S
Cu653  O671    1.932   .     S
Cu654  O666    1.959   .     S
Cu654  O670    1.930   .     S
Cu654  N663    2.025   .     S
Cu654  O668    1.957   .     S
Cu654  O672    1.932   .     S
