data_str_m2_o5_o17_pcu_sym.16
_audit_creation_date              2020-01-03
_audit_creation_method            'Materials Studio'
_symmetry_space_group_name_H-M    'P1'
_symmetry_Int_Tables_number       1
_symmetry_cell_setting            triclinic
loop_
_symmetry_equiv_pos_as_xyz
  x,y,z
_cell_length_a                    30.2145
_cell_length_b                    27.2322
_cell_length_c                    23.3890
_cell_angle_alpha                 90.0308
_cell_angle_beta                  90.0000
_cell_angle_gamma                 90.0000
loop_
_atom_site_label
_atom_site_type_symbol
_atom_site_fract_x
_atom_site_fract_y
_atom_site_fract_z
_atom_site_U_iso_or_equiv
_atom_site_adp_type
_atom_site_occupancy
C1     C     0.25000   0.07336   0.16665   0.00000  Uiso   1.00
C2     C     0.11640   0.16667   0.16667   0.00000  Uiso   1.00
C3     C     0.45312   0.12198   0.17393   0.00000  Uiso   1.00
C4     C     0.04688   0.21136   0.15941   0.00000  Uiso   1.00
C5     C     0.45312   0.21136   0.15941   0.00000  Uiso   1.00
C6     C     0.04688   0.12198   0.17393   0.00000  Uiso   1.00
C7     C     0.47649   0.16667   0.16667   0.00000  Uiso   1.00
C8     C     0.02351   0.16667   0.16667   0.00000  Uiso   1.00
C9     C     0.47712   0.07826   0.18146   0.00000  Uiso   1.00
C10    C     0.02288   0.25507   0.15187   0.00000  Uiso   1.00
C11    C     0.47712   0.25507   0.15187   0.00000  Uiso   1.00
C12    C     0.25000   0.25997   0.16668   0.00000  Uiso   1.00
C13    C     0.02288   0.07826   0.18146   0.00000  Uiso   1.00
C14    C     0.25000   0.02180   0.16665   0.00000  Uiso   1.00
C15    C     0.25000   0.31153   0.16668   0.00000  Uiso   1.00
C16    C     0.38137   0.25988   0.15375   0.00000  Uiso   1.00
C17    C     0.11863   0.07346   0.17959   0.00000  Uiso   1.00
C18    C     0.38137   0.07346   0.17959   0.00000  Uiso   1.00
C19    C     0.11863   0.25988   0.15375   0.00000  Uiso   1.00
C20    C     0.16444   0.16667   0.16667   0.00000  Uiso   1.00
C21    C     0.33556   0.16667   0.16667   0.00000  Uiso   1.00
C22    C     0.40641   0.21159   0.15990   0.00000  Uiso   1.00
C23    C     0.09359   0.12174   0.17344   0.00000  Uiso   1.00
C24    C     0.40641   0.12175   0.17344   0.00000  Uiso   1.00
C25    C     0.09359   0.21159   0.15990   0.00000  Uiso   1.00
C26    C     0.38360   0.16667   0.16667   0.00000  Uiso   1.00
Cu27   Cu    0.25000   0.16667   0.22303   0.00000  Uiso   1.00
Cu28   Cu    0.25000   0.16667   0.11031   0.00000  Uiso   1.00
H29    H     0.46104   0.04322   0.18765   0.00000  Uiso   1.00
H30    H     0.10887   0.04801   0.14467   0.00000  Uiso   1.00
H31    H     0.34498   0.07699   0.17725   0.00000  Uiso   1.00
H32    H     0.39113   0.04801   0.14467   0.00000  Uiso   1.00
H33    H     0.38911   0.05652   0.22159   0.00000  Uiso   1.00
H34    H     0.15502   0.25634   0.15608   0.00000  Uiso   1.00
H35    H     0.11089   0.27681   0.11174   0.00000  Uiso   1.00
H36    H     0.10887   0.28532   0.18866   0.00000  Uiso   1.00
H37    H     0.03896   0.29011   0.14568   0.00000  Uiso   1.00
H38    H     0.46104   0.29011   0.14568   0.00000  Uiso   1.00
H39    H     0.03896   0.04322   0.18765   0.00000  Uiso   1.00
H40    H     0.34498   0.25634   0.15608   0.00000  Uiso   1.00
H41    H     0.39113   0.28532   0.18866   0.00000  Uiso   1.00
H42    H     0.38911   0.27681   0.11174   0.00000  Uiso   1.00
H43    H     0.15502   0.07699   0.17725   0.00000  Uiso   1.00
H44    H     0.11089   0.05652   0.22159   0.00000  Uiso   1.00
N45    N     0.25000   0.16667   0.02561   0.00000  Uiso   1.00
N46    N     0.25000   0.16667   0.30773   0.00000  Uiso   1.00
O47    O     0.25000   0.09613   0.21425   0.00000  Uiso   1.00
O48    O     0.25000   0.23720   0.11908   0.00000  Uiso   1.00
O49    O     0.25000   0.23720   0.21425   0.00000  Uiso   1.00
O50    O     0.25000   0.09613   0.11908   0.00000  Uiso   1.00
O51    O     0.18513   0.16667   0.21427   0.00000  Uiso   1.00
O52    O     0.31487   0.16667   0.11907   0.00000  Uiso   1.00
O53    O     0.31487   0.16667   0.21427   0.00000  Uiso   1.00
O54    O     0.18513   0.16667   0.11907   0.00000  Uiso   1.00
C55    C     0.75000   0.07336   0.16665   0.00000  Uiso   1.00
C56    C     0.61640   0.16667   0.16667   0.00000  Uiso   1.00
C57    C     0.95312   0.12198   0.17393   0.00000  Uiso   1.00
C58    C     0.54688   0.21136   0.15941   0.00000  Uiso   1.00
C59    C     0.95312   0.21136   0.15941   0.00000  Uiso   1.00
C60    C     0.54688   0.12198   0.17393   0.00000  Uiso   1.00
C61    C     0.97649   0.16667   0.16667   0.00000  Uiso   1.00
C62    C     0.52351   0.16667   0.16667   0.00000  Uiso   1.00
C63    C     0.97712   0.07826   0.18146   0.00000  Uiso   1.00
C64    C     0.52288   0.25507   0.15187   0.00000  Uiso   1.00
C65    C     0.97712   0.25507   0.15187   0.00000  Uiso   1.00
C66    C     0.75000   0.25997   0.16668   0.00000  Uiso   1.00
C67    C     0.52288   0.07826   0.18146   0.00000  Uiso   1.00
C68    C     0.75000   0.02180   0.16665   0.00000  Uiso   1.00
C69    C     0.75000   0.31153   0.16668   0.00000  Uiso   1.00
C70    C     0.88137   0.25988   0.15375   0.00000  Uiso   1.00
C71    C     0.61863   0.07346   0.17959   0.00000  Uiso   1.00
C72    C     0.88137   0.07346   0.17959   0.00000  Uiso   1.00
C73    C     0.61863   0.25988   0.15375   0.00000  Uiso   1.00
C74    C     0.66444   0.16667   0.16667   0.00000  Uiso   1.00
C75    C     0.83556   0.16667   0.16667   0.00000  Uiso   1.00
C76    C     0.90641   0.21159   0.15990   0.00000  Uiso   1.00
C77    C     0.59359   0.12174   0.17344   0.00000  Uiso   1.00
C78    C     0.90641   0.12175   0.17344   0.00000  Uiso   1.00
C79    C     0.59359   0.21159   0.15990   0.00000  Uiso   1.00
C80    C     0.88360   0.16667   0.16667   0.00000  Uiso   1.00
Cu81   Cu    0.75000   0.16667   0.22303   0.00000  Uiso   1.00
Cu82   Cu    0.75000   0.16667   0.11031   0.00000  Uiso   1.00
H83    H     0.96104   0.04322   0.18765   0.00000  Uiso   1.00
H84    H     0.60887   0.04801   0.14467   0.00000  Uiso   1.00
H85    H     0.84498   0.07699   0.17725   0.00000  Uiso   1.00
H86    H     0.89113   0.04801   0.14467   0.00000  Uiso   1.00
H87    H     0.88911   0.05652   0.22159   0.00000  Uiso   1.00
H88    H     0.65502   0.25634   0.15608   0.00000  Uiso   1.00
H89    H     0.61089   0.27681   0.11174   0.00000  Uiso   1.00
H90    H     0.60887   0.28532   0.18866   0.00000  Uiso   1.00
H91    H     0.53896   0.29011   0.14568   0.00000  Uiso   1.00
H92    H     0.96104   0.29011   0.14568   0.00000  Uiso   1.00
H93    H     0.53896   0.04322   0.18765   0.00000  Uiso   1.00
H94    H     0.84498   0.25634   0.15608   0.00000  Uiso   1.00
H95    H     0.89113   0.28532   0.18866   0.00000  Uiso   1.00
H96    H     0.88911   0.27681   0.11174   0.00000  Uiso   1.00
H97    H     0.65502   0.07699   0.17725   0.00000  Uiso   1.00
H98    H     0.61089   0.05652   0.22159   0.00000  Uiso   1.00
N99    N     0.75000   0.16667   0.02561   0.00000  Uiso   1.00
N100   N     0.75000   0.16667   0.30773   0.00000  Uiso   1.00
O101   O     0.75000   0.09613   0.21425   0.00000  Uiso   1.00
O102   O     0.75000   0.23720   0.11908   0.00000  Uiso   1.00
O103   O     0.75000   0.23720   0.21425   0.00000  Uiso   1.00
O104   O     0.75000   0.09613   0.11908   0.00000  Uiso   1.00
O105   O     0.68513   0.16667   0.21427   0.00000  Uiso   1.00
O106   O     0.81487   0.16667   0.11907   0.00000  Uiso   1.00
O107   O     0.81487   0.16667   0.21427   0.00000  Uiso   1.00
O108   O     0.68513   0.16667   0.11907   0.00000  Uiso   1.00
C109   C     0.25000   0.40669   0.16665   0.00000  Uiso   1.00
C110   C     0.11640   0.50000   0.16667   0.00000  Uiso   1.00
C111   C     0.45312   0.45531   0.17393   0.00000  Uiso   1.00
C112   C     0.04688   0.54469   0.15941   0.00000  Uiso   1.00
C113   C     0.45312   0.54469   0.15941   0.00000  Uiso   1.00
C114   C     0.04688   0.45531   0.17393   0.00000  Uiso   1.00
C115   C     0.47649   0.50000   0.16667   0.00000  Uiso   1.00
C116   C     0.02351   0.50000   0.16667   0.00000  Uiso   1.00
C117   C     0.47712   0.41160   0.18146   0.00000  Uiso   1.00
C118   C     0.02288   0.58840   0.15187   0.00000  Uiso   1.00
C119   C     0.47712   0.58840   0.15187   0.00000  Uiso   1.00
C120   C     0.25000   0.59331   0.16668   0.00000  Uiso   1.00
C121   C     0.02288   0.41160   0.18146   0.00000  Uiso   1.00
C122   C     0.25000   0.35514   0.16665   0.00000  Uiso   1.00
C123   C     0.25000   0.64486   0.16668   0.00000  Uiso   1.00
C124   C     0.38137   0.59321   0.15375   0.00000  Uiso   1.00
C125   C     0.11863   0.40679   0.17959   0.00000  Uiso   1.00
C126   C     0.38137   0.40679   0.17959   0.00000  Uiso   1.00
C127   C     0.11863   0.59321   0.15375   0.00000  Uiso   1.00
C128   C     0.16444   0.50000   0.16667   0.00000  Uiso   1.00
C129   C     0.33556   0.50000   0.16667   0.00000  Uiso   1.00
C130   C     0.40641   0.54492   0.15990   0.00000  Uiso   1.00
C131   C     0.09359   0.45508   0.17344   0.00000  Uiso   1.00
C132   C     0.40641   0.45508   0.17344   0.00000  Uiso   1.00
C133   C     0.09359   0.54492   0.15990   0.00000  Uiso   1.00
C134   C     0.38360   0.50000   0.16667   0.00000  Uiso   1.00
Cu135  Cu    0.25000   0.50000   0.22303   0.00000  Uiso   1.00
Cu136  Cu    0.25000   0.50000   0.11031   0.00000  Uiso   1.00
H137   H     0.46104   0.37656   0.18765   0.00000  Uiso   1.00
H138   H     0.10887   0.38134   0.14467   0.00000  Uiso   1.00
H139   H     0.34498   0.41033   0.17725   0.00000  Uiso   1.00
H140   H     0.39113   0.38134   0.14467   0.00000  Uiso   1.00
H141   H     0.38911   0.38986   0.22159   0.00000  Uiso   1.00
H142   H     0.15502   0.58967   0.15608   0.00000  Uiso   1.00
H143   H     0.11089   0.61014   0.11174   0.00000  Uiso   1.00
H144   H     0.10887   0.61866   0.18866   0.00000  Uiso   1.00
H145   H     0.03896   0.62344   0.14568   0.00000  Uiso   1.00
H146   H     0.46104   0.62344   0.14568   0.00000  Uiso   1.00
H147   H     0.03896   0.37656   0.18765   0.00000  Uiso   1.00
H148   H     0.34498   0.58967   0.15608   0.00000  Uiso   1.00
H149   H     0.39113   0.61866   0.18866   0.00000  Uiso   1.00
H150   H     0.38911   0.61014   0.11174   0.00000  Uiso   1.00
H151   H     0.15502   0.41033   0.17725   0.00000  Uiso   1.00
H152   H     0.11089   0.38986   0.22159   0.00000  Uiso   1.00
N153   N     0.25000   0.50000   0.02561   0.00000  Uiso   1.00
N154   N     0.25000   0.50000   0.30773   0.00000  Uiso   1.00
O155   O     0.25000   0.42946   0.21425   0.00000  Uiso   1.00
O156   O     0.25000   0.57054   0.11908   0.00000  Uiso   1.00
O157   O     0.25000   0.57054   0.21425   0.00000  Uiso   1.00
O158   O     0.25000   0.42946   0.11908   0.00000  Uiso   1.00
O159   O     0.18513   0.50000   0.21427   0.00000  Uiso   1.00
O160   O     0.31487   0.50000   0.11907   0.00000  Uiso   1.00
O161   O     0.31487   0.50000   0.21427   0.00000  Uiso   1.00
O162   O     0.18513   0.50000   0.11907   0.00000  Uiso   1.00
C163   C     0.75000   0.40669   0.16665   0.00000  Uiso   1.00
C164   C     0.61640   0.50000   0.16667   0.00000  Uiso   1.00
C165   C     0.95312   0.45531   0.17393   0.00000  Uiso   1.00
C166   C     0.54688   0.54469   0.15941   0.00000  Uiso   1.00
C167   C     0.95312   0.54469   0.15941   0.00000  Uiso   1.00
C168   C     0.54688   0.45531   0.17393   0.00000  Uiso   1.00
C169   C     0.97649   0.50000   0.16667   0.00000  Uiso   1.00
C170   C     0.52351   0.50000   0.16667   0.00000  Uiso   1.00
C171   C     0.97712   0.41160   0.18146   0.00000  Uiso   1.00
C172   C     0.52288   0.58840   0.15187   0.00000  Uiso   1.00
C173   C     0.97712   0.58840   0.15187   0.00000  Uiso   1.00
C174   C     0.75000   0.59331   0.16668   0.00000  Uiso   1.00
C175   C     0.52288   0.41160   0.18146   0.00000  Uiso   1.00
C176   C     0.75000   0.35514   0.16665   0.00000  Uiso   1.00
C177   C     0.75000   0.64486   0.16668   0.00000  Uiso   1.00
C178   C     0.88137   0.59321   0.15375   0.00000  Uiso   1.00
C179   C     0.61863   0.40679   0.17959   0.00000  Uiso   1.00
C180   C     0.88137   0.40679   0.17959   0.00000  Uiso   1.00
C181   C     0.61863   0.59321   0.15375   0.00000  Uiso   1.00
C182   C     0.66444   0.50000   0.16667   0.00000  Uiso   1.00
C183   C     0.83556   0.50000   0.16667   0.00000  Uiso   1.00
C184   C     0.90641   0.54492   0.15990   0.00000  Uiso   1.00
C185   C     0.59359   0.45508   0.17344   0.00000  Uiso   1.00
C186   C     0.90641   0.45508   0.17344   0.00000  Uiso   1.00
C187   C     0.59359   0.54492   0.15990   0.00000  Uiso   1.00
C188   C     0.88360   0.50000   0.16667   0.00000  Uiso   1.00
Cu189  Cu    0.75000   0.50000   0.22303   0.00000  Uiso   1.00
Cu190  Cu    0.75000   0.50000   0.11031   0.00000  Uiso   1.00
H191   H     0.96104   0.37656   0.18765   0.00000  Uiso   1.00
H192   H     0.60887   0.38134   0.14467   0.00000  Uiso   1.00
H193   H     0.84498   0.41033   0.17725   0.00000  Uiso   1.00
H194   H     0.89113   0.38134   0.14467   0.00000  Uiso   1.00
H195   H     0.88911   0.38986   0.22159   0.00000  Uiso   1.00
H196   H     0.65502   0.58967   0.15608   0.00000  Uiso   1.00
H197   H     0.61089   0.61014   0.11174   0.00000  Uiso   1.00
H198   H     0.60887   0.61866   0.18866   0.00000  Uiso   1.00
H199   H     0.53896   0.62344   0.14568   0.00000  Uiso   1.00
H200   H     0.96104   0.62344   0.14568   0.00000  Uiso   1.00
H201   H     0.53896   0.37656   0.18765   0.00000  Uiso   1.00
H202   H     0.84498   0.58967   0.15608   0.00000  Uiso   1.00
H203   H     0.89113   0.61866   0.18866   0.00000  Uiso   1.00
H204   H     0.88911   0.61014   0.11174   0.00000  Uiso   1.00
H205   H     0.65502   0.41033   0.17725   0.00000  Uiso   1.00
H206   H     0.61089   0.38986   0.22159   0.00000  Uiso   1.00
N207   N     0.75000   0.50000   0.02561   0.00000  Uiso   1.00
N208   N     0.75000   0.50000   0.30773   0.00000  Uiso   1.00
O209   O     0.75000   0.42946   0.21425   0.00000  Uiso   1.00
O210   O     0.75000   0.57054   0.11908   0.00000  Uiso   1.00
O211   O     0.75000   0.57054   0.21425   0.00000  Uiso   1.00
O212   O     0.75000   0.42946   0.11908   0.00000  Uiso   1.00
O213   O     0.68513   0.50000   0.21427   0.00000  Uiso   1.00
O214   O     0.81487   0.50000   0.11907   0.00000  Uiso   1.00
O215   O     0.81487   0.50000   0.21427   0.00000  Uiso   1.00
O216   O     0.68513   0.50000   0.11907   0.00000  Uiso   1.00
C217   C     0.25000   0.74003   0.16665   0.00000  Uiso   1.00
C218   C     0.11640   0.83333   0.16667   0.00000  Uiso   1.00
C219   C     0.45312   0.78864   0.17393   0.00000  Uiso   1.00
C220   C     0.04688   0.87802   0.15941   0.00000  Uiso   1.00
C221   C     0.45312   0.87802   0.15941   0.00000  Uiso   1.00
C222   C     0.04688   0.78864   0.17393   0.00000  Uiso   1.00
C223   C     0.47649   0.83333   0.16667   0.00000  Uiso   1.00
C224   C     0.02351   0.83333   0.16667   0.00000  Uiso   1.00
C225   C     0.47712   0.74493   0.18146   0.00000  Uiso   1.00
C226   C     0.02288   0.92174   0.15187   0.00000  Uiso   1.00
C227   C     0.47712   0.92174   0.15187   0.00000  Uiso   1.00
C228   C     0.25000   0.92664   0.16668   0.00000  Uiso   1.00
C229   C     0.02288   0.74493   0.18146   0.00000  Uiso   1.00
C230   C     0.25000   0.68847   0.16665   0.00000  Uiso   1.00
C231   C     0.25000   0.97820   0.16668   0.00000  Uiso   1.00
C232   C     0.38137   0.92654   0.15375   0.00000  Uiso   1.00
C233   C     0.11863   0.74012   0.17959   0.00000  Uiso   1.00
C234   C     0.38137   0.74012   0.17959   0.00000  Uiso   1.00
C235   C     0.11863   0.92654   0.15375   0.00000  Uiso   1.00
C236   C     0.16444   0.83333   0.16667   0.00000  Uiso   1.00
C237   C     0.33556   0.83333   0.16667   0.00000  Uiso   1.00
C238   C     0.40641   0.87826   0.15990   0.00000  Uiso   1.00
C239   C     0.09359   0.78841   0.17344   0.00000  Uiso   1.00
C240   C     0.40641   0.78841   0.17344   0.00000  Uiso   1.00
C241   C     0.09359   0.87825   0.15990   0.00000  Uiso   1.00
C242   C     0.38360   0.83333   0.16667   0.00000  Uiso   1.00
Cu243  Cu    0.25000   0.83333   0.22303   0.00000  Uiso   1.00
Cu244  Cu    0.25000   0.83333   0.11031   0.00000  Uiso   1.00
H245   H     0.46104   0.70989   0.18765   0.00000  Uiso   1.00
H246   H     0.10887   0.71468   0.14467   0.00000  Uiso   1.00
H247   H     0.34498   0.74366   0.17725   0.00000  Uiso   1.00
H248   H     0.39113   0.71468   0.14467   0.00000  Uiso   1.00
H249   H     0.38911   0.72319   0.22159   0.00000  Uiso   1.00
H250   H     0.15502   0.92301   0.15608   0.00000  Uiso   1.00
H251   H     0.11089   0.94348   0.11174   0.00000  Uiso   1.00
H252   H     0.10887   0.95199   0.18866   0.00000  Uiso   1.00
H253   H     0.03896   0.95678   0.14568   0.00000  Uiso   1.00
H254   H     0.46104   0.95678   0.14568   0.00000  Uiso   1.00
H255   H     0.03896   0.70989   0.18765   0.00000  Uiso   1.00
H256   H     0.34498   0.92301   0.15608   0.00000  Uiso   1.00
H257   H     0.39113   0.95199   0.18866   0.00000  Uiso   1.00
H258   H     0.38911   0.94348   0.11174   0.00000  Uiso   1.00
H259   H     0.15502   0.74366   0.17725   0.00000  Uiso   1.00
H260   H     0.11089   0.72319   0.22159   0.00000  Uiso   1.00
N261   N     0.25000   0.83333   0.02561   0.00000  Uiso   1.00
N262   N     0.25000   0.83333   0.30773   0.00000  Uiso   1.00
O263   O     0.25000   0.76280   0.21425   0.00000  Uiso   1.00
O264   O     0.25000   0.90387   0.11908   0.00000  Uiso   1.00
O265   O     0.25000   0.90387   0.21425   0.00000  Uiso   1.00
O266   O     0.25000   0.76280   0.11908   0.00000  Uiso   1.00
O267   O     0.18513   0.83333   0.21427   0.00000  Uiso   1.00
O268   O     0.31487   0.83333   0.11907   0.00000  Uiso   1.00
O269   O     0.31487   0.83333   0.21427   0.00000  Uiso   1.00
O270   O     0.18513   0.83333   0.11907   0.00000  Uiso   1.00
C271   C     0.75000   0.74003   0.16665   0.00000  Uiso   1.00
C272   C     0.61640   0.83333   0.16667   0.00000  Uiso   1.00
C273   C     0.95312   0.78864   0.17393   0.00000  Uiso   1.00
C274   C     0.54688   0.87802   0.15941   0.00000  Uiso   1.00
C275   C     0.95312   0.87802   0.15941   0.00000  Uiso   1.00
C276   C     0.54688   0.78864   0.17393   0.00000  Uiso   1.00
C277   C     0.97649   0.83333   0.16667   0.00000  Uiso   1.00
C278   C     0.52351   0.83333   0.16667   0.00000  Uiso   1.00
C279   C     0.97712   0.74493   0.18146   0.00000  Uiso   1.00
C280   C     0.52288   0.92174   0.15187   0.00000  Uiso   1.00
C281   C     0.97712   0.92174   0.15187   0.00000  Uiso   1.00
C282   C     0.75000   0.92664   0.16668   0.00000  Uiso   1.00
C283   C     0.52288   0.74493   0.18146   0.00000  Uiso   1.00
C284   C     0.75000   0.68847   0.16665   0.00000  Uiso   1.00
C285   C     0.75000   0.97820   0.16668   0.00000  Uiso   1.00
C286   C     0.88137   0.92654   0.15375   0.00000  Uiso   1.00
C287   C     0.61863   0.74012   0.17959   0.00000  Uiso   1.00
C288   C     0.88137   0.74012   0.17959   0.00000  Uiso   1.00
C289   C     0.61863   0.92654   0.15375   0.00000  Uiso   1.00
C290   C     0.66444   0.83333   0.16667   0.00000  Uiso   1.00
C291   C     0.83556   0.83333   0.16667   0.00000  Uiso   1.00
C292   C     0.90641   0.87826   0.15990   0.00000  Uiso   1.00
C293   C     0.59359   0.78841   0.17344   0.00000  Uiso   1.00
C294   C     0.90641   0.78841   0.17344   0.00000  Uiso   1.00
C295   C     0.59359   0.87825   0.15990   0.00000  Uiso   1.00
C296   C     0.88360   0.83333   0.16667   0.00000  Uiso   1.00
Cu297  Cu    0.75000   0.83333   0.22303   0.00000  Uiso   1.00
Cu298  Cu    0.75000   0.83333   0.11031   0.00000  Uiso   1.00
H299   H     0.96104   0.70989   0.18765   0.00000  Uiso   1.00
H300   H     0.60887   0.71468   0.14467   0.00000  Uiso   1.00
H301   H     0.84498   0.74366   0.17725   0.00000  Uiso   1.00
H302   H     0.89113   0.71468   0.14467   0.00000  Uiso   1.00
H303   H     0.88911   0.72319   0.22159   0.00000  Uiso   1.00
H304   H     0.65502   0.92301   0.15608   0.00000  Uiso   1.00
H305   H     0.61089   0.94348   0.11174   0.00000  Uiso   1.00
H306   H     0.60887   0.95199   0.18866   0.00000  Uiso   1.00
H307   H     0.53896   0.95678   0.14568   0.00000  Uiso   1.00
H308   H     0.96104   0.95678   0.14568   0.00000  Uiso   1.00
H309   H     0.53896   0.70989   0.18765   0.00000  Uiso   1.00
H310   H     0.84498   0.92301   0.15608   0.00000  Uiso   1.00
H311   H     0.89113   0.95199   0.18866   0.00000  Uiso   1.00
H312   H     0.88911   0.94348   0.11174   0.00000  Uiso   1.00
H313   H     0.65502   0.74366   0.17725   0.00000  Uiso   1.00
H314   H     0.61089   0.72319   0.22159   0.00000  Uiso   1.00
N315   N     0.75000   0.83333   0.02561   0.00000  Uiso   1.00
N316   N     0.75000   0.83333   0.30773   0.00000  Uiso   1.00
O317   O     0.75000   0.76280   0.21425   0.00000  Uiso   1.00
O318   O     0.75000   0.90387   0.11908   0.00000  Uiso   1.00
O319   O     0.75000   0.90387   0.21425   0.00000  Uiso   1.00
O320   O     0.75000   0.76280   0.11908   0.00000  Uiso   1.00
O321   O     0.68513   0.83333   0.21427   0.00000  Uiso   1.00
O322   O     0.81487   0.83333   0.11907   0.00000  Uiso   1.00
O323   O     0.81487   0.83333   0.21427   0.00000  Uiso   1.00
O324   O     0.68513   0.83333   0.11907   0.00000  Uiso   1.00
C325   C     0.25000   0.07336   0.49999   0.00000  Uiso   1.00
C326   C     0.11640   0.16667   0.50000   0.00000  Uiso   1.00
C327   C     0.45312   0.12198   0.50726   0.00000  Uiso   1.00
C328   C     0.04688   0.21136   0.49274   0.00000  Uiso   1.00
C329   C     0.45312   0.21136   0.49274   0.00000  Uiso   1.00
C330   C     0.04688   0.12198   0.50726   0.00000  Uiso   1.00
C331   C     0.47649   0.16667   0.50000   0.00000  Uiso   1.00
C332   C     0.02351   0.16667   0.50000   0.00000  Uiso   1.00
C333   C     0.47712   0.07826   0.51480   0.00000  Uiso   1.00
C334   C     0.02288   0.25507   0.48520   0.00000  Uiso   1.00
C335   C     0.47712   0.25507   0.48520   0.00000  Uiso   1.00
C336   C     0.25000   0.25997   0.50001   0.00000  Uiso   1.00
C337   C     0.02288   0.07826   0.51480   0.00000  Uiso   1.00
C338   C     0.25000   0.02180   0.49999   0.00000  Uiso   1.00
C339   C     0.25000   0.31153   0.50002   0.00000  Uiso   1.00
C340   C     0.38137   0.25988   0.48708   0.00000  Uiso   1.00
C341   C     0.11863   0.07346   0.51292   0.00000  Uiso   1.00
C342   C     0.38137   0.07346   0.51292   0.00000  Uiso   1.00
C343   C     0.11863   0.25988   0.48708   0.00000  Uiso   1.00
C344   C     0.16444   0.16667   0.50000   0.00000  Uiso   1.00
C345   C     0.33556   0.16667   0.50000   0.00000  Uiso   1.00
C346   C     0.40641   0.21159   0.49323   0.00000  Uiso   1.00
C347   C     0.09359   0.12174   0.50677   0.00000  Uiso   1.00
C348   C     0.40641   0.12175   0.50677   0.00000  Uiso   1.00
C349   C     0.09359   0.21159   0.49323   0.00000  Uiso   1.00
C350   C     0.38360   0.16667   0.50000   0.00000  Uiso   1.00
Cu351  Cu    0.25000   0.16667   0.55636   0.00000  Uiso   1.00
Cu352  Cu    0.25000   0.16667   0.44364   0.00000  Uiso   1.00
H353   H     0.46104   0.04322   0.52098   0.00000  Uiso   1.00
H354   H     0.10887   0.04801   0.47801   0.00000  Uiso   1.00
H355   H     0.34498   0.07699   0.51059   0.00000  Uiso   1.00
H356   H     0.39113   0.04801   0.47801   0.00000  Uiso   1.00
H357   H     0.38911   0.05652   0.55492   0.00000  Uiso   1.00
H358   H     0.15502   0.25634   0.48941   0.00000  Uiso   1.00
H359   H     0.11089   0.27681   0.44508   0.00000  Uiso   1.00
H360   H     0.10887   0.28532   0.52199   0.00000  Uiso   1.00
H361   H     0.03896   0.29011   0.47902   0.00000  Uiso   1.00
H362   H     0.46104   0.29011   0.47902   0.00000  Uiso   1.00
H363   H     0.03896   0.04322   0.52098   0.00000  Uiso   1.00
H364   H     0.34498   0.25634   0.48941   0.00000  Uiso   1.00
H365   H     0.39113   0.28532   0.52199   0.00000  Uiso   1.00
H366   H     0.38911   0.27681   0.44508   0.00000  Uiso   1.00
H367   H     0.15502   0.07699   0.51059   0.00000  Uiso   1.00
H368   H     0.11089   0.05652   0.55492   0.00000  Uiso   1.00
N369   N     0.25000   0.16667   0.35894   0.00000  Uiso   1.00
N370   N     0.25000   0.16667   0.64106   0.00000  Uiso   1.00
O371   O     0.25000   0.09613   0.54759   0.00000  Uiso   1.00
O372   O     0.25000   0.23720   0.45241   0.00000  Uiso   1.00
O373   O     0.25000   0.23720   0.54759   0.00000  Uiso   1.00
O374   O     0.25000   0.09613   0.45241   0.00000  Uiso   1.00
O375   O     0.18513   0.16667   0.54760   0.00000  Uiso   1.00
O376   O     0.31487   0.16667   0.45240   0.00000  Uiso   1.00
O377   O     0.31487   0.16667   0.54760   0.00000  Uiso   1.00
O378   O     0.18513   0.16667   0.45240   0.00000  Uiso   1.00
C379   C     0.75000   0.07336   0.49999   0.00000  Uiso   1.00
C380   C     0.61640   0.16667   0.50000   0.00000  Uiso   1.00
C381   C     0.95312   0.12198   0.50726   0.00000  Uiso   1.00
C382   C     0.54688   0.21136   0.49274   0.00000  Uiso   1.00
C383   C     0.95312   0.21136   0.49274   0.00000  Uiso   1.00
C384   C     0.54688   0.12198   0.50726   0.00000  Uiso   1.00
C385   C     0.97649   0.16667   0.50000   0.00000  Uiso   1.00
C386   C     0.52351   0.16667   0.50000   0.00000  Uiso   1.00
C387   C     0.97712   0.07826   0.51480   0.00000  Uiso   1.00
C388   C     0.52288   0.25507   0.48520   0.00000  Uiso   1.00
C389   C     0.97712   0.25507   0.48520   0.00000  Uiso   1.00
C390   C     0.75000   0.25997   0.50001   0.00000  Uiso   1.00
C391   C     0.52288   0.07826   0.51480   0.00000  Uiso   1.00
C392   C     0.75000   0.02180   0.49999   0.00000  Uiso   1.00
C393   C     0.75000   0.31153   0.50002   0.00000  Uiso   1.00
C394   C     0.88137   0.25988   0.48708   0.00000  Uiso   1.00
C395   C     0.61863   0.07346   0.51292   0.00000  Uiso   1.00
C396   C     0.88137   0.07346   0.51292   0.00000  Uiso   1.00
C397   C     0.61863   0.25988   0.48708   0.00000  Uiso   1.00
C398   C     0.66444   0.16667   0.50000   0.00000  Uiso   1.00
C399   C     0.83556   0.16667   0.50000   0.00000  Uiso   1.00
C400   C     0.90641   0.21159   0.49323   0.00000  Uiso   1.00
C401   C     0.59359   0.12174   0.50677   0.00000  Uiso   1.00
C402   C     0.90641   0.12175   0.50677   0.00000  Uiso   1.00
C403   C     0.59359   0.21159   0.49323   0.00000  Uiso   1.00
C404   C     0.88360   0.16667   0.50000   0.00000  Uiso   1.00
Cu405  Cu    0.75000   0.16667   0.55636   0.00000  Uiso   1.00
Cu406  Cu    0.75000   0.16667   0.44364   0.00000  Uiso   1.00
H407   H     0.96104   0.04322   0.52098   0.00000  Uiso   1.00
H408   H     0.60887   0.04801   0.47801   0.00000  Uiso   1.00
H409   H     0.84498   0.07699   0.51059   0.00000  Uiso   1.00
H410   H     0.89113   0.04801   0.47801   0.00000  Uiso   1.00
H411   H     0.88911   0.05652   0.55492   0.00000  Uiso   1.00
H412   H     0.65502   0.25634   0.48941   0.00000  Uiso   1.00
H413   H     0.61089   0.27681   0.44508   0.00000  Uiso   1.00
H414   H     0.60887   0.28532   0.52199   0.00000  Uiso   1.00
H415   H     0.53896   0.29011   0.47902   0.00000  Uiso   1.00
H416   H     0.96104   0.29011   0.47902   0.00000  Uiso   1.00
H417   H     0.53896   0.04322   0.52098   0.00000  Uiso   1.00
H418   H     0.84498   0.25634   0.48941   0.00000  Uiso   1.00
H419   H     0.89113   0.28532   0.52199   0.00000  Uiso   1.00
H420   H     0.88911   0.27681   0.44508   0.00000  Uiso   1.00
H421   H     0.65502   0.07699   0.51059   0.00000  Uiso   1.00
H422   H     0.61089   0.05652   0.55492   0.00000  Uiso   1.00
N423   N     0.75000   0.16667   0.35894   0.00000  Uiso   1.00
N424   N     0.75000   0.16667   0.64106   0.00000  Uiso   1.00
O425   O     0.75000   0.09613   0.54759   0.00000  Uiso   1.00
O426   O     0.75000   0.23720   0.45241   0.00000  Uiso   1.00
O427   O     0.75000   0.23720   0.54759   0.00000  Uiso   1.00
O428   O     0.75000   0.09613   0.45241   0.00000  Uiso   1.00
O429   O     0.68513   0.16667   0.54760   0.00000  Uiso   1.00
O430   O     0.81487   0.16667   0.45240   0.00000  Uiso   1.00
O431   O     0.81487   0.16667   0.54760   0.00000  Uiso   1.00
O432   O     0.68513   0.16667   0.45240   0.00000  Uiso   1.00
C433   C     0.25000   0.40669   0.49999   0.00000  Uiso   1.00
C434   C     0.11640   0.50000   0.50000   0.00000  Uiso   1.00
C435   C     0.45312   0.45531   0.50726   0.00000  Uiso   1.00
C436   C     0.04688   0.54469   0.49274   0.00000  Uiso   1.00
C437   C     0.45312   0.54469   0.49274   0.00000  Uiso   1.00
C438   C     0.04688   0.45531   0.50726   0.00000  Uiso   1.00
C439   C     0.47649   0.50000   0.50000   0.00000  Uiso   1.00
C440   C     0.02351   0.50000   0.50000   0.00000  Uiso   1.00
C441   C     0.47712   0.41160   0.51480   0.00000  Uiso   1.00
C442   C     0.02288   0.58840   0.48520   0.00000  Uiso   1.00
C443   C     0.47712   0.58840   0.48520   0.00000  Uiso   1.00
C444   C     0.25000   0.59331   0.50001   0.00000  Uiso   1.00
C445   C     0.02288   0.41160   0.51480   0.00000  Uiso   1.00
C446   C     0.25000   0.35514   0.49999   0.00000  Uiso   1.00
C447   C     0.25000   0.64486   0.50002   0.00000  Uiso   1.00
C448   C     0.38137   0.59321   0.48708   0.00000  Uiso   1.00
C449   C     0.11863   0.40679   0.51292   0.00000  Uiso   1.00
C450   C     0.38137   0.40679   0.51292   0.00000  Uiso   1.00
C451   C     0.11863   0.59321   0.48708   0.00000  Uiso   1.00
C452   C     0.16444   0.50000   0.50000   0.00000  Uiso   1.00
C453   C     0.33556   0.50000   0.50000   0.00000  Uiso   1.00
C454   C     0.40641   0.54492   0.49323   0.00000  Uiso   1.00
C455   C     0.09359   0.45508   0.50677   0.00000  Uiso   1.00
C456   C     0.40641   0.45508   0.50677   0.00000  Uiso   1.00
C457   C     0.09359   0.54492   0.49323   0.00000  Uiso   1.00
C458   C     0.38360   0.50000   0.50000   0.00000  Uiso   1.00
Cu459  Cu    0.25000   0.50000   0.55636   0.00000  Uiso   1.00
Cu460  Cu    0.25000   0.50000   0.44364   0.00000  Uiso   1.00
H461   H     0.46104   0.37656   0.52098   0.00000  Uiso   1.00
H462   H     0.10887   0.38134   0.47801   0.00000  Uiso   1.00
H463   H     0.34498   0.41033   0.51059   0.00000  Uiso   1.00
H464   H     0.39113   0.38134   0.47801   0.00000  Uiso   1.00
H465   H     0.38911   0.38986   0.55492   0.00000  Uiso   1.00
H466   H     0.15502   0.58967   0.48941   0.00000  Uiso   1.00
H467   H     0.11089   0.61014   0.44508   0.00000  Uiso   1.00
H468   H     0.10887   0.61866   0.52199   0.00000  Uiso   1.00
H469   H     0.03896   0.62344   0.47902   0.00000  Uiso   1.00
H470   H     0.46104   0.62344   0.47902   0.00000  Uiso   1.00
H471   H     0.03896   0.37656   0.52098   0.00000  Uiso   1.00
H472   H     0.34498   0.58967   0.48941   0.00000  Uiso   1.00
H473   H     0.39113   0.61866   0.52199   0.00000  Uiso   1.00
H474   H     0.38911   0.61014   0.44508   0.00000  Uiso   1.00
H475   H     0.15502   0.41033   0.51059   0.00000  Uiso   1.00
H476   H     0.11089   0.38986   0.55492   0.00000  Uiso   1.00
N477   N     0.25000   0.50000   0.35894   0.00000  Uiso   1.00
N478   N     0.25000   0.50000   0.64106   0.00000  Uiso   1.00
O479   O     0.25000   0.42946   0.54759   0.00000  Uiso   1.00
O480   O     0.25000   0.57054   0.45241   0.00000  Uiso   1.00
O481   O     0.25000   0.57054   0.54759   0.00000  Uiso   1.00
O482   O     0.25000   0.42946   0.45241   0.00000  Uiso   1.00
O483   O     0.18513   0.50000   0.54760   0.00000  Uiso   1.00
O484   O     0.31487   0.50000   0.45240   0.00000  Uiso   1.00
O485   O     0.31487   0.50000   0.54760   0.00000  Uiso   1.00
O486   O     0.18513   0.50000   0.45240   0.00000  Uiso   1.00
C487   C     0.75000   0.40669   0.49999   0.00000  Uiso   1.00
C488   C     0.61640   0.50000   0.50000   0.00000  Uiso   1.00
C489   C     0.95312   0.45531   0.50726   0.00000  Uiso   1.00
C490   C     0.54688   0.54469   0.49274   0.00000  Uiso   1.00
C491   C     0.95312   0.54469   0.49274   0.00000  Uiso   1.00
C492   C     0.54688   0.45531   0.50726   0.00000  Uiso   1.00
C493   C     0.97649   0.50000   0.50000   0.00000  Uiso   1.00
C494   C     0.52351   0.50000   0.50000   0.00000  Uiso   1.00
C495   C     0.97712   0.41160   0.51480   0.00000  Uiso   1.00
C496   C     0.52288   0.58840   0.48520   0.00000  Uiso   1.00
C497   C     0.97712   0.58840   0.48520   0.00000  Uiso   1.00
C498   C     0.75000   0.59331   0.50001   0.00000  Uiso   1.00
C499   C     0.52288   0.41160   0.51480   0.00000  Uiso   1.00
C500   C     0.75000   0.35514   0.49999   0.00000  Uiso   1.00
C501   C     0.75000   0.64486   0.50002   0.00000  Uiso   1.00
C502   C     0.88137   0.59321   0.48708   0.00000  Uiso   1.00
C503   C     0.61863   0.40679   0.51292   0.00000  Uiso   1.00
C504   C     0.88137   0.40679   0.51292   0.00000  Uiso   1.00
C505   C     0.61863   0.59321   0.48708   0.00000  Uiso   1.00
C506   C     0.66444   0.50000   0.50000   0.00000  Uiso   1.00
C507   C     0.83556   0.50000   0.50000   0.00000  Uiso   1.00
C508   C     0.90641   0.54492   0.49323   0.00000  Uiso   1.00
C509   C     0.59359   0.45508   0.50677   0.00000  Uiso   1.00
C510   C     0.90641   0.45508   0.50677   0.00000  Uiso   1.00
C511   C     0.59359   0.54492   0.49323   0.00000  Uiso   1.00
C512   C     0.88360   0.50000   0.50000   0.00000  Uiso   1.00
Cu513  Cu    0.75000   0.50000   0.55636   0.00000  Uiso   1.00
Cu514  Cu    0.75000   0.50000   0.44364   0.00000  Uiso   1.00
H515   H     0.96104   0.37656   0.52098   0.00000  Uiso   1.00
H516   H     0.60887   0.38134   0.47801   0.00000  Uiso   1.00
H517   H     0.84498   0.41033   0.51059   0.00000  Uiso   1.00
H518   H     0.89113   0.38134   0.47801   0.00000  Uiso   1.00
H519   H     0.88911   0.38986   0.55492   0.00000  Uiso   1.00
H520   H     0.65502   0.58967   0.48941   0.00000  Uiso   1.00
H521   H     0.61089   0.61014   0.44508   0.00000  Uiso   1.00
H522   H     0.60887   0.61866   0.52199   0.00000  Uiso   1.00
H523   H     0.53896   0.62344   0.47902   0.00000  Uiso   1.00
H524   H     0.96104   0.62344   0.47902   0.00000  Uiso   1.00
H525   H     0.53896   0.37656   0.52098   0.00000  Uiso   1.00
H526   H     0.84498   0.58967   0.48941   0.00000  Uiso   1.00
H527   H     0.89113   0.61866   0.52199   0.00000  Uiso   1.00
H528   H     0.88911   0.61014   0.44508   0.00000  Uiso   1.00
H529   H     0.65502   0.41033   0.51059   0.00000  Uiso   1.00
H530   H     0.61089   0.38986   0.55492   0.00000  Uiso   1.00
N531   N     0.75000   0.50000   0.35894   0.00000  Uiso   1.00
N532   N     0.75000   0.50000   0.64106   0.00000  Uiso   1.00
O533   O     0.75000   0.42946   0.54759   0.00000  Uiso   1.00
O534   O     0.75000   0.57054   0.45241   0.00000  Uiso   1.00
O535   O     0.75000   0.57054   0.54759   0.00000  Uiso   1.00
O536   O     0.75000   0.42946   0.45241   0.00000  Uiso   1.00
O537   O     0.68513   0.50000   0.54760   0.00000  Uiso   1.00
O538   O     0.81487   0.50000   0.45240   0.00000  Uiso   1.00
O539   O     0.81487   0.50000   0.54760   0.00000  Uiso   1.00
O540   O     0.68513   0.50000   0.45240   0.00000  Uiso   1.00
C541   C     0.25000   0.74003   0.49999   0.00000  Uiso   1.00
C542   C     0.11640   0.83333   0.50000   0.00000  Uiso   1.00
C543   C     0.45312   0.78864   0.50726   0.00000  Uiso   1.00
C544   C     0.04688   0.87802   0.49274   0.00000  Uiso   1.00
C545   C     0.45312   0.87802   0.49274   0.00000  Uiso   1.00
C546   C     0.04688   0.78864   0.50726   0.00000  Uiso   1.00
C547   C     0.47649   0.83333   0.50000   0.00000  Uiso   1.00
C548   C     0.02351   0.83333   0.50000   0.00000  Uiso   1.00
C549   C     0.47712   0.74493   0.51480   0.00000  Uiso   1.00
C550   C     0.02288   0.92174   0.48520   0.00000  Uiso   1.00
C551   C     0.47712   0.92174   0.48520   0.00000  Uiso   1.00
C552   C     0.25000   0.92664   0.50001   0.00000  Uiso   1.00
C553   C     0.02288   0.74493   0.51480   0.00000  Uiso   1.00
C554   C     0.25000   0.68847   0.49999   0.00000  Uiso   1.00
C555   C     0.25000   0.97820   0.50002   0.00000  Uiso   1.00
C556   C     0.38137   0.92654   0.48708   0.00000  Uiso   1.00
C557   C     0.11863   0.74012   0.51292   0.00000  Uiso   1.00
C558   C     0.38137   0.74012   0.51292   0.00000  Uiso   1.00
C559   C     0.11863   0.92654   0.48708   0.00000  Uiso   1.00
C560   C     0.16444   0.83333   0.50000   0.00000  Uiso   1.00
C561   C     0.33556   0.83333   0.50000   0.00000  Uiso   1.00
C562   C     0.40641   0.87826   0.49323   0.00000  Uiso   1.00
C563   C     0.09359   0.78841   0.50677   0.00000  Uiso   1.00
C564   C     0.40641   0.78841   0.50677   0.00000  Uiso   1.00
C565   C     0.09359   0.87825   0.49323   0.00000  Uiso   1.00
C566   C     0.38360   0.83333   0.50000   0.00000  Uiso   1.00
Cu567  Cu    0.25000   0.83333   0.55636   0.00000  Uiso   1.00
Cu568  Cu    0.25000   0.83333   0.44364   0.00000  Uiso   1.00
H569   H     0.46104   0.70989   0.52098   0.00000  Uiso   1.00
H570   H     0.10887   0.71468   0.47801   0.00000  Uiso   1.00
H571   H     0.34498   0.74366   0.51059   0.00000  Uiso   1.00
H572   H     0.39113   0.71468   0.47801   0.00000  Uiso   1.00
H573   H     0.38911   0.72319   0.55492   0.00000  Uiso   1.00
H574   H     0.15502   0.92301   0.48941   0.00000  Uiso   1.00
H575   H     0.11089   0.94348   0.44508   0.00000  Uiso   1.00
H576   H     0.10887   0.95199   0.52199   0.00000  Uiso   1.00
H577   H     0.03896   0.95678   0.47902   0.00000  Uiso   1.00
H578   H     0.46104   0.95678   0.47902   0.00000  Uiso   1.00
H579   H     0.03896   0.70989   0.52098   0.00000  Uiso   1.00
H580   H     0.34498   0.92301   0.48941   0.00000  Uiso   1.00
H581   H     0.39113   0.95199   0.52199   0.00000  Uiso   1.00
H582   H     0.38911   0.94348   0.44508   0.00000  Uiso   1.00
H583   H     0.15502   0.74366   0.51059   0.00000  Uiso   1.00
H584   H     0.11089   0.72319   0.55492   0.00000  Uiso   1.00
N585   N     0.25000   0.83333   0.35894   0.00000  Uiso   1.00
N586   N     0.25000   0.83333   0.64106   0.00000  Uiso   1.00
O587   O     0.25000   0.76280   0.54759   0.00000  Uiso   1.00
O588   O     0.25000   0.90387   0.45241   0.00000  Uiso   1.00
O589   O     0.25000   0.90387   0.54759   0.00000  Uiso   1.00
O590   O     0.25000   0.76280   0.45241   0.00000  Uiso   1.00
O591   O     0.18513   0.83333   0.54760   0.00000  Uiso   1.00
O592   O     0.31487   0.83333   0.45240   0.00000  Uiso   1.00
O593   O     0.31487   0.83333   0.54760   0.00000  Uiso   1.00
O594   O     0.18513   0.83333   0.45240   0.00000  Uiso   1.00
C595   C     0.75000   0.74003   0.49999   0.00000  Uiso   1.00
C596   C     0.61640   0.83333   0.50000   0.00000  Uiso   1.00
C597   C     0.95312   0.78864   0.50726   0.00000  Uiso   1.00
C598   C     0.54688   0.87802   0.49274   0.00000  Uiso   1.00
C599   C     0.95312   0.87802   0.49274   0.00000  Uiso   1.00
C600   C     0.54688   0.78864   0.50726   0.00000  Uiso   1.00
C601   C     0.97649   0.83333   0.50000   0.00000  Uiso   1.00
C602   C     0.52351   0.83333   0.50000   0.00000  Uiso   1.00
C603   C     0.97712   0.74493   0.51480   0.00000  Uiso   1.00
C604   C     0.52288   0.92174   0.48520   0.00000  Uiso   1.00
C605   C     0.97712   0.92174   0.48520   0.00000  Uiso   1.00
C606   C     0.75000   0.92664   0.50001   0.00000  Uiso   1.00
C607   C     0.52288   0.74493   0.51480   0.00000  Uiso   1.00
C608   C     0.75000   0.68847   0.49999   0.00000  Uiso   1.00
C609   C     0.75000   0.97820   0.50002   0.00000  Uiso   1.00
C610   C     0.88137   0.92654   0.48708   0.00000  Uiso   1.00
C611   C     0.61863   0.74012   0.51292   0.00000  Uiso   1.00
C612   C     0.88137   0.74012   0.51292   0.00000  Uiso   1.00
C613   C     0.61863   0.92654   0.48708   0.00000  Uiso   1.00
C614   C     0.66444   0.83333   0.50000   0.00000  Uiso   1.00
C615   C     0.83556   0.83333   0.50000   0.00000  Uiso   1.00
C616   C     0.90641   0.87826   0.49323   0.00000  Uiso   1.00
C617   C     0.59359   0.78841   0.50677   0.00000  Uiso   1.00
C618   C     0.90641   0.78841   0.50677   0.00000  Uiso   1.00
C619   C     0.59359   0.87825   0.49323   0.00000  Uiso   1.00
C620   C     0.88360   0.83333   0.50000   0.00000  Uiso   1.00
Cu621  Cu    0.75000   0.83333   0.55636   0.00000  Uiso   1.00
Cu622  Cu    0.75000   0.83333   0.44364   0.00000  Uiso   1.00
H623   H     0.96104   0.70989   0.52098   0.00000  Uiso   1.00
H624   H     0.60887   0.71468   0.47801   0.00000  Uiso   1.00
H625   H     0.84498   0.74366   0.51059   0.00000  Uiso   1.00
H626   H     0.89113   0.71468   0.47801   0.00000  Uiso   1.00
H627   H     0.88911   0.72319   0.55492   0.00000  Uiso   1.00
H628   H     0.65502   0.92301   0.48941   0.00000  Uiso   1.00
H629   H     0.61089   0.94348   0.44508   0.00000  Uiso   1.00
H630   H     0.60887   0.95199   0.52199   0.00000  Uiso   1.00
H631   H     0.53896   0.95678   0.47902   0.00000  Uiso   1.00
H632   H     0.96104   0.95678   0.47902   0.00000  Uiso   1.00
H633   H     0.53896   0.70989   0.52098   0.00000  Uiso   1.00
H634   H     0.84498   0.92301   0.48941   0.00000  Uiso   1.00
H635   H     0.89113   0.95199   0.52199   0.00000  Uiso   1.00
H636   H     0.88911   0.94348   0.44508   0.00000  Uiso   1.00
H637   H     0.65502   0.74366   0.51059   0.00000  Uiso   1.00
H638   H     0.61089   0.72319   0.55492   0.00000  Uiso   1.00
N639   N     0.75000   0.83333   0.35894   0.00000  Uiso   1.00
N640   N     0.75000   0.83333   0.64106   0.00000  Uiso   1.00
O641   O     0.75000   0.76280   0.54759   0.00000  Uiso   1.00
O642   O     0.75000   0.90387   0.45241   0.00000  Uiso   1.00
O643   O     0.75000   0.90387   0.54759   0.00000  Uiso   1.00
O644   O     0.75000   0.76280   0.45241   0.00000  Uiso   1.00
O645   O     0.68513   0.83333   0.54760   0.00000  Uiso   1.00
O646   O     0.81487   0.83333   0.45240   0.00000  Uiso   1.00
O647   O     0.81487   0.83333   0.54760   0.00000  Uiso   1.00
O648   O     0.68513   0.83333   0.45240   0.00000  Uiso   1.00
C649   C     0.25000   0.07336   0.83332   0.00000  Uiso   1.00
C650   C     0.11640   0.16667   0.83333   0.00000  Uiso   1.00
C651   C     0.45312   0.12198   0.84059   0.00000  Uiso   1.00
C652   C     0.04688   0.21136   0.82607   0.00000  Uiso   1.00
C653   C     0.45312   0.21136   0.82607   0.00000  Uiso   1.00
C654   C     0.04688   0.12198   0.84059   0.00000  Uiso   1.00
C655   C     0.47649   0.16667   0.83333   0.00000  Uiso   1.00
C656   C     0.02351   0.16667   0.83333   0.00000  Uiso   1.00
C657   C     0.47712   0.07826   0.84813   0.00000  Uiso   1.00
C658   C     0.02288   0.25507   0.81854   0.00000  Uiso   1.00
C659   C     0.47712   0.25507   0.81854   0.00000  Uiso   1.00
C660   C     0.25000   0.25997   0.83335   0.00000  Uiso   1.00
C661   C     0.02288   0.07826   0.84813   0.00000  Uiso   1.00
C662   C     0.25000   0.02180   0.83332   0.00000  Uiso   1.00
C663   C     0.25000   0.31153   0.83335   0.00000  Uiso   1.00
C664   C     0.38137   0.25988   0.82041   0.00000  Uiso   1.00
C665   C     0.11863   0.07346   0.84625   0.00000  Uiso   1.00
C666   C     0.38137   0.07346   0.84625   0.00000  Uiso   1.00
C667   C     0.11863   0.25988   0.82041   0.00000  Uiso   1.00
C668   C     0.16444   0.16667   0.83333   0.00000  Uiso   1.00
C669   C     0.33556   0.16667   0.83333   0.00000  Uiso   1.00
C670   C     0.40641   0.21159   0.82656   0.00000  Uiso   1.00
C671   C     0.09359   0.12174   0.84010   0.00000  Uiso   1.00
C672   C     0.40641   0.12175   0.84010   0.00000  Uiso   1.00
C673   C     0.09359   0.21159   0.82656   0.00000  Uiso   1.00
C674   C     0.38360   0.16667   0.83333   0.00000  Uiso   1.00
Cu675  Cu    0.25000   0.16667   0.88969   0.00000  Uiso   1.00
Cu676  Cu    0.25000   0.16667   0.77697   0.00000  Uiso   1.00
H677   H     0.46104   0.04322   0.85432   0.00000  Uiso   1.00
H678   H     0.10887   0.04801   0.81134   0.00000  Uiso   1.00
H679   H     0.34498   0.07699   0.84392   0.00000  Uiso   1.00
H680   H     0.39113   0.04801   0.81134   0.00000  Uiso   1.00
H681   H     0.38911   0.05652   0.88826   0.00000  Uiso   1.00
H682   H     0.15502   0.25634   0.82275   0.00000  Uiso   1.00
H683   H     0.11089   0.27681   0.77841   0.00000  Uiso   1.00
H684   H     0.10887   0.28532   0.85533   0.00000  Uiso   1.00
H685   H     0.03896   0.29011   0.81235   0.00000  Uiso   1.00
H686   H     0.46104   0.29011   0.81235   0.00000  Uiso   1.00
H687   H     0.03896   0.04322   0.85432   0.00000  Uiso   1.00
H688   H     0.34498   0.25634   0.82275   0.00000  Uiso   1.00
H689   H     0.39113   0.28532   0.85533   0.00000  Uiso   1.00
H690   H     0.38911   0.27681   0.77841   0.00000  Uiso   1.00
H691   H     0.15502   0.07699   0.84392   0.00000  Uiso   1.00
H692   H     0.11089   0.05652   0.88826   0.00000  Uiso   1.00
N693   N     0.25000   0.16667   0.69227   0.00000  Uiso   1.00
N694   N     0.25000   0.16667   0.97439   0.00000  Uiso   1.00
O695   O     0.25000   0.09613   0.88092   0.00000  Uiso   1.00
O696   O     0.25000   0.23720   0.78575   0.00000  Uiso   1.00
O697   O     0.25000   0.23720   0.88092   0.00000  Uiso   1.00
O698   O     0.25000   0.09613   0.78575   0.00000  Uiso   1.00
O699   O     0.18513   0.16667   0.88093   0.00000  Uiso   1.00
O700   O     0.31487   0.16667   0.78573   0.00000  Uiso   1.00
O701   O     0.31487   0.16667   0.88093   0.00000  Uiso   1.00
O702   O     0.18513   0.16667   0.78573   0.00000  Uiso   1.00
C703   C     0.75000   0.07336   0.83332   0.00000  Uiso   1.00
C704   C     0.61640   0.16667   0.83333   0.00000  Uiso   1.00
C705   C     0.95312   0.12198   0.84059   0.00000  Uiso   1.00
C706   C     0.54688   0.21136   0.82607   0.00000  Uiso   1.00
C707   C     0.95312   0.21136   0.82607   0.00000  Uiso   1.00
C708   C     0.54688   0.12198   0.84059   0.00000  Uiso   1.00
C709   C     0.97649   0.16667   0.83333   0.00000  Uiso   1.00
C710   C     0.52351   0.16667   0.83333   0.00000  Uiso   1.00
C711   C     0.97712   0.07826   0.84813   0.00000  Uiso   1.00
C712   C     0.52288   0.25507   0.81854   0.00000  Uiso   1.00
C713   C     0.97712   0.25507   0.81854   0.00000  Uiso   1.00
C714   C     0.75000   0.25997   0.83335   0.00000  Uiso   1.00
C715   C     0.52288   0.07826   0.84813   0.00000  Uiso   1.00
C716   C     0.75000   0.02180   0.83332   0.00000  Uiso   1.00
C717   C     0.75000   0.31153   0.83335   0.00000  Uiso   1.00
C718   C     0.88137   0.25988   0.82041   0.00000  Uiso   1.00
C719   C     0.61863   0.07346   0.84625   0.00000  Uiso   1.00
C720   C     0.88137   0.07346   0.84625   0.00000  Uiso   1.00
C721   C     0.61863   0.25988   0.82041   0.00000  Uiso   1.00
C722   C     0.66444   0.16667   0.83333   0.00000  Uiso   1.00
C723   C     0.83556   0.16667   0.83333   0.00000  Uiso   1.00
C724   C     0.90641   0.21159   0.82656   0.00000  Uiso   1.00
C725   C     0.59359   0.12174   0.84010   0.00000  Uiso   1.00
C726   C     0.90641   0.12175   0.84010   0.00000  Uiso   1.00
C727   C     0.59359   0.21159   0.82656   0.00000  Uiso   1.00
C728   C     0.88360   0.16667   0.83333   0.00000  Uiso   1.00
Cu729  Cu    0.75000   0.16667   0.88969   0.00000  Uiso   1.00
Cu730  Cu    0.75000   0.16667   0.77697   0.00000  Uiso   1.00
H731   H     0.96104   0.04322   0.85432   0.00000  Uiso   1.00
H732   H     0.60887   0.04801   0.81134   0.00000  Uiso   1.00
H733   H     0.84498   0.07699   0.84392   0.00000  Uiso   1.00
H734   H     0.89113   0.04801   0.81134   0.00000  Uiso   1.00
H735   H     0.88911   0.05652   0.88826   0.00000  Uiso   1.00
H736   H     0.65502   0.25634   0.82275   0.00000  Uiso   1.00
H737   H     0.61089   0.27681   0.77841   0.00000  Uiso   1.00
H738   H     0.60887   0.28532   0.85533   0.00000  Uiso   1.00
H739   H     0.53896   0.29011   0.81235   0.00000  Uiso   1.00
H740   H     0.96104   0.29011   0.81235   0.00000  Uiso   1.00
H741   H     0.53896   0.04322   0.85432   0.00000  Uiso   1.00
H742   H     0.84498   0.25634   0.82275   0.00000  Uiso   1.00
H743   H     0.89113   0.28532   0.85533   0.00000  Uiso   1.00
H744   H     0.88911   0.27681   0.77841   0.00000  Uiso   1.00
H745   H     0.65502   0.07699   0.84392   0.00000  Uiso   1.00
H746   H     0.61089   0.05652   0.88826   0.00000  Uiso   1.00
N747   N     0.75000   0.16667   0.69227   0.00000  Uiso   1.00
N748   N     0.75000   0.16667   0.97439   0.00000  Uiso   1.00
O749   O     0.75000   0.09613   0.88092   0.00000  Uiso   1.00
O750   O     0.75000   0.23720   0.78575   0.00000  Uiso   1.00
O751   O     0.75000   0.23720   0.88092   0.00000  Uiso   1.00
O752   O     0.75000   0.09613   0.78575   0.00000  Uiso   1.00
O753   O     0.68513   0.16667   0.88093   0.00000  Uiso   1.00
O754   O     0.81487   0.16667   0.78573   0.00000  Uiso   1.00
O755   O     0.81487   0.16667   0.88093   0.00000  Uiso   1.00
O756   O     0.68513   0.16667   0.78573   0.00000  Uiso   1.00
C757   C     0.25000   0.40669   0.83332   0.00000  Uiso   1.00
C758   C     0.11640   0.50000   0.83333   0.00000  Uiso   1.00
C759   C     0.45312   0.45531   0.84059   0.00000  Uiso   1.00
C760   C     0.04688   0.54469   0.82607   0.00000  Uiso   1.00
C761   C     0.45312   0.54469   0.82607   0.00000  Uiso   1.00
C762   C     0.04688   0.45531   0.84059   0.00000  Uiso   1.00
C763   C     0.47649   0.50000   0.83333   0.00000  Uiso   1.00
C764   C     0.02351   0.50000   0.83333   0.00000  Uiso   1.00
C765   C     0.47712   0.41160   0.84813   0.00000  Uiso   1.00
C766   C     0.02288   0.58840   0.81854   0.00000  Uiso   1.00
C767   C     0.47712   0.58840   0.81854   0.00000  Uiso   1.00
C768   C     0.25000   0.59331   0.83335   0.00000  Uiso   1.00
C769   C     0.02288   0.41160   0.84813   0.00000  Uiso   1.00
C770   C     0.25000   0.35514   0.83332   0.00000  Uiso   1.00
C771   C     0.25000   0.64486   0.83335   0.00000  Uiso   1.00
C772   C     0.38137   0.59321   0.82041   0.00000  Uiso   1.00
C773   C     0.11863   0.40679   0.84625   0.00000  Uiso   1.00
C774   C     0.38137   0.40679   0.84625   0.00000  Uiso   1.00
C775   C     0.11863   0.59321   0.82041   0.00000  Uiso   1.00
C776   C     0.16444   0.50000   0.83333   0.00000  Uiso   1.00
C777   C     0.33556   0.50000   0.83333   0.00000  Uiso   1.00
C778   C     0.40641   0.54492   0.82656   0.00000  Uiso   1.00
C779   C     0.09359   0.45508   0.84010   0.00000  Uiso   1.00
C780   C     0.40641   0.45508   0.84010   0.00000  Uiso   1.00
C781   C     0.09359   0.54492   0.82656   0.00000  Uiso   1.00
C782   C     0.38360   0.50000   0.83333   0.00000  Uiso   1.00
Cu783  Cu    0.25000   0.50000   0.88969   0.00000  Uiso   1.00
Cu784  Cu    0.25000   0.50000   0.77697   0.00000  Uiso   1.00
H785   H     0.46104   0.37656   0.85432   0.00000  Uiso   1.00
H786   H     0.10887   0.38134   0.81134   0.00000  Uiso   1.00
H787   H     0.34498   0.41033   0.84392   0.00000  Uiso   1.00
H788   H     0.39113   0.38134   0.81134   0.00000  Uiso   1.00
H789   H     0.38911   0.38986   0.88826   0.00000  Uiso   1.00
H790   H     0.15502   0.58967   0.82275   0.00000  Uiso   1.00
H791   H     0.11089   0.61014   0.77841   0.00000  Uiso   1.00
H792   H     0.10887   0.61866   0.85533   0.00000  Uiso   1.00
H793   H     0.03896   0.62344   0.81235   0.00000  Uiso   1.00
H794   H     0.46104   0.62344   0.81235   0.00000  Uiso   1.00
H795   H     0.03896   0.37656   0.85432   0.00000  Uiso   1.00
H796   H     0.34498   0.58967   0.82275   0.00000  Uiso   1.00
H797   H     0.39113   0.61866   0.85533   0.00000  Uiso   1.00
H798   H     0.38911   0.61014   0.77841   0.00000  Uiso   1.00
H799   H     0.15502   0.41033   0.84392   0.00000  Uiso   1.00
H800   H     0.11089   0.38986   0.88826   0.00000  Uiso   1.00
N801   N     0.25000   0.50000   0.69227   0.00000  Uiso   1.00
N802   N     0.25000   0.50000   0.97439   0.00000  Uiso   1.00
O803   O     0.25000   0.42946   0.88092   0.00000  Uiso   1.00
O804   O     0.25000   0.57054   0.78575   0.00000  Uiso   1.00
O805   O     0.25000   0.57054   0.88092   0.00000  Uiso   1.00
O806   O     0.25000   0.42946   0.78575   0.00000  Uiso   1.00
O807   O     0.18513   0.50000   0.88093   0.00000  Uiso   1.00
O808   O     0.31487   0.50000   0.78573   0.00000  Uiso   1.00
O809   O     0.31487   0.50000   0.88093   0.00000  Uiso   1.00
O810   O     0.18513   0.50000   0.78573   0.00000  Uiso   1.00
C811   C     0.75000   0.40669   0.83332   0.00000  Uiso   1.00
C812   C     0.61640   0.50000   0.83333   0.00000  Uiso   1.00
C813   C     0.95312   0.45531   0.84059   0.00000  Uiso   1.00
C814   C     0.54688   0.54469   0.82607   0.00000  Uiso   1.00
C815   C     0.95312   0.54469   0.82607   0.00000  Uiso   1.00
C816   C     0.54688   0.45531   0.84059   0.00000  Uiso   1.00
C817   C     0.97649   0.50000   0.83333   0.00000  Uiso   1.00
C818   C     0.52351   0.50000   0.83333   0.00000  Uiso   1.00
C819   C     0.97712   0.41160   0.84813   0.00000  Uiso   1.00
C820   C     0.52288   0.58840   0.81854   0.00000  Uiso   1.00
C821   C     0.97712   0.58840   0.81854   0.00000  Uiso   1.00
C822   C     0.75000   0.59331   0.83335   0.00000  Uiso   1.00
C823   C     0.52288   0.41160   0.84813   0.00000  Uiso   1.00
C824   C     0.75000   0.35514   0.83332   0.00000  Uiso   1.00
C825   C     0.75000   0.64486   0.83335   0.00000  Uiso   1.00
C826   C     0.88137   0.59321   0.82041   0.00000  Uiso   1.00
C827   C     0.61863   0.40679   0.84625   0.00000  Uiso   1.00
C828   C     0.88137   0.40679   0.84625   0.00000  Uiso   1.00
C829   C     0.61863   0.59321   0.82041   0.00000  Uiso   1.00
C830   C     0.66444   0.50000   0.83333   0.00000  Uiso   1.00
C831   C     0.83556   0.50000   0.83333   0.00000  Uiso   1.00
C832   C     0.90641   0.54492   0.82656   0.00000  Uiso   1.00
C833   C     0.59359   0.45508   0.84010   0.00000  Uiso   1.00
C834   C     0.90641   0.45508   0.84010   0.00000  Uiso   1.00
C835   C     0.59359   0.54492   0.82656   0.00000  Uiso   1.00
C836   C     0.88360   0.50000   0.83333   0.00000  Uiso   1.00
Cu837  Cu    0.75000   0.50000   0.88969   0.00000  Uiso   1.00
Cu838  Cu    0.75000   0.50000   0.77697   0.00000  Uiso   1.00
H839   H     0.96104   0.37656   0.85432   0.00000  Uiso   1.00
H840   H     0.60887   0.38134   0.81134   0.00000  Uiso   1.00
H841   H     0.84498   0.41033   0.84392   0.00000  Uiso   1.00
H842   H     0.89113   0.38134   0.81134   0.00000  Uiso   1.00
H843   H     0.88911   0.38986   0.88826   0.00000  Uiso   1.00
H844   H     0.65502   0.58967   0.82275   0.00000  Uiso   1.00
H845   H     0.61089   0.61014   0.77841   0.00000  Uiso   1.00
H846   H     0.60887   0.61866   0.85533   0.00000  Uiso   1.00
H847   H     0.53896   0.62344   0.81235   0.00000  Uiso   1.00
H848   H     0.96104   0.62344   0.81235   0.00000  Uiso   1.00
H849   H     0.53896   0.37656   0.85432   0.00000  Uiso   1.00
H850   H     0.84498   0.58967   0.82275   0.00000  Uiso   1.00
H851   H     0.89113   0.61866   0.85533   0.00000  Uiso   1.00
H852   H     0.88911   0.61014   0.77841   0.00000  Uiso   1.00
H853   H     0.65502   0.41033   0.84392   0.00000  Uiso   1.00
H854   H     0.61089   0.38986   0.88826   0.00000  Uiso   1.00
N855   N     0.75000   0.50000   0.69227   0.00000  Uiso   1.00
N856   N     0.75000   0.50000   0.97439   0.00000  Uiso   1.00
O857   O     0.75000   0.42946   0.88092   0.00000  Uiso   1.00
O858   O     0.75000   0.57054   0.78575   0.00000  Uiso   1.00
O859   O     0.75000   0.57054   0.88092   0.00000  Uiso   1.00
O860   O     0.75000   0.42946   0.78575   0.00000  Uiso   1.00
O861   O     0.68513   0.50000   0.88093   0.00000  Uiso   1.00
O862   O     0.81487   0.50000   0.78573   0.00000  Uiso   1.00
O863   O     0.81487   0.50000   0.88093   0.00000  Uiso   1.00
O864   O     0.68513   0.50000   0.78573   0.00000  Uiso   1.00
C865   C     0.25000   0.74003   0.83332   0.00000  Uiso   1.00
C866   C     0.11640   0.83333   0.83333   0.00000  Uiso   1.00
C867   C     0.45312   0.78864   0.84059   0.00000  Uiso   1.00
C868   C     0.04688   0.87802   0.82607   0.00000  Uiso   1.00
C869   C     0.45312   0.87802   0.82607   0.00000  Uiso   1.00
C870   C     0.04688   0.78864   0.84059   0.00000  Uiso   1.00
C871   C     0.47649   0.83333   0.83333   0.00000  Uiso   1.00
C872   C     0.02351   0.83333   0.83333   0.00000  Uiso   1.00
C873   C     0.47712   0.74493   0.84813   0.00000  Uiso   1.00
C874   C     0.02288   0.92174   0.81854   0.00000  Uiso   1.00
C875   C     0.47712   0.92174   0.81854   0.00000  Uiso   1.00
C876   C     0.25000   0.92664   0.83335   0.00000  Uiso   1.00
C877   C     0.02288   0.74493   0.84813   0.00000  Uiso   1.00
C878   C     0.25000   0.68847   0.83332   0.00000  Uiso   1.00
C879   C     0.25000   0.97820   0.83335   0.00000  Uiso   1.00
C880   C     0.38137   0.92654   0.82041   0.00000  Uiso   1.00
C881   C     0.11863   0.74012   0.84625   0.00000  Uiso   1.00
C882   C     0.38137   0.74012   0.84625   0.00000  Uiso   1.00
C883   C     0.11863   0.92654   0.82041   0.00000  Uiso   1.00
C884   C     0.16444   0.83333   0.83333   0.00000  Uiso   1.00
C885   C     0.33556   0.83333   0.83333   0.00000  Uiso   1.00
C886   C     0.40641   0.87826   0.82656   0.00000  Uiso   1.00
C887   C     0.09359   0.78841   0.84010   0.00000  Uiso   1.00
C888   C     0.40641   0.78841   0.84010   0.00000  Uiso   1.00
C889   C     0.09359   0.87825   0.82656   0.00000  Uiso   1.00
C890   C     0.38360   0.83333   0.83333   0.00000  Uiso   1.00
Cu891  Cu    0.25000   0.83333   0.88969   0.00000  Uiso   1.00
Cu892  Cu    0.25000   0.83333   0.77697   0.00000  Uiso   1.00
H893   H     0.46104   0.70989   0.85432   0.00000  Uiso   1.00
H894   H     0.10887   0.71468   0.81134   0.00000  Uiso   1.00
H895   H     0.34498   0.74366   0.84392   0.00000  Uiso   1.00
H896   H     0.39113   0.71468   0.81134   0.00000  Uiso   1.00
H897   H     0.38911   0.72319   0.88826   0.00000  Uiso   1.00
H898   H     0.15502   0.92301   0.82275   0.00000  Uiso   1.00
H899   H     0.11089   0.94348   0.77841   0.00000  Uiso   1.00
H900   H     0.10887   0.95199   0.85533   0.00000  Uiso   1.00
H901   H     0.03896   0.95678   0.81235   0.00000  Uiso   1.00
H902   H     0.46104   0.95678   0.81235   0.00000  Uiso   1.00
H903   H     0.03896   0.70989   0.85432   0.00000  Uiso   1.00
H904   H     0.34498   0.92301   0.82275   0.00000  Uiso   1.00
H905   H     0.39113   0.95199   0.85533   0.00000  Uiso   1.00
H906   H     0.38911   0.94348   0.77841   0.00000  Uiso   1.00
H907   H     0.15502   0.74366   0.84392   0.00000  Uiso   1.00
H908   H     0.11089   0.72319   0.88826   0.00000  Uiso   1.00
N909   N     0.25000   0.83333   0.69227   0.00000  Uiso   1.00
N910   N     0.25000   0.83333   0.97439   0.00000  Uiso   1.00
O911   O     0.25000   0.76280   0.88092   0.00000  Uiso   1.00
O912   O     0.25000   0.90387   0.78575   0.00000  Uiso   1.00
O913   O     0.25000   0.90387   0.88092   0.00000  Uiso   1.00
O914   O     0.25000   0.76280   0.78575   0.00000  Uiso   1.00
O915   O     0.18513   0.83333   0.88093   0.00000  Uiso   1.00
O916   O     0.31487   0.83333   0.78573   0.00000  Uiso   1.00
O917   O     0.31487   0.83333   0.88093   0.00000  Uiso   1.00
O918   O     0.18513   0.83333   0.78573   0.00000  Uiso   1.00
C919   C     0.75000   0.74003   0.83332   0.00000  Uiso   1.00
C920   C     0.61640   0.83333   0.83333   0.00000  Uiso   1.00
C921   C     0.95312   0.78864   0.84059   0.00000  Uiso   1.00
C922   C     0.54688   0.87802   0.82607   0.00000  Uiso   1.00
C923   C     0.95312   0.87802   0.82607   0.00000  Uiso   1.00
C924   C     0.54688   0.78864   0.84059   0.00000  Uiso   1.00
C925   C     0.97649   0.83333   0.83333   0.00000  Uiso   1.00
C926   C     0.52351   0.83333   0.83333   0.00000  Uiso   1.00
C927   C     0.97712   0.74493   0.84813   0.00000  Uiso   1.00
C928   C     0.52288   0.92174   0.81854   0.00000  Uiso   1.00
C929   C     0.97712   0.92174   0.81854   0.00000  Uiso   1.00
C930   C     0.75000   0.92664   0.83335   0.00000  Uiso   1.00
C931   C     0.52288   0.74493   0.84813   0.00000  Uiso   1.00
C932   C     0.75000   0.68847   0.83332   0.00000  Uiso   1.00
C933   C     0.75000   0.97820   0.83335   0.00000  Uiso   1.00
C934   C     0.88137   0.92654   0.82041   0.00000  Uiso   1.00
C935   C     0.61863   0.74012   0.84625   0.00000  Uiso   1.00
C936   C     0.88137   0.74012   0.84625   0.00000  Uiso   1.00
C937   C     0.61863   0.92654   0.82041   0.00000  Uiso   1.00
C938   C     0.66444   0.83333   0.83333   0.00000  Uiso   1.00
C939   C     0.83556   0.83333   0.83333   0.00000  Uiso   1.00
C940   C     0.90641   0.87826   0.82656   0.00000  Uiso   1.00
C941   C     0.59359   0.78841   0.84010   0.00000  Uiso   1.00
C942   C     0.90641   0.78841   0.84010   0.00000  Uiso   1.00
C943   C     0.59359   0.87825   0.82656   0.00000  Uiso   1.00
C944   C     0.88360   0.83333   0.83333   0.00000  Uiso   1.00
Cu945  Cu    0.75000   0.83333   0.88969   0.00000  Uiso   1.00
Cu946  Cu    0.75000   0.83333   0.77697   0.00000  Uiso   1.00
H947   H     0.96104   0.70989   0.85432   0.00000  Uiso   1.00
H948   H     0.60887   0.71468   0.81134   0.00000  Uiso   1.00
H949   H     0.84498   0.74366   0.84392   0.00000  Uiso   1.00
H950   H     0.89113   0.71468   0.81134   0.00000  Uiso   1.00
H951   H     0.88911   0.72319   0.88826   0.00000  Uiso   1.00
H952   H     0.65502   0.92301   0.82275   0.00000  Uiso   1.00
H953   H     0.61089   0.94348   0.77841   0.00000  Uiso   1.00
H954   H     0.60887   0.95199   0.85533   0.00000  Uiso   1.00
H955   H     0.53896   0.95678   0.81235   0.00000  Uiso   1.00
H956   H     0.96104   0.95678   0.81235   0.00000  Uiso   1.00
H957   H     0.53896   0.70989   0.85432   0.00000  Uiso   1.00
H958   H     0.84498   0.92301   0.82275   0.00000  Uiso   1.00
H959   H     0.89113   0.95199   0.85533   0.00000  Uiso   1.00
H960   H     0.88911   0.94348   0.77841   0.00000  Uiso   1.00
H961   H     0.65502   0.74366   0.84392   0.00000  Uiso   1.00
H962   H     0.61089   0.72319   0.88826   0.00000  Uiso   1.00
N963   N     0.75000   0.83333   0.69227   0.00000  Uiso   1.00
N964   N     0.75000   0.83333   0.97439   0.00000  Uiso   1.00
O965   O     0.75000   0.76280   0.88092   0.00000  Uiso   1.00
O966   O     0.75000   0.90387   0.78575   0.00000  Uiso   1.00
O967   O     0.75000   0.90387   0.88092   0.00000  Uiso   1.00
O968   O     0.75000   0.76280   0.78575   0.00000  Uiso   1.00
O969   O     0.68513   0.83333   0.88093   0.00000  Uiso   1.00
O970   O     0.81487   0.83333   0.78573   0.00000  Uiso   1.00
O971   O     0.81487   0.83333   0.88093   0.00000  Uiso   1.00
O972   O     0.68513   0.83333   0.78573   0.00000  Uiso   1.00
loop_
_geom_bond_atom_site_label_1
_geom_bond_atom_site_label_2
_geom_bond_distance
_geom_bond_site_symmetry_2
_ccdc_geom_bond_type
C1     O50     1.274   .     A
C1     C14     1.404   .     S
C1     O47     1.274   .     A
C2     C25     1.413   .     A
C2     C20     1.451   .     S
C2     C23     1.413   .     A
C3     C9      1.405   .     A
C3     C24     1.411   .     A
C3     C7      1.417   .     A
C4     C8      1.417   .     A
C4     C25     1.411   .     A
C4     C10     1.405   .     A
C5     C11     1.405   .     A
C5     C7      1.417   .     A
C5     C22     1.411   .     A
C6     C13     1.405   .     A
C6     C23     1.411   .     A
C6     C8      1.417   .     A
C7     C62     1.421   .     S
C8     C61     1.421   1_455 S
C9     H29     1.081   .     S
C9     C67     1.382   .     S
C10    H37     1.081   .     S
C10    C65     1.382   1_455 S
C11    H38     1.081   .     S
C11    C64     1.382   .     S
C12    O48     1.274   .     A
C12    C15     1.404   .     S
C12    O49     1.274   .     A
C13    H39     1.081   .     S
C13    C63     1.382   1_455 S
C14    C231    1.187   1_545 S
C15    C122    1.187   .     S
C16    C22     1.524   .     S
C16    H40     1.105   .     S
C16    H42     1.110   .     S
C16    H41     1.111   .     S
C17    H43     1.105   .     S
C17    H44     1.110   .     S
C17    H30     1.111   .     S
C17    C23     1.524   .     S
C18    C24     1.524   .     S
C18    H33     1.110   .     S
C18    H32     1.111   .     S
C18    H31     1.105   .     S
C19    H35     1.110   .     S
C19    H36     1.111   .     S
C19    C25     1.524   .     S
C19    H34     1.105   .     S
C20    O51     1.277   .     A
C20    O54     1.277   .     A
C21    C26     1.451   .     S
C21    O53     1.277   .     A
C21    O52     1.277   .     A
C22    C26     1.413   .     A
C24    C26     1.413   .     A
Cu27   O53     1.971   .     S
Cu27   N46     1.981   .     S
Cu27   O51     1.971   .     S
Cu27   Cu28    2.636   .     S
Cu27   O47     1.932   .     S
Cu27   O49     1.932   .     S
Cu28   O52     1.971   .     S
Cu28   N45     1.981   .     S
Cu28   O54     1.971   .     S
Cu28   O50     1.932   .     S
Cu28   O48     1.932   .     S
N45    N694    1.198   1_554 S
N46    N369    1.198   .     S
C55    O104    1.274   .     A
C55    C68     1.404   .     S
C55    O101    1.274   .     A
C56    C79     1.413   .     A
C56    C74     1.451   .     S
C56    C77     1.413   .     A
C57    C63     1.405   .     A
C57    C78     1.411   .     A
C57    C61     1.417   .     A
C58    C62     1.417   .     A
C58    C79     1.411   .     A
C58    C64     1.405   .     A
C59    C65     1.405   .     A
C59    C61     1.417   .     A
C59    C76     1.411   .     A
C60    C67     1.405   .     A
C60    C77     1.411   .     A
C60    C62     1.417   .     A
C61    C8      1.421   1_655 S
C63    H83     1.081   .     S
C63    C13     1.382   1_655 S
C64    H91     1.081   .     S
C65    H92     1.081   .     S
C65    C10     1.382   1_655 S
C66    O102    1.274   .     A
C66    C69     1.404   .     S
C66    O103    1.274   .     A
C67    H93     1.081   .     S
C68    C285    1.187   1_545 S
C69    C176    1.187   .     S
C70    C76     1.524   .     S
C70    H94     1.105   .     S
C70    H96     1.110   .     S
C70    H95     1.111   .     S
C71    H97     1.105   .     S
C71    H98     1.110   .     S
C71    H84     1.111   .     S
C71    C77     1.524   .     S
C72    C78     1.524   .     S
C72    H87     1.110   .     S
C72    H86     1.111   .     S
C72    H85     1.105   .     S
C73    H89     1.110   .     S
C73    H90     1.111   .     S
C73    C79     1.524   .     S
C73    H88     1.105   .     S
C74    O105    1.277   .     A
C74    O108    1.277   .     A
C75    C80     1.451   .     S
C75    O107    1.277   .     A
C75    O106    1.277   .     A
C76    C80     1.413   .     A
C78    C80     1.413   .     A
Cu81   O107    1.971   .     S
Cu81   N100    1.981   .     S
Cu81   O105    1.971   .     S
Cu81   Cu82    2.636   .     S
Cu81   O101    1.932   .     S
Cu81   O103    1.932   .     S
Cu82   O106    1.971   .     S
Cu82   N99     1.981   .     S
Cu82   O108    1.971   .     S
Cu82   O104    1.932   .     S
Cu82   O102    1.932   .     S
N99    N748    1.198   1_554 S
N100   N423    1.198   .     S
C109   O158    1.274   .     A
C109   C122    1.404   .     S
C109   O155    1.274   .     A
C110   C133    1.413   .     A
C110   C128    1.451   .     S
C110   C131    1.413   .     A
C111   C117    1.405   .     A
C111   C132    1.411   .     A
C111   C115    1.417   .     A
C112   C116    1.417   .     A
C112   C133    1.411   .     A
C112   C118    1.405   .     A
C113   C119    1.405   .     A
C113   C115    1.417   .     A
C113   C130    1.411   .     A
C114   C121    1.405   .     A
C114   C131    1.411   .     A
C114   C116    1.417   .     A
C115   C170    1.421   .     S
C116   C169    1.421   1_455 S
C117   H137    1.081   .     S
C117   C175    1.382   .     S
C118   H145    1.081   .     S
C118   C173    1.382   1_455 S
C119   H146    1.081   .     S
C119   C172    1.382   .     S
C120   O156    1.274   .     A
C120   C123    1.404   .     S
C120   O157    1.274   .     A
C121   H147    1.081   .     S
C121   C171    1.382   1_455 S
C123   C230    1.187   .     S
C124   C130    1.524   .     S
C124   H148    1.105   .     S
C124   H150    1.110   .     S
C124   H149    1.111   .     S
C125   H151    1.105   .     S
C125   H152    1.110   .     S
C125   H138    1.111   .     S
C125   C131    1.524   .     S
C126   C132    1.524   .     S
C126   H141    1.110   .     S
C126   H140    1.111   .     S
C126   H139    1.105   .     S
C127   H143    1.110   .     S
C127   H144    1.111   .     S
C127   C133    1.524   .     S
C127   H142    1.105   .     S
C128   O159    1.277   .     A
C128   O162    1.277   .     A
C129   C134    1.451   .     S
C129   O161    1.277   .     A
C129   O160    1.277   .     A
C130   C134    1.413   .     A
C132   C134    1.413   .     A
Cu135  O161    1.971   .     S
Cu135  N154    1.981   .     S
Cu135  O159    1.971   .     S
Cu135  Cu136   2.636   .     S
Cu135  O155    1.932   .     S
Cu135  O157    1.932   .     S
Cu136  O160    1.971   .     S
Cu136  N153    1.981   .     S
Cu136  O162    1.971   .     S
Cu136  O158    1.932   .     S
Cu136  O156    1.932   .     S
N153   N802    1.198   1_554 S
N154   N477    1.198   .     S
C163   O212    1.274   .     A
C163   C176    1.404   .     S
C163   O209    1.274   .     A
C164   C187    1.413   .     A
C164   C182    1.451   .     S
C164   C185    1.413   .     A
C165   C171    1.405   .     A
C165   C186    1.411   .     A
C165   C169    1.417   .     A
C166   C170    1.417   .     A
C166   C187    1.411   .     A
C166   C172    1.405   .     A
C167   C173    1.405   .     A
C167   C169    1.417   .     A
C167   C184    1.411   .     A
C168   C175    1.405   .     A
C168   C185    1.411   .     A
C168   C170    1.417   .     A
C169   C116    1.421   1_655 S
C171   H191    1.081   .     S
C171   C121    1.382   1_655 S
C172   H199    1.081   .     S
C173   H200    1.081   .     S
C173   C118    1.382   1_655 S
C174   O210    1.274   .     A
C174   C177    1.404   .     S
C174   O211    1.274   .     A
C175   H201    1.081   .     S
C177   C284    1.187   .     S
C178   C184    1.524   .     S
C178   H202    1.105   .     S
C178   H204    1.110   .     S
C178   H203    1.111   .     S
C179   H205    1.105   .     S
C179   H206    1.110   .     S
C179   H192    1.111   .     S
C179   C185    1.524   .     S
C180   C186    1.524   .     S
C180   H195    1.110   .     S
C180   H194    1.111   .     S
C180   H193    1.105   .     S
C181   H197    1.110   .     S
C181   H198    1.111   .     S
C181   C187    1.524   .     S
C181   H196    1.105   .     S
C182   O213    1.277   .     A
C182   O216    1.277   .     A
C183   C188    1.451   .     S
C183   O215    1.277   .     A
C183   O214    1.277   .     A
C184   C188    1.413   .     A
C186   C188    1.413   .     A
Cu189  O215    1.971   .     S
Cu189  N208    1.981   .     S
Cu189  O213    1.971   .     S
Cu189  Cu190   2.636   .     S
Cu189  O209    1.932   .     S
Cu189  O211    1.932   .     S
Cu190  O214    1.971   .     S
Cu190  N207    1.981   .     S
Cu190  O216    1.971   .     S
Cu190  O212    1.932   .     S
Cu190  O210    1.932   .     S
N207   N856    1.198   1_554 S
N208   N531    1.198   .     S
C217   O266    1.274   .     A
C217   C230    1.404   .     S
C217   O263    1.274   .     A
C218   C241    1.413   .     A
C218   C236    1.451   .     S
C218   C239    1.413   .     A
C219   C225    1.405   .     A
C219   C240    1.411   .     A
C219   C223    1.417   .     A
C220   C224    1.417   .     A
C220   C241    1.411   .     A
C220   C226    1.405   .     A
C221   C227    1.405   .     A
C221   C223    1.417   .     A
C221   C238    1.411   .     A
C222   C229    1.405   .     A
C222   C239    1.411   .     A
C222   C224    1.417   .     A
C223   C278    1.421   .     S
C224   C277    1.421   1_455 S
C225   H245    1.081   .     S
C225   C283    1.382   .     S
C226   H253    1.081   .     S
C226   C281    1.382   1_455 S
C227   H254    1.081   .     S
C227   C280    1.382   .     S
C228   O264    1.274   .     A
C228   C231    1.404   .     S
C228   O265    1.274   .     A
C229   H255    1.081   .     S
C229   C279    1.382   1_455 S
C231   C14     1.187   1_565 S
C232   C238    1.524   .     S
C232   H256    1.105   .     S
C232   H258    1.110   .     S
C232   H257    1.111   .     S
C233   H259    1.105   .     S
C233   H260    1.110   .     S
C233   H246    1.111   .     S
C233   C239    1.524   .     S
C234   C240    1.524   .     S
C234   H249    1.110   .     S
C234   H248    1.111   .     S
C234   H247    1.105   .     S
C235   H251    1.110   .     S
C235   H252    1.111   .     S
C235   C241    1.524   .     S
C235   H250    1.105   .     S
C236   O267    1.277   .     A
C236   O270    1.277   .     A
C237   C242    1.451   .     S
C237   O269    1.277   .     A
C237   O268    1.277   .     A
C238   C242    1.413   .     A
C240   C242    1.413   .     A
Cu243  O269    1.971   .     S
Cu243  N262    1.981   .     S
Cu243  O267    1.971   .     S
Cu243  Cu244   2.636   .     S
Cu243  O263    1.932   .     S
Cu243  O265    1.932   .     S
Cu244  O268    1.971   .     S
Cu244  N261    1.981   .     S
Cu244  O270    1.971   .     S
Cu244  O266    1.932   .     S
Cu244  O264    1.932   .     S
N261   N910    1.198   1_554 S
N262   N585    1.198   .     S
C271   O320    1.274   .     A
C271   C284    1.404   .     S
C271   O317    1.274   .     A
C272   C295    1.413   .     A
C272   C290    1.451   .     S
C272   C293    1.413   .     A
C273   C279    1.405   .     A
C273   C294    1.411   .     A
C273   C277    1.417   .     A
C274   C278    1.417   .     A
C274   C295    1.411   .     A
C274   C280    1.405   .     A
C275   C281    1.405   .     A
C275   C277    1.417   .     A
C275   C292    1.411   .     A
C276   C283    1.405   .     A
C276   C293    1.411   .     A
C276   C278    1.417   .     A
C277   C224    1.421   1_655 S
C279   H299    1.081   .     S
C279   C229    1.382   1_655 S
C280   H307    1.081   .     S
C281   H308    1.081   .     S
C281   C226    1.382   1_655 S
C282   O318    1.274   .     A
C282   C285    1.404   .     S
C282   O319    1.274   .     A
C283   H309    1.081   .     S
C285   C68     1.187   1_565 S
C286   C292    1.524   .     S
C286   H310    1.105   .     S
C286   H312    1.110   .     S
C286   H311    1.111   .     S
C287   H313    1.105   .     S
C287   H314    1.110   .     S
C287   H300    1.111   .     S
C287   C293    1.524   .     S
C288   C294    1.524   .     S
C288   H303    1.110   .     S
C288   H302    1.111   .     S
C288   H301    1.105   .     S
C289   H305    1.110   .     S
C289   H306    1.111   .     S
C289   C295    1.524   .     S
C289   H304    1.105   .     S
C290   O321    1.277   .     A
C290   O324    1.277   .     A
C291   C296    1.451   .     S
C291   O323    1.277   .     A
C291   O322    1.277   .     A
C292   C296    1.413   .     A
C294   C296    1.413   .     A
Cu297  O323    1.971   .     S
Cu297  N316    1.981   .     S
Cu297  O321    1.971   .     S
Cu297  Cu298   2.636   .     S
Cu297  O317    1.932   .     S
Cu297  O319    1.932   .     S
Cu298  O322    1.971   .     S
Cu298  N315    1.981   .     S
Cu298  O324    1.971   .     S
Cu298  O320    1.932   .     S
Cu298  O318    1.932   .     S
N315   N964    1.198   1_554 S
N316   N639    1.198   .     S
C325   O374    1.274   .     A
C325   C338    1.404   .     S
C325   O371    1.274   .     A
C326   C349    1.413   .     A
C326   C344    1.451   .     S
C326   C347    1.413   .     A
C327   C333    1.405   .     A
C327   C348    1.411   .     A
C327   C331    1.417   .     A
C328   C332    1.417   .     A
C328   C349    1.411   .     A
C328   C334    1.405   .     A
C329   C335    1.405   .     A
C329   C331    1.417   .     A
C329   C346    1.411   .     A
C330   C337    1.405   .     A
C330   C347    1.411   .     A
C330   C332    1.417   .     A
C331   C386    1.421   .     S
C332   C385    1.421   1_455 S
C333   H353    1.081   .     S
C333   C391    1.382   .     S
C334   H361    1.081   .     S
C334   C389    1.382   1_455 S
C335   H362    1.081   .     S
C335   C388    1.382   .     S
C336   O372    1.274   .     A
C336   C339    1.404   .     S
C336   O373    1.274   .     A
C337   H363    1.081   .     S
C337   C387    1.382   1_455 S
C338   C555    1.187   1_545 S
C339   C446    1.187   .     S
C340   C346    1.524   .     S
C340   H364    1.105   .     S
C340   H366    1.110   .     S
C340   H365    1.111   .     S
C341   H367    1.105   .     S
C341   H368    1.110   .     S
C341   H354    1.111   .     S
C341   C347    1.524   .     S
C342   C348    1.524   .     S
C342   H357    1.110   .     S
C342   H356    1.111   .     S
C342   H355    1.105   .     S
C343   H359    1.110   .     S
C343   H360    1.111   .     S
C343   C349    1.524   .     S
C343   H358    1.105   .     S
C344   O375    1.277   .     A
C344   O378    1.277   .     A
C345   C350    1.451   .     S
C345   O377    1.277   .     A
C345   O376    1.277   .     A
C346   C350    1.413   .     A
C348   C350    1.413   .     A
Cu351  O377    1.971   .     S
Cu351  N370    1.981   .     S
Cu351  O375    1.971   .     S
Cu351  Cu352   2.636   .     S
Cu351  O371    1.932   .     S
Cu351  O373    1.932   .     S
Cu352  O376    1.971   .     S
Cu352  N369    1.981   .     S
Cu352  O378    1.971   .     S
Cu352  O374    1.932   .     S
Cu352  O372    1.932   .     S
N370   N693    1.198   .     S
C379   O428    1.274   .     A
C379   C392    1.404   .     S
C379   O425    1.274   .     A
C380   C403    1.413   .     A
C380   C398    1.451   .     S
C380   C401    1.413   .     A
C381   C387    1.405   .     A
C381   C402    1.411   .     A
C381   C385    1.417   .     A
C382   C386    1.417   .     A
C382   C403    1.411   .     A
C382   C388    1.405   .     A
C383   C389    1.405   .     A
C383   C385    1.417   .     A
C383   C400    1.411   .     A
C384   C391    1.405   .     A
C384   C401    1.411   .     A
C384   C386    1.417   .     A
C385   C332    1.421   1_655 S
C387   H407    1.081   .     S
C387   C337    1.382   1_655 S
C388   H415    1.081   .     S
C389   H416    1.081   .     S
C389   C334    1.382   1_655 S
C390   O426    1.274   .     A
C390   C393    1.404   .     S
C390   O427    1.274   .     A
C391   H417    1.081   .     S
C392   C609    1.187   1_545 S
C393   C500    1.187   .     S
C394   C400    1.524   .     S
C394   H418    1.105   .     S
C394   H420    1.110   .     S
C394   H419    1.111   .     S
C395   H421    1.105   .     S
C395   H422    1.110   .     S
C395   H408    1.111   .     S
C395   C401    1.524   .     S
C396   C402    1.524   .     S
C396   H411    1.110   .     S
C396   H410    1.111   .     S
C396   H409    1.105   .     S
C397   H413    1.110   .     S
C397   H414    1.111   .     S
C397   C403    1.524   .     S
C397   H412    1.105   .     S
C398   O429    1.277   .     A
C398   O432    1.277   .     A
C399   C404    1.451   .     S
C399   O431    1.277   .     A
C399   O430    1.277   .     A
C400   C404    1.413   .     A
C402   C404    1.413   .     A
Cu405  O431    1.971   .     S
Cu405  N424    1.981   .     S
Cu405  O429    1.971   .     S
Cu405  Cu406   2.636   .     S
Cu405  O425    1.932   .     S
Cu405  O427    1.932   .     S
Cu406  O430    1.971   .     S
Cu406  N423    1.981   .     S
Cu406  O432    1.971   .     S
Cu406  O428    1.932   .     S
Cu406  O426    1.932   .     S
N424   N747    1.198   .     S
C433   O482    1.274   .     A
C433   C446    1.404   .     S
C433   O479    1.274   .     A
C434   C457    1.413   .     A
C434   C452    1.451   .     S
C434   C455    1.413   .     A
C435   C441    1.405   .     A
C435   C456    1.411   .     A
C435   C439    1.417   .     A
C436   C440    1.417   .     A
C436   C457    1.411   .     A
C436   C442    1.405   .     A
C437   C443    1.405   .     A
C437   C439    1.417   .     A
C437   C454    1.411   .     A
C438   C445    1.405   .     A
C438   C455    1.411   .     A
C438   C440    1.417   .     A
C439   C494    1.421   .     S
C440   C493    1.421   1_455 S
C441   H461    1.081   .     S
C441   C499    1.382   .     S
C442   H469    1.081   .     S
C442   C497    1.382   1_455 S
C443   H470    1.081   .     S
C443   C496    1.382   .     S
C444   O480    1.274   .     A
C444   C447    1.404   .     S
C444   O481    1.274   .     A
C445   H471    1.081   .     S
C445   C495    1.382   1_455 S
C447   C554    1.187   .     S
C448   C454    1.524   .     S
C448   H472    1.105   .     S
C448   H474    1.110   .     S
C448   H473    1.111   .     S
C449   H475    1.105   .     S
C449   H476    1.110   .     S
C449   H462    1.111   .     S
C449   C455    1.524   .     S
C450   C456    1.524   .     S
C450   H465    1.110   .     S
C450   H464    1.111   .     S
C450   H463    1.105   .     S
C451   H467    1.110   .     S
C451   H468    1.111   .     S
C451   C457    1.524   .     S
C451   H466    1.105   .     S
C452   O483    1.277   .     A
C452   O486    1.277   .     A
C453   C458    1.451   .     S
C453   O485    1.277   .     A
C453   O484    1.277   .     A
C454   C458    1.413   .     A
C456   C458    1.413   .     A
Cu459  O485    1.971   .     S
Cu459  N478    1.981   .     S
Cu459  O483    1.971   .     S
Cu459  Cu460   2.636   .     S
Cu459  O479    1.932   .     S
Cu459  O481    1.932   .     S
Cu460  O484    1.971   .     S
Cu460  N477    1.981   .     S
Cu460  O486    1.971   .     S
Cu460  O482    1.932   .     S
Cu460  O480    1.932   .     S
N478   N801    1.198   .     S
C487   O536    1.274   .     A
C487   C500    1.404   .     S
C487   O533    1.274   .     A
C488   C511    1.413   .     A
C488   C506    1.451   .     S
C488   C509    1.413   .     A
C489   C495    1.405   .     A
C489   C510    1.411   .     A
C489   C493    1.417   .     A
C490   C494    1.417   .     A
C490   C511    1.411   .     A
C490   C496    1.405   .     A
C491   C497    1.405   .     A
C491   C493    1.417   .     A
C491   C508    1.411   .     A
C492   C499    1.405   .     A
C492   C509    1.411   .     A
C492   C494    1.417   .     A
C493   C440    1.421   1_655 S
C495   H515    1.081   .     S
C495   C445    1.382   1_655 S
C496   H523    1.081   .     S
C497   H524    1.081   .     S
C497   C442    1.382   1_655 S
C498   O534    1.274   .     A
C498   C501    1.404   .     S
C498   O535    1.274   .     A
C499   H525    1.081   .     S
C501   C608    1.187   .     S
C502   C508    1.524   .     S
C502   H526    1.105   .     S
C502   H528    1.110   .     S
C502   H527    1.111   .     S
C503   H529    1.105   .     S
C503   H530    1.110   .     S
C503   H516    1.111   .     S
C503   C509    1.524   .     S
C504   C510    1.524   .     S
C504   H519    1.110   .     S
C504   H518    1.111   .     S
C504   H517    1.105   .     S
C505   H521    1.110   .     S
C505   H522    1.111   .     S
C505   C511    1.524   .     S
C505   H520    1.105   .     S
C506   O537    1.277   .     A
C506   O540    1.277   .     A
C507   C512    1.451   .     S
C507   O539    1.277   .     A
C507   O538    1.277   .     A
C508   C512    1.413   .     A
C510   C512    1.413   .     A
Cu513  O539    1.971   .     S
Cu513  N532    1.981   .     S
Cu513  O537    1.971   .     S
Cu513  Cu514   2.636   .     S
Cu513  O533    1.932   .     S
Cu513  O535    1.932   .     S
Cu514  O538    1.971   .     S
Cu514  N531    1.981   .     S
Cu514  O540    1.971   .     S
Cu514  O536    1.932   .     S
Cu514  O534    1.932   .     S
N532   N855    1.198   .     S
C541   O590    1.274   .     A
C541   C554    1.404   .     S
C541   O587    1.274   .     A
C542   C565    1.413   .     A
C542   C560    1.451   .     S
C542   C563    1.413   .     A
C543   C549    1.405   .     A
C543   C564    1.411   .     A
C543   C547    1.417   .     A
C544   C548    1.417   .     A
C544   C565    1.411   .     A
C544   C550    1.405   .     A
C545   C551    1.405   .     A
C545   C547    1.417   .     A
C545   C562    1.411   .     A
C546   C553    1.405   .     A
C546   C563    1.411   .     A
C546   C548    1.417   .     A
C547   C602    1.421   .     S
C548   C601    1.421   1_455 S
C549   H569    1.081   .     S
C549   C607    1.382   .     S
C550   H577    1.081   .     S
C550   C605    1.382   1_455 S
C551   H578    1.081   .     S
C551   C604    1.382   .     S
C552   O588    1.274   .     A
C552   C555    1.404   .     S
C552   O589    1.274   .     A
C553   H579    1.081   .     S
C553   C603    1.382   1_455 S
C555   C338    1.187   1_565 S
C556   C562    1.524   .     S
C556   H580    1.105   .     S
C556   H582    1.110   .     S
C556   H581    1.111   .     S
C557   H583    1.105   .     S
C557   H584    1.110   .     S
C557   H570    1.111   .     S
C557   C563    1.524   .     S
C558   C564    1.524   .     S
C558   H573    1.110   .     S
C558   H572    1.111   .     S
C558   H571    1.105   .     S
C559   H575    1.110   .     S
C559   H576    1.111   .     S
C559   C565    1.524   .     S
C559   H574    1.105   .     S
C560   O591    1.277   .     A
C560   O594    1.277   .     A
C561   C566    1.451   .     S
C561   O593    1.277   .     A
C561   O592    1.277   .     A
C562   C566    1.413   .     A
C564   C566    1.413   .     A
Cu567  O593    1.971   .     S
Cu567  N586    1.981   .     S
Cu567  O591    1.971   .     S
Cu567  Cu568   2.636   .     S
Cu567  O587    1.932   .     S
Cu567  O589    1.932   .     S
Cu568  O592    1.971   .     S
Cu568  N585    1.981   .     S
Cu568  O594    1.971   .     S
Cu568  O590    1.932   .     S
Cu568  O588    1.932   .     S
N586   N909    1.198   .     S
C595   O644    1.274   .     A
C595   C608    1.404   .     S
C595   O641    1.274   .     A
C596   C619    1.413   .     A
C596   C614    1.451   .     S
C596   C617    1.413   .     A
C597   C603    1.405   .     A
C597   C618    1.411   .     A
C597   C601    1.417   .     A
C598   C602    1.417   .     A
C598   C619    1.411   .     A
C598   C604    1.405   .     A
C599   C605    1.405   .     A
C599   C601    1.417   .     A
C599   C616    1.411   .     A
C600   C607    1.405   .     A
C600   C617    1.411   .     A
C600   C602    1.417   .     A
C601   C548    1.421   1_655 S
C603   H623    1.081   .     S
C603   C553    1.382   1_655 S
C604   H631    1.081   .     S
C605   H632    1.081   .     S
C605   C550    1.382   1_655 S
C606   O642    1.274   .     A
C606   C609    1.404   .     S
C606   O643    1.274   .     A
C607   H633    1.081   .     S
C609   C392    1.187   1_565 S
C610   C616    1.524   .     S
C610   H634    1.105   .     S
C610   H636    1.110   .     S
C610   H635    1.111   .     S
C611   H637    1.105   .     S
C611   H638    1.110   .     S
C611   H624    1.111   .     S
C611   C617    1.524   .     S
C612   C618    1.524   .     S
C612   H627    1.110   .     S
C612   H626    1.111   .     S
C612   H625    1.105   .     S
C613   H629    1.110   .     S
C613   H630    1.111   .     S
C613   C619    1.524   .     S
C613   H628    1.105   .     S
C614   O645    1.277   .     A
C614   O648    1.277   .     A
C615   C620    1.451   .     S
C615   O647    1.277   .     A
C615   O646    1.277   .     A
C616   C620    1.413   .     A
C618   C620    1.413   .     A
Cu621  O647    1.971   .     S
Cu621  N640    1.981   .     S
Cu621  O645    1.971   .     S
Cu621  Cu622   2.636   .     S
Cu621  O641    1.932   .     S
Cu621  O643    1.932   .     S
Cu622  O646    1.971   .     S
Cu622  N639    1.981   .     S
Cu622  O648    1.971   .     S
Cu622  O644    1.932   .     S
Cu622  O642    1.932   .     S
N640   N963    1.198   .     S
C649   O698    1.274   .     A
C649   C662    1.404   .     S
C649   O695    1.274   .     A
C650   C673    1.413   .     A
C650   C668    1.451   .     S
C650   C671    1.413   .     A
C651   C657    1.405   .     A
C651   C672    1.411   .     A
C651   C655    1.417   .     A
C652   C656    1.417   .     A
C652   C673    1.411   .     A
C652   C658    1.405   .     A
C653   C659    1.405   .     A
C653   C655    1.417   .     A
C653   C670    1.411   .     A
C654   C661    1.405   .     A
C654   C671    1.411   .     A
C654   C656    1.417   .     A
C655   C710    1.421   .     S
C656   C709    1.421   1_455 S
C657   H677    1.081   .     S
C657   C715    1.382   .     S
C658   H685    1.081   .     S
C658   C713    1.382   1_455 S
C659   H686    1.081   .     S
C659   C712    1.382   .     S
C660   O696    1.274   .     A
C660   C663    1.404   .     S
C660   O697    1.274   .     A
C661   H687    1.081   .     S
C661   C711    1.382   1_455 S
C662   C879    1.187   1_545 S
C663   C770    1.187   .     S
C664   C670    1.524   .     S
C664   H688    1.105   .     S
C664   H690    1.110   .     S
C664   H689    1.111   .     S
C665   H691    1.105   .     S
C665   H692    1.110   .     S
C665   H678    1.111   .     S
C665   C671    1.524   .     S
C666   C672    1.524   .     S
C666   H681    1.110   .     S
C666   H680    1.111   .     S
C666   H679    1.105   .     S
C667   H683    1.110   .     S
C667   H684    1.111   .     S
C667   C673    1.524   .     S
C667   H682    1.105   .     S
C668   O699    1.277   .     A
C668   O702    1.277   .     A
C669   C674    1.451   .     S
C669   O701    1.277   .     A
C669   O700    1.277   .     A
C670   C674    1.413   .     A
C672   C674    1.413   .     A
Cu675  O701    1.971   .     S
Cu675  N694    1.981   .     S
Cu675  O699    1.971   .     S
Cu675  Cu676   2.636   .     S
Cu675  O695    1.932   .     S
Cu675  O697    1.932   .     S
Cu676  O700    1.971   .     S
Cu676  N693    1.981   .     S
Cu676  O702    1.971   .     S
Cu676  O698    1.932   .     S
Cu676  O696    1.932   .     S
N694   N45     1.198   1_556 S
C703   O752    1.274   .     A
C703   C716    1.404   .     S
C703   O749    1.274   .     A
C704   C727    1.413   .     A
C704   C722    1.451   .     S
C704   C725    1.413   .     A
C705   C711    1.405   .     A
C705   C726    1.411   .     A
C705   C709    1.417   .     A
C706   C710    1.417   .     A
C706   C727    1.411   .     A
C706   C712    1.405   .     A
C707   C713    1.405   .     A
C707   C709    1.417   .     A
C707   C724    1.411   .     A
C708   C715    1.405   .     A
C708   C725    1.411   .     A
C708   C710    1.417   .     A
C709   C656    1.421   1_655 S
C711   H731    1.081   .     S
C711   C661    1.382   1_655 S
C712   H739    1.081   .     S
C713   H740    1.081   .     S
C713   C658    1.382   1_655 S
C714   O750    1.274   .     A
C714   C717    1.404   .     S
C714   O751    1.274   .     A
C715   H741    1.081   .     S
C716   C933    1.187   1_545 S
C717   C824    1.187   .     S
C718   C724    1.524   .     S
C718   H742    1.105   .     S
C718   H744    1.110   .     S
C718   H743    1.111   .     S
C719   H745    1.105   .     S
C719   H746    1.110   .     S
C719   H732    1.111   .     S
C719   C725    1.524   .     S
C720   C726    1.524   .     S
C720   H735    1.110   .     S
C720   H734    1.111   .     S
C720   H733    1.105   .     S
C721   H737    1.110   .     S
C721   H738    1.111   .     S
C721   C727    1.524   .     S
C721   H736    1.105   .     S
C722   O753    1.277   .     A
C722   O756    1.277   .     A
C723   C728    1.451   .     S
C723   O755    1.277   .     A
C723   O754    1.277   .     A
C724   C728    1.413   .     A
C726   C728    1.413   .     A
Cu729  O755    1.971   .     S
Cu729  N748    1.981   .     S
Cu729  O753    1.971   .     S
Cu729  Cu730   2.636   .     S
Cu729  O749    1.932   .     S
Cu729  O751    1.932   .     S
Cu730  O754    1.971   .     S
Cu730  N747    1.981   .     S
Cu730  O756    1.971   .     S
Cu730  O752    1.932   .     S
Cu730  O750    1.932   .     S
N748   N99     1.198   1_556 S
C757   O806    1.274   .     A
C757   C770    1.404   .     S
C757   O803    1.274   .     A
C758   C781    1.413   .     A
C758   C776    1.451   .     S
C758   C779    1.413   .     A
C759   C765    1.405   .     A
C759   C780    1.411   .     A
C759   C763    1.417   .     A
C760   C764    1.417   .     A
C760   C781    1.411   .     A
C760   C766    1.405   .     A
C761   C767    1.405   .     A
C761   C763    1.417   .     A
C761   C778    1.411   .     A
C762   C769    1.405   .     A
C762   C779    1.411   .     A
C762   C764    1.417   .     A
C763   C818    1.421   .     S
C764   C817    1.421   1_455 S
C765   H785    1.081   .     S
C765   C823    1.382   .     S
C766   H793    1.081   .     S
C766   C821    1.382   1_455 S
C767   H794    1.081   .     S
C767   C820    1.382   .     S
C768   O804    1.274   .     A
C768   C771    1.404   .     S
C768   O805    1.274   .     A
C769   H795    1.081   .     S
C769   C819    1.382   1_455 S
C771   C878    1.187   .     S
C772   C778    1.524   .     S
C772   H796    1.105   .     S
C772   H798    1.110   .     S
C772   H797    1.111   .     S
C773   H799    1.105   .     S
C773   H800    1.110   .     S
C773   H786    1.111   .     S
C773   C779    1.524   .     S
C774   C780    1.524   .     S
C774   H789    1.110   .     S
C774   H788    1.111   .     S
C774   H787    1.105   .     S
C775   H791    1.110   .     S
C775   H792    1.111   .     S
C775   C781    1.524   .     S
C775   H790    1.105   .     S
C776   O807    1.277   .     A
C776   O810    1.277   .     A
C777   C782    1.451   .     S
C777   O809    1.277   .     A
C777   O808    1.277   .     A
C778   C782    1.413   .     A
C780   C782    1.413   .     A
Cu783  O809    1.971   .     S
Cu783  N802    1.981   .     S
Cu783  O807    1.971   .     S
Cu783  Cu784   2.636   .     S
Cu783  O803    1.932   .     S
Cu783  O805    1.932   .     S
Cu784  O808    1.971   .     S
Cu784  N801    1.981   .     S
Cu784  O810    1.971   .     S
Cu784  O806    1.932   .     S
Cu784  O804    1.932   .     S
N802   N153    1.198   1_556 S
C811   O860    1.274   .     A
C811   C824    1.404   .     S
C811   O857    1.274   .     A
C812   C835    1.413   .     A
C812   C830    1.451   .     S
C812   C833    1.413   .     A
C813   C819    1.405   .     A
C813   C834    1.411   .     A
C813   C817    1.417   .     A
C814   C818    1.417   .     A
C814   C835    1.411   .     A
C814   C820    1.405   .     A
C815   C821    1.405   .     A
C815   C817    1.417   .     A
C815   C832    1.411   .     A
C816   C823    1.405   .     A
C816   C833    1.411   .     A
C816   C818    1.417   .     A
C817   C764    1.421   1_655 S
C819   H839    1.081   .     S
C819   C769    1.382   1_655 S
C820   H847    1.081   .     S
C821   H848    1.081   .     S
C821   C766    1.382   1_655 S
C822   O858    1.274   .     A
C822   C825    1.404   .     S
C822   O859    1.274   .     A
C823   H849    1.081   .     S
C825   C932    1.187   .     S
C826   C832    1.524   .     S
C826   H850    1.105   .     S
C826   H852    1.110   .     S
C826   H851    1.111   .     S
C827   H853    1.105   .     S
C827   H854    1.110   .     S
C827   H840    1.111   .     S
C827   C833    1.524   .     S
C828   C834    1.524   .     S
C828   H843    1.110   .     S
C828   H842    1.111   .     S
C828   H841    1.105   .     S
C829   H845    1.110   .     S
C829   H846    1.111   .     S
C829   C835    1.524   .     S
C829   H844    1.105   .     S
C830   O861    1.277   .     A
C830   O864    1.277   .     A
C831   C836    1.451   .     S
C831   O863    1.277   .     A
C831   O862    1.277   .     A
C832   C836    1.413   .     A
C834   C836    1.413   .     A
Cu837  O863    1.971   .     S
Cu837  N856    1.981   .     S
Cu837  O861    1.971   .     S
Cu837  Cu838   2.636   .     S
Cu837  O857    1.932   .     S
Cu837  O859    1.932   .     S
Cu838  O862    1.971   .     S
Cu838  N855    1.981   .     S
Cu838  O864    1.971   .     S
Cu838  O860    1.932   .     S
Cu838  O858    1.932   .     S
N856   N207    1.198   1_556 S
C865   O914    1.274   .     A
C865   C878    1.404   .     S
C865   O911    1.274   .     A
C866   C889    1.413   .     A
C866   C884    1.451   .     S
C866   C887    1.413   .     A
C867   C873    1.405   .     A
C867   C888    1.411   .     A
C867   C871    1.417   .     A
C868   C872    1.417   .     A
C868   C889    1.411   .     A
C868   C874    1.405   .     A
C869   C875    1.405   .     A
C869   C871    1.417   .     A
C869   C886    1.411   .     A
C870   C877    1.405   .     A
C870   C887    1.411   .     A
C870   C872    1.417   .     A
C871   C926    1.421   .     S
C872   C925    1.421   1_455 S
C873   H893    1.081   .     S
C873   C931    1.382   .     S
C874   H901    1.081   .     S
C874   C929    1.382   1_455 S
C875   H902    1.081   .     S
C875   C928    1.382   .     S
C876   O912    1.274   .     A
C876   C879    1.404   .     S
C876   O913    1.274   .     A
C877   H903    1.081   .     S
C877   C927    1.382   1_455 S
C879   C662    1.187   1_565 S
C880   C886    1.524   .     S
C880   H904    1.105   .     S
C880   H906    1.110   .     S
C880   H905    1.111   .     S
C881   H907    1.105   .     S
C881   H908    1.110   .     S
C881   H894    1.111   .     S
C881   C887    1.524   .     S
C882   C888    1.524   .     S
C882   H897    1.110   .     S
C882   H896    1.111   .     S
C882   H895    1.105   .     S
C883   H899    1.110   .     S
C883   H900    1.111   .     S
C883   C889    1.524   .     S
C883   H898    1.105   .     S
C884   O915    1.277   .     A
C884   O918    1.277   .     A
C885   C890    1.451   .     S
C885   O917    1.277   .     A
C885   O916    1.277   .     A
C886   C890    1.413   .     A
C888   C890    1.413   .     A
Cu891  O917    1.971   .     S
Cu891  N910    1.981   .     S
Cu891  O915    1.971   .     S
Cu891  Cu892   2.636   .     S
Cu891  O911    1.932   .     S
Cu891  O913    1.932   .     S
Cu892  O916    1.971   .     S
Cu892  N909    1.981   .     S
Cu892  O918    1.971   .     S
Cu892  O914    1.932   .     S
Cu892  O912    1.932   .     S
N910   N261    1.198   1_556 S
C919   O968    1.274   .     A
C919   C932    1.404   .     S
C919   O965    1.274   .     A
C920   C943    1.413   .     A
C920   C938    1.451   .     S
C920   C941    1.413   .     A
C921   C927    1.405   .     A
C921   C942    1.411   .     A
C921   C925    1.417   .     A
C922   C926    1.417   .     A
C922   C943    1.411   .     A
C922   C928    1.405   .     A
C923   C929    1.405   .     A
C923   C925    1.417   .     A
C923   C940    1.411   .     A
C924   C931    1.405   .     A
C924   C941    1.411   .     A
C924   C926    1.417   .     A
C925   C872    1.421   1_655 S
C927   H947    1.081   .     S
C927   C877    1.382   1_655 S
C928   H955    1.081   .     S
C929   H956    1.081   .     S
C929   C874    1.382   1_655 S
C930   O966    1.274   .     A
C930   C933    1.404   .     S
C930   O967    1.274   .     A
C931   H957    1.081   .     S
C933   C716    1.187   1_565 S
C934   C940    1.524   .     S
C934   H958    1.105   .     S
C934   H960    1.110   .     S
C934   H959    1.111   .     S
C935   H961    1.105   .     S
C935   H962    1.110   .     S
C935   H948    1.111   .     S
C935   C941    1.524   .     S
C936   C942    1.524   .     S
C936   H951    1.110   .     S
C936   H950    1.111   .     S
C936   H949    1.105   .     S
C937   H953    1.110   .     S
C937   H954    1.111   .     S
C937   C943    1.524   .     S
C937   H952    1.105   .     S
C938   O969    1.277   .     A
C938   O972    1.277   .     A
C939   C944    1.451   .     S
C939   O971    1.277   .     A
C939   O970    1.277   .     A
C940   C944    1.413   .     A
C942   C944    1.413   .     A
Cu945  O971    1.971   .     S
Cu945  N964    1.981   .     S
Cu945  O969    1.971   .     S
Cu945  Cu946   2.636   .     S
Cu945  O965    1.932   .     S
Cu945  O967    1.932   .     S
Cu946  O970    1.971   .     S
Cu946  N963    1.981   .     S
Cu946  O972    1.971   .     S
Cu946  O968    1.932   .     S
Cu946  O966    1.932   .     S
N964   N315    1.198   1_556 S
