data_str_m3_o1_o16_pcu_sym.73
_audit_creation_date              2020-01-03
_audit_creation_method            'Materials Studio'
_symmetry_space_group_name_H-M    'P1'
_symmetry_Int_Tables_number       1
_symmetry_cell_setting            triclinic
loop_
_symmetry_equiv_pos_as_xyz
  x,y,z
_cell_length_a                    29.5584
_cell_length_b                    32.1472
_cell_length_c                    26.3176
_cell_angle_alpha                 90.0409
_cell_angle_beta                  71.7099
_cell_angle_gamma                 90.0074
loop_
_atom_site_label
_atom_site_type_symbol
_atom_site_fract_x
_atom_site_fract_y
_atom_site_fract_z
_atom_site_U_iso_or_equiv
_atom_site_adp_type
_atom_site_occupancy
C1     C     0.16667   0.24670   0.25004   0.00000  Uiso   1.00
C2     C     0.12813   0.18935   0.40598   0.00000  Uiso   1.00
C3     C     0.20354   0.31203   0.26163   0.00000  Uiso   1.00
C4     C     0.14143   0.17363   0.35056   0.00000  Uiso   1.00
C5     C     0.20355   0.02132   0.26158   0.00000  Uiso   1.00
C6     C     0.16660   0.04248   0.25017   0.00000  Uiso   1.00
C7     C     0.12960   0.02128   0.23889   0.00000  Uiso   1.00
C8     C     0.12961   0.31200   0.23891   0.00000  Uiso   1.00
C9     C     0.16661   0.29084   0.25021   0.00000  Uiso   1.00
C10    C     0.31430   0.13279   0.23237   0.00000  Uiso   1.00
C11    C     0.02891   0.13284   0.23226   0.00000  Uiso   1.00
C12    C     0.14936   0.19617   0.48794   0.00000  Uiso   1.00
C13    C     0.01908   0.20057   0.26751   0.00000  Uiso   1.00
C14    C     0.30464   0.20066   0.26713   0.00000  Uiso   1.00
C15    C     0.16664   0.08664   0.25005   0.00000  Uiso   1.00
C16    C     0.19257   0.16698   0.14828   0.00000  Uiso   1.00
C17    C     0.26520   0.16154   0.00334   0.00000  Uiso   1.00
C18    C     0.20751   0.17067   0.09061   0.00000  Uiso   1.00
C19    C     0.08015   0.19589   0.43481   0.00000  Uiso   1.00
C20    C     0.06651   0.20289   0.48969   0.00000  Uiso   1.00
C21    C     0.10026   0.20120   0.01661   0.00000  Uiso   1.00
C22    C     0.30805   0.14101   0.47103   0.00000  Uiso   1.00
C23    C     0.16322   0.19603   0.43167   0.00000  Uiso   1.00
C24    C     0.18508   0.18828   0.01244   0.00000  Uiso   1.00
C25    C     0.23268   0.17952   0.48027   0.00000  Uiso   1.00
C26    C     0.24639   0.18963   0.42611   0.00000  Uiso   1.00
C27    C     0.21208   0.20098   0.40320   0.00000  Uiso   1.00
C28    C     0.17435   0.18585   0.06759   0.00000  Uiso   1.00
C29    C     0.25256   0.15774   0.05875   0.00000  Uiso   1.00
H30    H     0.27710   0.14367   0.07689   0.00000  Uiso   1.00
H31    H     0.05315   0.19489   0.41500   0.00000  Uiso   1.00
H32    H     0.08659   0.20362   0.05955   0.00000  Uiso   1.00
H33    H     0.02924   0.20738   0.01195   0.00000  Uiso   1.00
H34    H     0.22428   0.21237   0.36268   0.00000  Uiso   1.00
H35    H     0.23212   0.29581   0.27087   0.00000  Uiso   1.00
H36    H     0.28299   0.22807   0.28046   0.00000  Uiso   1.00
H37    H     0.23216   0.03758   0.27076   0.00000  Uiso   1.00
H38    H     0.10100   0.03749   0.22968   0.00000  Uiso   1.00
H39    H     0.10100   0.29575   0.22971   0.00000  Uiso   1.00
H40    H     0.30026   0.10569   0.21811   0.00000  Uiso   1.00
H41    H     0.05096   0.10579   0.21786   0.00000  Uiso   1.00
H42    H     0.03315   0.22771   0.28166   0.00000  Uiso   1.00
H43    H     0.28344   0.18893   0.40147   0.00000  Uiso   1.00
H44    H     0.14010   0.19560   0.09365   0.00000  Uiso   1.00
N45    N     0.04760   0.16668   0.25001   0.00000  Uiso   1.00
N46    N     0.28573   0.16665   0.25000   0.00000  Uiso   1.00
N47    N     0.00847   0.12371   0.44528   0.00000  Uiso   1.00
O48    O     0.12846   0.22775   0.25000   0.00000  Uiso   1.00
O49    O     0.20490   0.22774   0.25000   0.00000  Uiso   1.00
O50    O     0.10947   0.16666   0.32681   0.00000  Uiso   1.00
O51    O     0.18591   0.16665   0.32681   0.00000  Uiso   1.00
O52    O     0.12843   0.10559   0.24999   0.00000  Uiso   1.00
O53    O     0.20488   0.10558   0.24999   0.00000  Uiso   1.00
O54    O     0.14742   0.16668   0.17319   0.00000  Uiso   1.00
O55    O     0.22387   0.16667   0.17319   0.00000  Uiso   1.00
Zn56   Zn    0.11562   0.16667   0.25000   0.00000  Uiso   1.00
Zn57   Zn    0.21771   0.16666   0.25000   0.00000  Uiso   1.00
C58    C     0.50000   0.24670   0.25004   0.00000  Uiso   1.00
C59    C     0.46146   0.18935   0.40598   0.00000  Uiso   1.00
C60    C     0.53687   0.31203   0.26163   0.00000  Uiso   1.00
C61    C     0.47476   0.17363   0.35056   0.00000  Uiso   1.00
C62    C     0.53688   0.02132   0.26158   0.00000  Uiso   1.00
C63    C     0.49993   0.04248   0.25017   0.00000  Uiso   1.00
C64    C     0.46294   0.02128   0.23889   0.00000  Uiso   1.00
C65    C     0.46294   0.31200   0.23891   0.00000  Uiso   1.00
C66    C     0.49994   0.29084   0.25021   0.00000  Uiso   1.00
C67    C     0.64764   0.13279   0.23237   0.00000  Uiso   1.00
C68    C     0.36224   0.13284   0.23226   0.00000  Uiso   1.00
C69    C     0.48269   0.19617   0.48794   0.00000  Uiso   1.00
C70    C     0.35241   0.20057   0.26751   0.00000  Uiso   1.00
C71    C     0.63797   0.20066   0.26713   0.00000  Uiso   1.00
C72    C     0.49997   0.08664   0.25005   0.00000  Uiso   1.00
C73    C     0.52590   0.16698   0.14828   0.00000  Uiso   1.00
C74    C     0.59854   0.16154   0.00334   0.00000  Uiso   1.00
C75    C     0.54084   0.17067   0.09061   0.00000  Uiso   1.00
C76    C     0.41348   0.19589   0.43481   0.00000  Uiso   1.00
C77    C     0.39985   0.20289   0.48969   0.00000  Uiso   1.00
C78    C     0.43359   0.20120   0.01661   0.00000  Uiso   1.00
C79    C     0.64138   0.14101   0.47103   0.00000  Uiso   1.00
C80    C     0.49655   0.19603   0.43167   0.00000  Uiso   1.00
C81    C     0.51842   0.18828   0.01244   0.00000  Uiso   1.00
C82    C     0.56601   0.17952   0.48027   0.00000  Uiso   1.00
C83    C     0.57972   0.18963   0.42611   0.00000  Uiso   1.00
C84    C     0.54541   0.20098   0.40320   0.00000  Uiso   1.00
C85    C     0.50768   0.18585   0.06759   0.00000  Uiso   1.00
C86    C     0.58589   0.15774   0.05875   0.00000  Uiso   1.00
H87    H     0.61043   0.14367   0.07689   0.00000  Uiso   1.00
H88    H     0.38648   0.19489   0.41500   0.00000  Uiso   1.00
H89    H     0.41993   0.20362   0.05955   0.00000  Uiso   1.00
H90    H     0.36258   0.20738   0.01195   0.00000  Uiso   1.00
H91    H     0.55761   0.21237   0.36268   0.00000  Uiso   1.00
H92    H     0.56545   0.29581   0.27087   0.00000  Uiso   1.00
H93    H     0.61633   0.22807   0.28046   0.00000  Uiso   1.00
H94    H     0.56549   0.03758   0.27076   0.00000  Uiso   1.00
H95    H     0.43433   0.03749   0.22968   0.00000  Uiso   1.00
H96    H     0.43434   0.29575   0.22971   0.00000  Uiso   1.00
H97    H     0.63359   0.10569   0.21811   0.00000  Uiso   1.00
H98    H     0.38429   0.10579   0.21786   0.00000  Uiso   1.00
H99    H     0.36648   0.22771   0.28166   0.00000  Uiso   1.00
H100   H     0.61677   0.18893   0.40147   0.00000  Uiso   1.00
H101   H     0.47343   0.19560   0.09365   0.00000  Uiso   1.00
N102   N     0.38093   0.16668   0.25001   0.00000  Uiso   1.00
N103   N     0.61906   0.16665   0.25000   0.00000  Uiso   1.00
N104   N     0.34180   0.12371   0.44528   0.00000  Uiso   1.00
O105   O     0.46179   0.22775   0.25000   0.00000  Uiso   1.00
O106   O     0.53823   0.22774   0.25000   0.00000  Uiso   1.00
O107   O     0.44280   0.16666   0.32681   0.00000  Uiso   1.00
O108   O     0.51924   0.16665   0.32681   0.00000  Uiso   1.00
O109   O     0.46177   0.10559   0.24999   0.00000  Uiso   1.00
O110   O     0.53821   0.10558   0.24999   0.00000  Uiso   1.00
O111   O     0.48076   0.16668   0.17319   0.00000  Uiso   1.00
O112   O     0.55720   0.16667   0.17319   0.00000  Uiso   1.00
Zn113  Zn    0.44896   0.16667   0.25000   0.00000  Uiso   1.00
Zn114  Zn    0.55104   0.16666   0.25000   0.00000  Uiso   1.00
C115   C     0.83334   0.24670   0.25004   0.00000  Uiso   1.00
C116   C     0.79480   0.18935   0.40598   0.00000  Uiso   1.00
C117   C     0.87021   0.31203   0.26163   0.00000  Uiso   1.00
C118   C     0.80809   0.17363   0.35056   0.00000  Uiso   1.00
C119   C     0.87022   0.02132   0.26158   0.00000  Uiso   1.00
C120   C     0.83327   0.04248   0.25017   0.00000  Uiso   1.00
C121   C     0.79627   0.02128   0.23889   0.00000  Uiso   1.00
C122   C     0.79627   0.31200   0.23891   0.00000  Uiso   1.00
C123   C     0.83327   0.29084   0.25021   0.00000  Uiso   1.00
C124   C     0.98097   0.13279   0.23237   0.00000  Uiso   1.00
C125   C     0.69558   0.13284   0.23226   0.00000  Uiso   1.00
C126   C     0.81603   0.19617   0.48794   0.00000  Uiso   1.00
C127   C     0.68574   0.20057   0.26751   0.00000  Uiso   1.00
C128   C     0.97131   0.20066   0.26713   0.00000  Uiso   1.00
C129   C     0.83330   0.08664   0.25005   0.00000  Uiso   1.00
C130   C     0.85923   0.16698   0.14828   0.00000  Uiso   1.00
C131   C     0.93187   0.16154   0.00334   0.00000  Uiso   1.00
C132   C     0.87417   0.17067   0.09061   0.00000  Uiso   1.00
C133   C     0.74682   0.19589   0.43481   0.00000  Uiso   1.00
C134   C     0.73318   0.20289   0.48969   0.00000  Uiso   1.00
C135   C     0.76693   0.20120   0.01661   0.00000  Uiso   1.00
C136   C     0.97471   0.14101   0.47103   0.00000  Uiso   1.00
C137   C     0.82989   0.19603   0.43167   0.00000  Uiso   1.00
C138   C     0.85175   0.18828   0.01244   0.00000  Uiso   1.00
C139   C     0.89934   0.17952   0.48027   0.00000  Uiso   1.00
C140   C     0.91306   0.18963   0.42611   0.00000  Uiso   1.00
C141   C     0.87874   0.20098   0.40320   0.00000  Uiso   1.00
C142   C     0.84102   0.18585   0.06759   0.00000  Uiso   1.00
C143   C     0.91922   0.15774   0.05875   0.00000  Uiso   1.00
H144   H     0.94376   0.14367   0.07689   0.00000  Uiso   1.00
H145   H     0.71982   0.19489   0.41500   0.00000  Uiso   1.00
H146   H     0.75326   0.20362   0.05955   0.00000  Uiso   1.00
H147   H     0.69591   0.20738   0.01195   0.00000  Uiso   1.00
H148   H     0.89095   0.21237   0.36268   0.00000  Uiso   1.00
H149   H     0.89878   0.29581   0.27087   0.00000  Uiso   1.00
H150   H     0.94966   0.22807   0.28046   0.00000  Uiso   1.00
H151   H     0.89882   0.03758   0.27076   0.00000  Uiso   1.00
H152   H     0.76767   0.03749   0.22968   0.00000  Uiso   1.00
H153   H     0.76767   0.29575   0.22971   0.00000  Uiso   1.00
H154   H     0.96692   0.10569   0.21811   0.00000  Uiso   1.00
H155   H     0.71763   0.10579   0.21786   0.00000  Uiso   1.00
H156   H     0.69982   0.22771   0.28166   0.00000  Uiso   1.00
H157   H     0.95010   0.18893   0.40147   0.00000  Uiso   1.00
H158   H     0.80677   0.19560   0.09365   0.00000  Uiso   1.00
N159   N     0.71426   0.16668   0.25001   0.00000  Uiso   1.00
N160   N     0.95239   0.16665   0.25000   0.00000  Uiso   1.00
N161   N     0.67513   0.12371   0.44528   0.00000  Uiso   1.00
O162   O     0.79512   0.22775   0.25000   0.00000  Uiso   1.00
O163   O     0.87157   0.22774   0.25000   0.00000  Uiso   1.00
O164   O     0.77613   0.16666   0.32681   0.00000  Uiso   1.00
O165   O     0.85258   0.16665   0.32681   0.00000  Uiso   1.00
O166   O     0.79510   0.10559   0.24999   0.00000  Uiso   1.00
O167   O     0.87154   0.10558   0.24999   0.00000  Uiso   1.00
O168   O     0.81409   0.16668   0.17319   0.00000  Uiso   1.00
O169   O     0.89053   0.16667   0.17319   0.00000  Uiso   1.00
Zn170  Zn    0.78229   0.16667   0.25000   0.00000  Uiso   1.00
Zn171  Zn    0.88438   0.16666   0.25000   0.00000  Uiso   1.00
C172   C     0.16667   0.58003   0.25004   0.00000  Uiso   1.00
C173   C     0.12813   0.52268   0.40598   0.00000  Uiso   1.00
C174   C     0.20354   0.64537   0.26163   0.00000  Uiso   1.00
C175   C     0.14143   0.50697   0.35056   0.00000  Uiso   1.00
C176   C     0.20355   0.35466   0.26158   0.00000  Uiso   1.00
C177   C     0.16660   0.37581   0.25017   0.00000  Uiso   1.00
C178   C     0.12960   0.35462   0.23889   0.00000  Uiso   1.00
C179   C     0.12961   0.64533   0.23891   0.00000  Uiso   1.00
C180   C     0.16661   0.62418   0.25021   0.00000  Uiso   1.00
C181   C     0.31430   0.46612   0.23237   0.00000  Uiso   1.00
C182   C     0.02891   0.46617   0.23226   0.00000  Uiso   1.00
C183   C     0.14936   0.52950   0.48794   0.00000  Uiso   1.00
C184   C     0.01908   0.53391   0.26751   0.00000  Uiso   1.00
C185   C     0.30464   0.53400   0.26713   0.00000  Uiso   1.00
C186   C     0.16664   0.41997   0.25005   0.00000  Uiso   1.00
C187   C     0.19257   0.50031   0.14828   0.00000  Uiso   1.00
C188   C     0.26520   0.49487   0.00334   0.00000  Uiso   1.00
C189   C     0.20751   0.50401   0.09061   0.00000  Uiso   1.00
C190   C     0.08015   0.52922   0.43481   0.00000  Uiso   1.00
C191   C     0.06651   0.53622   0.48969   0.00000  Uiso   1.00
C192   C     0.10026   0.53454   0.01661   0.00000  Uiso   1.00
C193   C     0.30805   0.47434   0.47103   0.00000  Uiso   1.00
C194   C     0.16322   0.52936   0.43167   0.00000  Uiso   1.00
C195   C     0.18508   0.52161   0.01244   0.00000  Uiso   1.00
C196   C     0.23268   0.51285   0.48027   0.00000  Uiso   1.00
C197   C     0.24639   0.52296   0.42611   0.00000  Uiso   1.00
C198   C     0.21208   0.53431   0.40320   0.00000  Uiso   1.00
C199   C     0.17435   0.51918   0.06759   0.00000  Uiso   1.00
C200   C     0.25256   0.49108   0.05875   0.00000  Uiso   1.00
H201   H     0.27710   0.47701   0.07689   0.00000  Uiso   1.00
H202   H     0.05315   0.52822   0.41500   0.00000  Uiso   1.00
H203   H     0.08659   0.53695   0.05955   0.00000  Uiso   1.00
H204   H     0.02924   0.54071   0.01195   0.00000  Uiso   1.00
H205   H     0.22428   0.54571   0.36268   0.00000  Uiso   1.00
H206   H     0.23212   0.62914   0.27087   0.00000  Uiso   1.00
H207   H     0.28299   0.56140   0.28046   0.00000  Uiso   1.00
H208   H     0.23216   0.37091   0.27076   0.00000  Uiso   1.00
H209   H     0.10100   0.37083   0.22968   0.00000  Uiso   1.00
H210   H     0.10100   0.62908   0.22971   0.00000  Uiso   1.00
H211   H     0.30026   0.43902   0.21811   0.00000  Uiso   1.00
H212   H     0.05096   0.43913   0.21786   0.00000  Uiso   1.00
H213   H     0.03315   0.56104   0.28166   0.00000  Uiso   1.00
H214   H     0.28344   0.52227   0.40147   0.00000  Uiso   1.00
H215   H     0.14010   0.52893   0.09365   0.00000  Uiso   1.00
N216   N     0.04760   0.50001   0.25001   0.00000  Uiso   1.00
N217   N     0.28573   0.49998   0.25000   0.00000  Uiso   1.00
N218   N     0.00847   0.45705   0.44528   0.00000  Uiso   1.00
O219   O     0.12846   0.56108   0.25000   0.00000  Uiso   1.00
O220   O     0.20490   0.56107   0.25000   0.00000  Uiso   1.00
O221   O     0.10947   0.50000   0.32681   0.00000  Uiso   1.00
O222   O     0.18591   0.49999   0.32681   0.00000  Uiso   1.00
O223   O     0.12843   0.43893   0.24999   0.00000  Uiso   1.00
O224   O     0.20488   0.43892   0.24999   0.00000  Uiso   1.00
O225   O     0.14742   0.50001   0.17319   0.00000  Uiso   1.00
O226   O     0.22387   0.50000   0.17319   0.00000  Uiso   1.00
Zn227  Zn    0.11562   0.50001   0.25000   0.00000  Uiso   1.00
Zn228  Zn    0.21771   0.49999   0.25000   0.00000  Uiso   1.00
C229   C     0.50000   0.58003   0.25004   0.00000  Uiso   1.00
C230   C     0.46146   0.52268   0.40598   0.00000  Uiso   1.00
C231   C     0.53687   0.64537   0.26163   0.00000  Uiso   1.00
C232   C     0.47476   0.50697   0.35056   0.00000  Uiso   1.00
C233   C     0.53688   0.35466   0.26158   0.00000  Uiso   1.00
C234   C     0.49993   0.37581   0.25017   0.00000  Uiso   1.00
C235   C     0.46294   0.35462   0.23889   0.00000  Uiso   1.00
C236   C     0.46294   0.64533   0.23891   0.00000  Uiso   1.00
C237   C     0.49994   0.62418   0.25021   0.00000  Uiso   1.00
C238   C     0.64764   0.46612   0.23237   0.00000  Uiso   1.00
C239   C     0.36224   0.46617   0.23226   0.00000  Uiso   1.00
C240   C     0.48269   0.52950   0.48794   0.00000  Uiso   1.00
C241   C     0.35241   0.53391   0.26751   0.00000  Uiso   1.00
C242   C     0.63797   0.53400   0.26713   0.00000  Uiso   1.00
C243   C     0.49997   0.41997   0.25005   0.00000  Uiso   1.00
C244   C     0.52590   0.50031   0.14828   0.00000  Uiso   1.00
C245   C     0.59854   0.49487   0.00334   0.00000  Uiso   1.00
C246   C     0.54084   0.50401   0.09061   0.00000  Uiso   1.00
C247   C     0.41348   0.52922   0.43481   0.00000  Uiso   1.00
C248   C     0.39985   0.53622   0.48969   0.00000  Uiso   1.00
C249   C     0.43359   0.53454   0.01661   0.00000  Uiso   1.00
C250   C     0.64138   0.47434   0.47103   0.00000  Uiso   1.00
C251   C     0.49655   0.52936   0.43167   0.00000  Uiso   1.00
C252   C     0.51842   0.52161   0.01244   0.00000  Uiso   1.00
C253   C     0.56601   0.51285   0.48027   0.00000  Uiso   1.00
C254   C     0.57972   0.52296   0.42611   0.00000  Uiso   1.00
C255   C     0.54541   0.53431   0.40320   0.00000  Uiso   1.00
C256   C     0.50768   0.51918   0.06759   0.00000  Uiso   1.00
C257   C     0.58589   0.49108   0.05875   0.00000  Uiso   1.00
H258   H     0.61043   0.47701   0.07689   0.00000  Uiso   1.00
H259   H     0.38648   0.52822   0.41500   0.00000  Uiso   1.00
H260   H     0.41993   0.53695   0.05955   0.00000  Uiso   1.00
H261   H     0.36258   0.54071   0.01195   0.00000  Uiso   1.00
H262   H     0.55761   0.54571   0.36268   0.00000  Uiso   1.00
H263   H     0.56545   0.62914   0.27087   0.00000  Uiso   1.00
H264   H     0.61633   0.56140   0.28046   0.00000  Uiso   1.00
H265   H     0.56549   0.37091   0.27076   0.00000  Uiso   1.00
H266   H     0.43433   0.37083   0.22968   0.00000  Uiso   1.00
H267   H     0.43434   0.62908   0.22971   0.00000  Uiso   1.00
H268   H     0.63359   0.43902   0.21811   0.00000  Uiso   1.00
H269   H     0.38429   0.43913   0.21786   0.00000  Uiso   1.00
H270   H     0.36648   0.56104   0.28166   0.00000  Uiso   1.00
H271   H     0.61677   0.52227   0.40147   0.00000  Uiso   1.00
H272   H     0.47343   0.52893   0.09365   0.00000  Uiso   1.00
N273   N     0.38093   0.50001   0.25001   0.00000  Uiso   1.00
N274   N     0.61906   0.49998   0.25000   0.00000  Uiso   1.00
N275   N     0.34180   0.45705   0.44528   0.00000  Uiso   1.00
O276   O     0.46179   0.56108   0.25000   0.00000  Uiso   1.00
O277   O     0.53823   0.56107   0.25000   0.00000  Uiso   1.00
O278   O     0.44280   0.50000   0.32681   0.00000  Uiso   1.00
O279   O     0.51924   0.49999   0.32681   0.00000  Uiso   1.00
O280   O     0.46177   0.43893   0.24999   0.00000  Uiso   1.00
O281   O     0.53821   0.43892   0.24999   0.00000  Uiso   1.00
O282   O     0.48076   0.50001   0.17319   0.00000  Uiso   1.00
O283   O     0.55720   0.50000   0.17319   0.00000  Uiso   1.00
Zn284  Zn    0.44896   0.50001   0.25000   0.00000  Uiso   1.00
Zn285  Zn    0.55104   0.49999   0.25000   0.00000  Uiso   1.00
C286   C     0.83334   0.58003   0.25004   0.00000  Uiso   1.00
C287   C     0.79480   0.52268   0.40598   0.00000  Uiso   1.00
C288   C     0.87021   0.64537   0.26163   0.00000  Uiso   1.00
C289   C     0.80809   0.50697   0.35056   0.00000  Uiso   1.00
C290   C     0.87022   0.35466   0.26158   0.00000  Uiso   1.00
C291   C     0.83327   0.37581   0.25017   0.00000  Uiso   1.00
C292   C     0.79627   0.35462   0.23889   0.00000  Uiso   1.00
C293   C     0.79627   0.64533   0.23891   0.00000  Uiso   1.00
C294   C     0.83327   0.62418   0.25021   0.00000  Uiso   1.00
C295   C     0.98097   0.46612   0.23237   0.00000  Uiso   1.00
C296   C     0.69558   0.46617   0.23226   0.00000  Uiso   1.00
C297   C     0.81603   0.52950   0.48794   0.00000  Uiso   1.00
C298   C     0.68574   0.53391   0.26751   0.00000  Uiso   1.00
C299   C     0.97131   0.53400   0.26713   0.00000  Uiso   1.00
C300   C     0.83330   0.41997   0.25005   0.00000  Uiso   1.00
C301   C     0.85923   0.50031   0.14828   0.00000  Uiso   1.00
C302   C     0.93187   0.49487   0.00334   0.00000  Uiso   1.00
C303   C     0.87417   0.50401   0.09061   0.00000  Uiso   1.00
C304   C     0.74682   0.52922   0.43481   0.00000  Uiso   1.00
C305   C     0.73318   0.53622   0.48969   0.00000  Uiso   1.00
C306   C     0.76693   0.53454   0.01661   0.00000  Uiso   1.00
C307   C     0.97471   0.47434   0.47103   0.00000  Uiso   1.00
C308   C     0.82989   0.52936   0.43167   0.00000  Uiso   1.00
C309   C     0.85175   0.52161   0.01244   0.00000  Uiso   1.00
C310   C     0.89934   0.51285   0.48027   0.00000  Uiso   1.00
C311   C     0.91306   0.52296   0.42611   0.00000  Uiso   1.00
C312   C     0.87874   0.53431   0.40320   0.00000  Uiso   1.00
C313   C     0.84102   0.51918   0.06759   0.00000  Uiso   1.00
C314   C     0.91922   0.49108   0.05875   0.00000  Uiso   1.00
H315   H     0.94376   0.47701   0.07689   0.00000  Uiso   1.00
H316   H     0.71982   0.52822   0.41500   0.00000  Uiso   1.00
H317   H     0.75326   0.53695   0.05955   0.00000  Uiso   1.00
H318   H     0.69591   0.54071   0.01195   0.00000  Uiso   1.00
H319   H     0.89095   0.54571   0.36268   0.00000  Uiso   1.00
H320   H     0.89878   0.62914   0.27087   0.00000  Uiso   1.00
H321   H     0.94966   0.56140   0.28046   0.00000  Uiso   1.00
H322   H     0.89882   0.37091   0.27076   0.00000  Uiso   1.00
H323   H     0.76767   0.37083   0.22968   0.00000  Uiso   1.00
H324   H     0.76767   0.62908   0.22971   0.00000  Uiso   1.00
H325   H     0.96692   0.43902   0.21811   0.00000  Uiso   1.00
H326   H     0.71763   0.43913   0.21786   0.00000  Uiso   1.00
H327   H     0.69982   0.56104   0.28166   0.00000  Uiso   1.00
H328   H     0.95010   0.52227   0.40147   0.00000  Uiso   1.00
H329   H     0.80677   0.52893   0.09365   0.00000  Uiso   1.00
N330   N     0.71426   0.50001   0.25001   0.00000  Uiso   1.00
N331   N     0.95239   0.49998   0.25000   0.00000  Uiso   1.00
N332   N     0.67513   0.45705   0.44528   0.00000  Uiso   1.00
O333   O     0.79512   0.56108   0.25000   0.00000  Uiso   1.00
O334   O     0.87157   0.56107   0.25000   0.00000  Uiso   1.00
O335   O     0.77613   0.50000   0.32681   0.00000  Uiso   1.00
O336   O     0.85258   0.49999   0.32681   0.00000  Uiso   1.00
O337   O     0.79510   0.43893   0.24999   0.00000  Uiso   1.00
O338   O     0.87154   0.43892   0.24999   0.00000  Uiso   1.00
O339   O     0.81409   0.50001   0.17319   0.00000  Uiso   1.00
O340   O     0.89053   0.50000   0.17319   0.00000  Uiso   1.00
Zn341  Zn    0.78229   0.50001   0.25000   0.00000  Uiso   1.00
Zn342  Zn    0.88438   0.49999   0.25000   0.00000  Uiso   1.00
C343   C     0.16667   0.91337   0.25004   0.00000  Uiso   1.00
C344   C     0.12813   0.85602   0.40598   0.00000  Uiso   1.00
C345   C     0.20354   0.97870   0.26163   0.00000  Uiso   1.00
C346   C     0.14143   0.84030   0.35056   0.00000  Uiso   1.00
C347   C     0.20355   0.68799   0.26158   0.00000  Uiso   1.00
C348   C     0.16660   0.70915   0.25017   0.00000  Uiso   1.00
C349   C     0.12960   0.68795   0.23889   0.00000  Uiso   1.00
C350   C     0.12961   0.97867   0.23891   0.00000  Uiso   1.00
C351   C     0.16661   0.95751   0.25021   0.00000  Uiso   1.00
C352   C     0.31430   0.79945   0.23237   0.00000  Uiso   1.00
C353   C     0.02891   0.79951   0.23226   0.00000  Uiso   1.00
C354   C     0.14936   0.86284   0.48794   0.00000  Uiso   1.00
C355   C     0.01908   0.86724   0.26751   0.00000  Uiso   1.00
C356   C     0.30464   0.86733   0.26713   0.00000  Uiso   1.00
C357   C     0.16664   0.75330   0.25005   0.00000  Uiso   1.00
C358   C     0.19257   0.83365   0.14828   0.00000  Uiso   1.00
C359   C     0.26520   0.82821   0.00334   0.00000  Uiso   1.00
C360   C     0.20751   0.83734   0.09061   0.00000  Uiso   1.00
C361   C     0.08015   0.86256   0.43481   0.00000  Uiso   1.00
C362   C     0.06651   0.86955   0.48969   0.00000  Uiso   1.00
C363   C     0.10026   0.86787   0.01661   0.00000  Uiso   1.00
C364   C     0.30805   0.80768   0.47103   0.00000  Uiso   1.00
C365   C     0.16322   0.86269   0.43167   0.00000  Uiso   1.00
C366   C     0.18508   0.85494   0.01244   0.00000  Uiso   1.00
C367   C     0.23268   0.84619   0.48027   0.00000  Uiso   1.00
C368   C     0.24639   0.85629   0.42611   0.00000  Uiso   1.00
C369   C     0.21208   0.86764   0.40320   0.00000  Uiso   1.00
C370   C     0.17435   0.85251   0.06759   0.00000  Uiso   1.00
C371   C     0.25256   0.82441   0.05875   0.00000  Uiso   1.00
H372   H     0.27710   0.81034   0.07689   0.00000  Uiso   1.00
H373   H     0.05315   0.86155   0.41500   0.00000  Uiso   1.00
H374   H     0.08659   0.87028   0.05955   0.00000  Uiso   1.00
H375   H     0.02924   0.87405   0.01195   0.00000  Uiso   1.00
H376   H     0.22428   0.87904   0.36268   0.00000  Uiso   1.00
H377   H     0.23212   0.96247   0.27087   0.00000  Uiso   1.00
H378   H     0.28299   0.89473   0.28046   0.00000  Uiso   1.00
H379   H     0.23216   0.70425   0.27076   0.00000  Uiso   1.00
H380   H     0.10100   0.70416   0.22968   0.00000  Uiso   1.00
H381   H     0.10100   0.96242   0.22971   0.00000  Uiso   1.00
H382   H     0.30026   0.77235   0.21811   0.00000  Uiso   1.00
H383   H     0.05096   0.77246   0.21786   0.00000  Uiso   1.00
H384   H     0.03315   0.89437   0.28166   0.00000  Uiso   1.00
H385   H     0.28344   0.85560   0.40147   0.00000  Uiso   1.00
H386   H     0.14010   0.86226   0.09365   0.00000  Uiso   1.00
N387   N     0.04760   0.83334   0.25001   0.00000  Uiso   1.00
N388   N     0.28573   0.83331   0.25000   0.00000  Uiso   1.00
N389   N     0.00847   0.79038   0.44528   0.00000  Uiso   1.00
O390   O     0.12846   0.89442   0.25000   0.00000  Uiso   1.00
O391   O     0.20490   0.89441   0.25000   0.00000  Uiso   1.00
O392   O     0.10947   0.83333   0.32681   0.00000  Uiso   1.00
O393   O     0.18591   0.83332   0.32681   0.00000  Uiso   1.00
O394   O     0.12843   0.77226   0.24999   0.00000  Uiso   1.00
O395   O     0.20488   0.77225   0.24999   0.00000  Uiso   1.00
O396   O     0.14742   0.83335   0.17319   0.00000  Uiso   1.00
O397   O     0.22387   0.83334   0.17319   0.00000  Uiso   1.00
Zn398  Zn    0.11562   0.83334   0.25000   0.00000  Uiso   1.00
Zn399  Zn    0.21771   0.83333   0.25000   0.00000  Uiso   1.00
C400   C     0.50000   0.91337   0.25004   0.00000  Uiso   1.00
C401   C     0.46146   0.85602   0.40598   0.00000  Uiso   1.00
C402   C     0.53687   0.97870   0.26163   0.00000  Uiso   1.00
C403   C     0.47476   0.84030   0.35056   0.00000  Uiso   1.00
C404   C     0.53688   0.68799   0.26158   0.00000  Uiso   1.00
C405   C     0.49993   0.70915   0.25017   0.00000  Uiso   1.00
C406   C     0.46294   0.68795   0.23889   0.00000  Uiso   1.00
C407   C     0.46294   0.97867   0.23891   0.00000  Uiso   1.00
C408   C     0.49994   0.95751   0.25021   0.00000  Uiso   1.00
C409   C     0.64764   0.79945   0.23237   0.00000  Uiso   1.00
C410   C     0.36224   0.79951   0.23226   0.00000  Uiso   1.00
C411   C     0.48269   0.86284   0.48794   0.00000  Uiso   1.00
C412   C     0.35241   0.86724   0.26751   0.00000  Uiso   1.00
C413   C     0.63797   0.86733   0.26713   0.00000  Uiso   1.00
C414   C     0.49997   0.75330   0.25005   0.00000  Uiso   1.00
C415   C     0.52590   0.83365   0.14828   0.00000  Uiso   1.00
C416   C     0.59854   0.82821   0.00334   0.00000  Uiso   1.00
C417   C     0.54084   0.83734   0.09061   0.00000  Uiso   1.00
C418   C     0.41348   0.86256   0.43481   0.00000  Uiso   1.00
C419   C     0.39985   0.86955   0.48969   0.00000  Uiso   1.00
C420   C     0.43359   0.86787   0.01661   0.00000  Uiso   1.00
C421   C     0.64138   0.80768   0.47103   0.00000  Uiso   1.00
C422   C     0.49655   0.86269   0.43167   0.00000  Uiso   1.00
C423   C     0.51842   0.85494   0.01244   0.00000  Uiso   1.00
C424   C     0.56601   0.84619   0.48027   0.00000  Uiso   1.00
C425   C     0.57972   0.85629   0.42611   0.00000  Uiso   1.00
C426   C     0.54541   0.86764   0.40320   0.00000  Uiso   1.00
C427   C     0.50768   0.85251   0.06759   0.00000  Uiso   1.00
C428   C     0.58589   0.82441   0.05875   0.00000  Uiso   1.00
H429   H     0.61043   0.81034   0.07689   0.00000  Uiso   1.00
H430   H     0.38648   0.86155   0.41500   0.00000  Uiso   1.00
H431   H     0.41993   0.87028   0.05955   0.00000  Uiso   1.00
H432   H     0.36258   0.87405   0.01195   0.00000  Uiso   1.00
H433   H     0.55761   0.87904   0.36268   0.00000  Uiso   1.00
H434   H     0.56545   0.96247   0.27087   0.00000  Uiso   1.00
H435   H     0.61633   0.89473   0.28046   0.00000  Uiso   1.00
H436   H     0.56549   0.70425   0.27076   0.00000  Uiso   1.00
H437   H     0.43433   0.70416   0.22968   0.00000  Uiso   1.00
H438   H     0.43434   0.96242   0.22971   0.00000  Uiso   1.00
H439   H     0.63359   0.77235   0.21811   0.00000  Uiso   1.00
H440   H     0.38429   0.77246   0.21786   0.00000  Uiso   1.00
H441   H     0.36648   0.89437   0.28166   0.00000  Uiso   1.00
H442   H     0.61677   0.85560   0.40147   0.00000  Uiso   1.00
H443   H     0.47343   0.86226   0.09365   0.00000  Uiso   1.00
N444   N     0.38093   0.83334   0.25001   0.00000  Uiso   1.00
N445   N     0.61906   0.83331   0.25000   0.00000  Uiso   1.00
N446   N     0.34180   0.79038   0.44528   0.00000  Uiso   1.00
O447   O     0.46179   0.89442   0.25000   0.00000  Uiso   1.00
O448   O     0.53823   0.89441   0.25000   0.00000  Uiso   1.00
O449   O     0.44280   0.83333   0.32681   0.00000  Uiso   1.00
O450   O     0.51924   0.83332   0.32681   0.00000  Uiso   1.00
O451   O     0.46177   0.77226   0.24999   0.00000  Uiso   1.00
O452   O     0.53821   0.77225   0.24999   0.00000  Uiso   1.00
O453   O     0.48076   0.83335   0.17319   0.00000  Uiso   1.00
O454   O     0.55720   0.83334   0.17319   0.00000  Uiso   1.00
Zn455  Zn    0.44896   0.83334   0.25000   0.00000  Uiso   1.00
Zn456  Zn    0.55104   0.83333   0.25000   0.00000  Uiso   1.00
C457   C     0.83334   0.91337   0.25004   0.00000  Uiso   1.00
C458   C     0.79480   0.85602   0.40598   0.00000  Uiso   1.00
C459   C     0.87021   0.97870   0.26163   0.00000  Uiso   1.00
C460   C     0.80809   0.84030   0.35056   0.00000  Uiso   1.00
C461   C     0.87022   0.68799   0.26158   0.00000  Uiso   1.00
C462   C     0.83327   0.70915   0.25017   0.00000  Uiso   1.00
C463   C     0.79627   0.68795   0.23889   0.00000  Uiso   1.00
C464   C     0.79627   0.97867   0.23891   0.00000  Uiso   1.00
C465   C     0.83327   0.95751   0.25021   0.00000  Uiso   1.00
C466   C     0.98097   0.79945   0.23237   0.00000  Uiso   1.00
C467   C     0.69558   0.79951   0.23226   0.00000  Uiso   1.00
C468   C     0.81603   0.86284   0.48794   0.00000  Uiso   1.00
C469   C     0.68574   0.86724   0.26751   0.00000  Uiso   1.00
C470   C     0.97131   0.86733   0.26713   0.00000  Uiso   1.00
C471   C     0.83330   0.75330   0.25005   0.00000  Uiso   1.00
C472   C     0.85923   0.83365   0.14828   0.00000  Uiso   1.00
C473   C     0.93187   0.82821   0.00334   0.00000  Uiso   1.00
C474   C     0.87417   0.83734   0.09061   0.00000  Uiso   1.00
C475   C     0.74682   0.86256   0.43481   0.00000  Uiso   1.00
C476   C     0.73318   0.86955   0.48969   0.00000  Uiso   1.00
C477   C     0.76693   0.86787   0.01661   0.00000  Uiso   1.00
C478   C     0.97471   0.80768   0.47103   0.00000  Uiso   1.00
C479   C     0.82989   0.86269   0.43167   0.00000  Uiso   1.00
C480   C     0.85175   0.85494   0.01244   0.00000  Uiso   1.00
C481   C     0.89934   0.84619   0.48027   0.00000  Uiso   1.00
C482   C     0.91306   0.85629   0.42611   0.00000  Uiso   1.00
C483   C     0.87874   0.86764   0.40320   0.00000  Uiso   1.00
C484   C     0.84102   0.85251   0.06759   0.00000  Uiso   1.00
C485   C     0.91922   0.82441   0.05875   0.00000  Uiso   1.00
H486   H     0.94376   0.81034   0.07689   0.00000  Uiso   1.00
H487   H     0.71982   0.86155   0.41500   0.00000  Uiso   1.00
H488   H     0.75326   0.87028   0.05955   0.00000  Uiso   1.00
H489   H     0.69591   0.87405   0.01195   0.00000  Uiso   1.00
H490   H     0.89095   0.87904   0.36268   0.00000  Uiso   1.00
H491   H     0.89878   0.96247   0.27087   0.00000  Uiso   1.00
H492   H     0.94966   0.89473   0.28046   0.00000  Uiso   1.00
H493   H     0.89882   0.70425   0.27076   0.00000  Uiso   1.00
H494   H     0.76767   0.70416   0.22968   0.00000  Uiso   1.00
H495   H     0.76767   0.96242   0.22971   0.00000  Uiso   1.00
H496   H     0.96692   0.77235   0.21811   0.00000  Uiso   1.00
H497   H     0.71763   0.77246   0.21786   0.00000  Uiso   1.00
H498   H     0.69982   0.89437   0.28166   0.00000  Uiso   1.00
H499   H     0.95010   0.85560   0.40147   0.00000  Uiso   1.00
H500   H     0.80677   0.86226   0.09365   0.00000  Uiso   1.00
N501   N     0.71426   0.83334   0.25001   0.00000  Uiso   1.00
N502   N     0.95239   0.83331   0.25000   0.00000  Uiso   1.00
N503   N     0.67513   0.79038   0.44528   0.00000  Uiso   1.00
O504   O     0.79512   0.89442   0.25000   0.00000  Uiso   1.00
O505   O     0.87157   0.89441   0.25000   0.00000  Uiso   1.00
O506   O     0.77613   0.83333   0.32681   0.00000  Uiso   1.00
O507   O     0.85258   0.83332   0.32681   0.00000  Uiso   1.00
O508   O     0.79510   0.77226   0.24999   0.00000  Uiso   1.00
O509   O     0.87154   0.77225   0.24999   0.00000  Uiso   1.00
O510   O     0.81409   0.83335   0.17319   0.00000  Uiso   1.00
O511   O     0.89053   0.83334   0.17319   0.00000  Uiso   1.00
Zn512  Zn    0.78229   0.83334   0.25000   0.00000  Uiso   1.00
Zn513  Zn    0.88438   0.83333   0.25000   0.00000  Uiso   1.00
C514   C     0.16667   0.24670   0.75004   0.00000  Uiso   1.00
C515   C     0.12813   0.18935   0.90598   0.00000  Uiso   1.00
C516   C     0.20354   0.31203   0.76163   0.00000  Uiso   1.00
C517   C     0.14143   0.17363   0.85056   0.00000  Uiso   1.00
C518   C     0.20355   0.02132   0.76158   0.00000  Uiso   1.00
C519   C     0.16660   0.04248   0.75017   0.00000  Uiso   1.00
C520   C     0.12960   0.02128   0.73889   0.00000  Uiso   1.00
C521   C     0.12961   0.31200   0.73891   0.00000  Uiso   1.00
C522   C     0.16661   0.29084   0.75021   0.00000  Uiso   1.00
C523   C     0.31430   0.13279   0.73237   0.00000  Uiso   1.00
C524   C     0.02891   0.13284   0.73226   0.00000  Uiso   1.00
C525   C     0.14936   0.19617   0.98794   0.00000  Uiso   1.00
C526   C     0.01908   0.20057   0.76751   0.00000  Uiso   1.00
C527   C     0.30464   0.20066   0.76713   0.00000  Uiso   1.00
C528   C     0.16664   0.08664   0.75005   0.00000  Uiso   1.00
C529   C     0.19257   0.16698   0.64828   0.00000  Uiso   1.00
C530   C     0.26520   0.16154   0.50334   0.00000  Uiso   1.00
C531   C     0.20751   0.17067   0.59061   0.00000  Uiso   1.00
C532   C     0.08015   0.19589   0.93481   0.00000  Uiso   1.00
C533   C     0.06651   0.20289   0.98969   0.00000  Uiso   1.00
C534   C     0.10026   0.20120   0.51661   0.00000  Uiso   1.00
C535   C     0.30805   0.14101   0.97103   0.00000  Uiso   1.00
C536   C     0.16322   0.19603   0.93167   0.00000  Uiso   1.00
C537   C     0.18508   0.18828   0.51244   0.00000  Uiso   1.00
C538   C     0.23268   0.17952   0.98027   0.00000  Uiso   1.00
C539   C     0.24639   0.18963   0.92611   0.00000  Uiso   1.00
C540   C     0.21208   0.20098   0.90320   0.00000  Uiso   1.00
C541   C     0.17435   0.18585   0.56759   0.00000  Uiso   1.00
C542   C     0.25256   0.15774   0.55875   0.00000  Uiso   1.00
H543   H     0.27710   0.14367   0.57689   0.00000  Uiso   1.00
H544   H     0.05315   0.19489   0.91500   0.00000  Uiso   1.00
H545   H     0.08659   0.20362   0.55955   0.00000  Uiso   1.00
H546   H     0.02924   0.20738   0.51195   0.00000  Uiso   1.00
H547   H     0.22428   0.21237   0.86268   0.00000  Uiso   1.00
H548   H     0.23212   0.29581   0.77087   0.00000  Uiso   1.00
H549   H     0.28299   0.22807   0.78046   0.00000  Uiso   1.00
H550   H     0.23216   0.03758   0.77076   0.00000  Uiso   1.00
H551   H     0.10100   0.03749   0.72968   0.00000  Uiso   1.00
H552   H     0.10100   0.29575   0.72971   0.00000  Uiso   1.00
H553   H     0.30026   0.10569   0.71811   0.00000  Uiso   1.00
H554   H     0.05096   0.10579   0.71786   0.00000  Uiso   1.00
H555   H     0.03315   0.22771   0.78166   0.00000  Uiso   1.00
H556   H     0.28344   0.18893   0.90147   0.00000  Uiso   1.00
H557   H     0.14010   0.19560   0.59365   0.00000  Uiso   1.00
N558   N     0.04760   0.16668   0.75001   0.00000  Uiso   1.00
N559   N     0.28573   0.16665   0.75000   0.00000  Uiso   1.00
N560   N     0.00847   0.12371   0.94528   0.00000  Uiso   1.00
O561   O     0.12846   0.22775   0.75000   0.00000  Uiso   1.00
O562   O     0.20490   0.22774   0.75000   0.00000  Uiso   1.00
O563   O     0.10947   0.16666   0.82681   0.00000  Uiso   1.00
O564   O     0.18591   0.16665   0.82681   0.00000  Uiso   1.00
O565   O     0.12843   0.10559   0.74999   0.00000  Uiso   1.00
O566   O     0.20488   0.10558   0.74999   0.00000  Uiso   1.00
O567   O     0.14742   0.16668   0.67319   0.00000  Uiso   1.00
O568   O     0.22387   0.16667   0.67319   0.00000  Uiso   1.00
Zn569  Zn    0.11562   0.16667   0.75000   0.00000  Uiso   1.00
Zn570  Zn    0.21771   0.16666   0.75000   0.00000  Uiso   1.00
C571   C     0.50000   0.24670   0.75004   0.00000  Uiso   1.00
C572   C     0.46146   0.18935   0.90598   0.00000  Uiso   1.00
C573   C     0.53687   0.31203   0.76163   0.00000  Uiso   1.00
C574   C     0.47476   0.17363   0.85056   0.00000  Uiso   1.00
C575   C     0.53688   0.02132   0.76158   0.00000  Uiso   1.00
C576   C     0.49993   0.04248   0.75017   0.00000  Uiso   1.00
C577   C     0.46294   0.02128   0.73889   0.00000  Uiso   1.00
C578   C     0.46294   0.31200   0.73891   0.00000  Uiso   1.00
C579   C     0.49994   0.29084   0.75021   0.00000  Uiso   1.00
C580   C     0.64764   0.13279   0.73237   0.00000  Uiso   1.00
C581   C     0.36224   0.13284   0.73226   0.00000  Uiso   1.00
C582   C     0.48269   0.19617   0.98794   0.00000  Uiso   1.00
C583   C     0.35241   0.20057   0.76751   0.00000  Uiso   1.00
C584   C     0.63797   0.20066   0.76713   0.00000  Uiso   1.00
C585   C     0.49997   0.08664   0.75005   0.00000  Uiso   1.00
C586   C     0.52590   0.16698   0.64828   0.00000  Uiso   1.00
C587   C     0.59854   0.16154   0.50334   0.00000  Uiso   1.00
C588   C     0.54084   0.17067   0.59061   0.00000  Uiso   1.00
C589   C     0.41348   0.19589   0.93481   0.00000  Uiso   1.00
C590   C     0.39985   0.20289   0.98969   0.00000  Uiso   1.00
C591   C     0.43359   0.20120   0.51661   0.00000  Uiso   1.00
C592   C     0.64138   0.14101   0.97103   0.00000  Uiso   1.00
C593   C     0.49655   0.19603   0.93167   0.00000  Uiso   1.00
C594   C     0.51842   0.18828   0.51244   0.00000  Uiso   1.00
C595   C     0.56601   0.17952   0.98027   0.00000  Uiso   1.00
C596   C     0.57972   0.18963   0.92611   0.00000  Uiso   1.00
C597   C     0.54541   0.20098   0.90320   0.00000  Uiso   1.00
C598   C     0.50768   0.18585   0.56759   0.00000  Uiso   1.00
C599   C     0.58589   0.15774   0.55875   0.00000  Uiso   1.00
H600   H     0.61043   0.14367   0.57689   0.00000  Uiso   1.00
H601   H     0.38648   0.19489   0.91500   0.00000  Uiso   1.00
H602   H     0.41993   0.20362   0.55955   0.00000  Uiso   1.00
H603   H     0.36258   0.20738   0.51195   0.00000  Uiso   1.00
H604   H     0.55761   0.21237   0.86268   0.00000  Uiso   1.00
H605   H     0.56545   0.29581   0.77087   0.00000  Uiso   1.00
H606   H     0.61633   0.22807   0.78046   0.00000  Uiso   1.00
H607   H     0.56549   0.03758   0.77076   0.00000  Uiso   1.00
H608   H     0.43433   0.03749   0.72968   0.00000  Uiso   1.00
H609   H     0.43434   0.29575   0.72971   0.00000  Uiso   1.00
H610   H     0.63359   0.10569   0.71811   0.00000  Uiso   1.00
H611   H     0.38429   0.10579   0.71786   0.00000  Uiso   1.00
H612   H     0.36648   0.22771   0.78166   0.00000  Uiso   1.00
H613   H     0.61677   0.18893   0.90147   0.00000  Uiso   1.00
H614   H     0.47343   0.19560   0.59365   0.00000  Uiso   1.00
N615   N     0.38093   0.16668   0.75001   0.00000  Uiso   1.00
N616   N     0.61906   0.16665   0.75000   0.00000  Uiso   1.00
N617   N     0.34180   0.12371   0.94528   0.00000  Uiso   1.00
O618   O     0.46179   0.22775   0.75000   0.00000  Uiso   1.00
O619   O     0.53823   0.22774   0.75000   0.00000  Uiso   1.00
O620   O     0.44280   0.16666   0.82681   0.00000  Uiso   1.00
O621   O     0.51924   0.16665   0.82681   0.00000  Uiso   1.00
O622   O     0.46177   0.10559   0.74999   0.00000  Uiso   1.00
O623   O     0.53821   0.10558   0.74999   0.00000  Uiso   1.00
O624   O     0.48076   0.16668   0.67319   0.00000  Uiso   1.00
O625   O     0.55720   0.16667   0.67319   0.00000  Uiso   1.00
Zn626  Zn    0.44896   0.16667   0.75000   0.00000  Uiso   1.00
Zn627  Zn    0.55104   0.16666   0.75000   0.00000  Uiso   1.00
C628   C     0.83334   0.24670   0.75004   0.00000  Uiso   1.00
C629   C     0.79480   0.18935   0.90598   0.00000  Uiso   1.00
C630   C     0.87021   0.31203   0.76163   0.00000  Uiso   1.00
C631   C     0.80809   0.17363   0.85056   0.00000  Uiso   1.00
C632   C     0.87022   0.02132   0.76158   0.00000  Uiso   1.00
C633   C     0.83327   0.04248   0.75017   0.00000  Uiso   1.00
C634   C     0.79627   0.02128   0.73889   0.00000  Uiso   1.00
C635   C     0.79627   0.31200   0.73891   0.00000  Uiso   1.00
C636   C     0.83327   0.29084   0.75021   0.00000  Uiso   1.00
C637   C     0.98097   0.13279   0.73237   0.00000  Uiso   1.00
C638   C     0.69558   0.13284   0.73226   0.00000  Uiso   1.00
C639   C     0.81603   0.19617   0.98794   0.00000  Uiso   1.00
C640   C     0.68574   0.20057   0.76751   0.00000  Uiso   1.00
C641   C     0.97131   0.20066   0.76713   0.00000  Uiso   1.00
C642   C     0.83330   0.08664   0.75005   0.00000  Uiso   1.00
C643   C     0.85923   0.16698   0.64828   0.00000  Uiso   1.00
C644   C     0.93187   0.16154   0.50334   0.00000  Uiso   1.00
C645   C     0.87417   0.17067   0.59061   0.00000  Uiso   1.00
C646   C     0.74682   0.19589   0.93481   0.00000  Uiso   1.00
C647   C     0.73318   0.20289   0.98969   0.00000  Uiso   1.00
C648   C     0.76693   0.20120   0.51661   0.00000  Uiso   1.00
C649   C     0.97471   0.14101   0.97103   0.00000  Uiso   1.00
C650   C     0.82989   0.19603   0.93167   0.00000  Uiso   1.00
C651   C     0.85175   0.18828   0.51244   0.00000  Uiso   1.00
C652   C     0.89934   0.17952   0.98027   0.00000  Uiso   1.00
C653   C     0.91306   0.18963   0.92611   0.00000  Uiso   1.00
C654   C     0.87874   0.20098   0.90320   0.00000  Uiso   1.00
C655   C     0.84102   0.18585   0.56759   0.00000  Uiso   1.00
C656   C     0.91922   0.15774   0.55875   0.00000  Uiso   1.00
H657   H     0.94376   0.14367   0.57689   0.00000  Uiso   1.00
H658   H     0.71982   0.19489   0.91500   0.00000  Uiso   1.00
H659   H     0.75326   0.20362   0.55955   0.00000  Uiso   1.00
H660   H     0.69591   0.20738   0.51195   0.00000  Uiso   1.00
H661   H     0.89095   0.21237   0.86268   0.00000  Uiso   1.00
H662   H     0.89878   0.29581   0.77087   0.00000  Uiso   1.00
H663   H     0.94966   0.22807   0.78046   0.00000  Uiso   1.00
H664   H     0.89882   0.03758   0.77076   0.00000  Uiso   1.00
H665   H     0.76767   0.03749   0.72968   0.00000  Uiso   1.00
H666   H     0.76767   0.29575   0.72971   0.00000  Uiso   1.00
H667   H     0.96692   0.10569   0.71811   0.00000  Uiso   1.00
H668   H     0.71763   0.10579   0.71786   0.00000  Uiso   1.00
H669   H     0.69982   0.22771   0.78166   0.00000  Uiso   1.00
H670   H     0.95010   0.18893   0.90147   0.00000  Uiso   1.00
H671   H     0.80677   0.19560   0.59365   0.00000  Uiso   1.00
N672   N     0.71426   0.16668   0.75001   0.00000  Uiso   1.00
N673   N     0.95239   0.16665   0.75000   0.00000  Uiso   1.00
N674   N     0.67513   0.12371   0.94528   0.00000  Uiso   1.00
O675   O     0.79512   0.22775   0.75000   0.00000  Uiso   1.00
O676   O     0.87157   0.22774   0.75000   0.00000  Uiso   1.00
O677   O     0.77613   0.16666   0.82681   0.00000  Uiso   1.00
O678   O     0.85258   0.16665   0.82681   0.00000  Uiso   1.00
O679   O     0.79510   0.10559   0.74999   0.00000  Uiso   1.00
O680   O     0.87154   0.10558   0.74999   0.00000  Uiso   1.00
O681   O     0.81409   0.16668   0.67319   0.00000  Uiso   1.00
O682   O     0.89053   0.16667   0.67319   0.00000  Uiso   1.00
Zn683  Zn    0.78229   0.16667   0.75000   0.00000  Uiso   1.00
Zn684  Zn    0.88438   0.16666   0.75000   0.00000  Uiso   1.00
C685   C     0.16667   0.58003   0.75004   0.00000  Uiso   1.00
C686   C     0.12813   0.52268   0.90598   0.00000  Uiso   1.00
C687   C     0.20354   0.64537   0.76163   0.00000  Uiso   1.00
C688   C     0.14143   0.50697   0.85056   0.00000  Uiso   1.00
C689   C     0.20355   0.35466   0.76158   0.00000  Uiso   1.00
C690   C     0.16660   0.37581   0.75017   0.00000  Uiso   1.00
C691   C     0.12960   0.35462   0.73889   0.00000  Uiso   1.00
C692   C     0.12961   0.64533   0.73891   0.00000  Uiso   1.00
C693   C     0.16661   0.62418   0.75021   0.00000  Uiso   1.00
C694   C     0.31430   0.46612   0.73237   0.00000  Uiso   1.00
C695   C     0.02891   0.46617   0.73226   0.00000  Uiso   1.00
C696   C     0.14936   0.52950   0.98794   0.00000  Uiso   1.00
C697   C     0.01908   0.53391   0.76751   0.00000  Uiso   1.00
C698   C     0.30464   0.53400   0.76713   0.00000  Uiso   1.00
C699   C     0.16664   0.41997   0.75005   0.00000  Uiso   1.00
C700   C     0.19257   0.50031   0.64828   0.00000  Uiso   1.00
C701   C     0.26520   0.49487   0.50334   0.00000  Uiso   1.00
C702   C     0.20751   0.50401   0.59061   0.00000  Uiso   1.00
C703   C     0.08015   0.52922   0.93481   0.00000  Uiso   1.00
C704   C     0.06651   0.53622   0.98969   0.00000  Uiso   1.00
C705   C     0.10026   0.53454   0.51661   0.00000  Uiso   1.00
C706   C     0.30805   0.47434   0.97103   0.00000  Uiso   1.00
C707   C     0.16322   0.52936   0.93167   0.00000  Uiso   1.00
C708   C     0.18508   0.52161   0.51244   0.00000  Uiso   1.00
C709   C     0.23268   0.51285   0.98027   0.00000  Uiso   1.00
C710   C     0.24639   0.52296   0.92611   0.00000  Uiso   1.00
C711   C     0.21208   0.53431   0.90320   0.00000  Uiso   1.00
C712   C     0.17435   0.51918   0.56759   0.00000  Uiso   1.00
C713   C     0.25256   0.49108   0.55875   0.00000  Uiso   1.00
H714   H     0.27710   0.47701   0.57689   0.00000  Uiso   1.00
H715   H     0.05315   0.52822   0.91500   0.00000  Uiso   1.00
H716   H     0.08659   0.53695   0.55955   0.00000  Uiso   1.00
H717   H     0.02924   0.54071   0.51195   0.00000  Uiso   1.00
H718   H     0.22428   0.54571   0.86268   0.00000  Uiso   1.00
H719   H     0.23212   0.62914   0.77087   0.00000  Uiso   1.00
H720   H     0.28299   0.56140   0.78046   0.00000  Uiso   1.00
H721   H     0.23216   0.37091   0.77076   0.00000  Uiso   1.00
H722   H     0.10100   0.37083   0.72968   0.00000  Uiso   1.00
H723   H     0.10100   0.62908   0.72971   0.00000  Uiso   1.00
H724   H     0.30026   0.43902   0.71811   0.00000  Uiso   1.00
H725   H     0.05096   0.43913   0.71786   0.00000  Uiso   1.00
H726   H     0.03315   0.56104   0.78166   0.00000  Uiso   1.00
H727   H     0.28344   0.52227   0.90147   0.00000  Uiso   1.00
H728   H     0.14010   0.52893   0.59365   0.00000  Uiso   1.00
N729   N     0.04760   0.50001   0.75001   0.00000  Uiso   1.00
N730   N     0.28573   0.49998   0.75000   0.00000  Uiso   1.00
N731   N     0.00847   0.45705   0.94528   0.00000  Uiso   1.00
O732   O     0.12846   0.56108   0.75000   0.00000  Uiso   1.00
O733   O     0.20490   0.56107   0.75000   0.00000  Uiso   1.00
O734   O     0.10947   0.50000   0.82681   0.00000  Uiso   1.00
O735   O     0.18591   0.49999   0.82681   0.00000  Uiso   1.00
O736   O     0.12843   0.43893   0.74999   0.00000  Uiso   1.00
O737   O     0.20488   0.43892   0.74999   0.00000  Uiso   1.00
O738   O     0.14742   0.50001   0.67319   0.00000  Uiso   1.00
O739   O     0.22387   0.50000   0.67319   0.00000  Uiso   1.00
Zn740  Zn    0.11562   0.50001   0.75000   0.00000  Uiso   1.00
Zn741  Zn    0.21771   0.49999   0.75000   0.00000  Uiso   1.00
C742   C     0.50000   0.58003   0.75004   0.00000  Uiso   1.00
C743   C     0.46146   0.52268   0.90598   0.00000  Uiso   1.00
C744   C     0.53687   0.64537   0.76163   0.00000  Uiso   1.00
C745   C     0.47476   0.50697   0.85056   0.00000  Uiso   1.00
C746   C     0.53688   0.35466   0.76158   0.00000  Uiso   1.00
C747   C     0.49993   0.37581   0.75017   0.00000  Uiso   1.00
C748   C     0.46294   0.35462   0.73889   0.00000  Uiso   1.00
C749   C     0.46294   0.64533   0.73891   0.00000  Uiso   1.00
C750   C     0.49994   0.62418   0.75021   0.00000  Uiso   1.00
C751   C     0.64764   0.46612   0.73237   0.00000  Uiso   1.00
C752   C     0.36224   0.46617   0.73226   0.00000  Uiso   1.00
C753   C     0.48269   0.52950   0.98794   0.00000  Uiso   1.00
C754   C     0.35241   0.53391   0.76751   0.00000  Uiso   1.00
C755   C     0.63797   0.53400   0.76713   0.00000  Uiso   1.00
C756   C     0.49997   0.41997   0.75005   0.00000  Uiso   1.00
C757   C     0.52590   0.50031   0.64828   0.00000  Uiso   1.00
C758   C     0.59854   0.49487   0.50334   0.00000  Uiso   1.00
C759   C     0.54084   0.50401   0.59061   0.00000  Uiso   1.00
C760   C     0.41348   0.52922   0.93481   0.00000  Uiso   1.00
C761   C     0.39985   0.53622   0.98969   0.00000  Uiso   1.00
C762   C     0.43359   0.53454   0.51661   0.00000  Uiso   1.00
C763   C     0.64138   0.47434   0.97103   0.00000  Uiso   1.00
C764   C     0.49655   0.52936   0.93167   0.00000  Uiso   1.00
C765   C     0.51842   0.52161   0.51244   0.00000  Uiso   1.00
C766   C     0.56601   0.51285   0.98027   0.00000  Uiso   1.00
C767   C     0.57972   0.52296   0.92611   0.00000  Uiso   1.00
C768   C     0.54541   0.53431   0.90320   0.00000  Uiso   1.00
C769   C     0.50768   0.51918   0.56759   0.00000  Uiso   1.00
C770   C     0.58589   0.49108   0.55875   0.00000  Uiso   1.00
H771   H     0.61043   0.47701   0.57689   0.00000  Uiso   1.00
H772   H     0.38648   0.52822   0.91500   0.00000  Uiso   1.00
H773   H     0.41993   0.53695   0.55955   0.00000  Uiso   1.00
H774   H     0.36258   0.54071   0.51195   0.00000  Uiso   1.00
H775   H     0.55761   0.54571   0.86268   0.00000  Uiso   1.00
H776   H     0.56545   0.62914   0.77087   0.00000  Uiso   1.00
H777   H     0.61633   0.56140   0.78046   0.00000  Uiso   1.00
H778   H     0.56549   0.37091   0.77076   0.00000  Uiso   1.00
H779   H     0.43433   0.37083   0.72968   0.00000  Uiso   1.00
H780   H     0.43434   0.62908   0.72971   0.00000  Uiso   1.00
H781   H     0.63359   0.43902   0.71811   0.00000  Uiso   1.00
H782   H     0.38429   0.43913   0.71786   0.00000  Uiso   1.00
H783   H     0.36648   0.56104   0.78166   0.00000  Uiso   1.00
H784   H     0.61677   0.52227   0.90147   0.00000  Uiso   1.00
H785   H     0.47343   0.52893   0.59365   0.00000  Uiso   1.00
N786   N     0.38093   0.50001   0.75001   0.00000  Uiso   1.00
N787   N     0.61906   0.49998   0.75000   0.00000  Uiso   1.00
N788   N     0.34180   0.45705   0.94528   0.00000  Uiso   1.00
O789   O     0.46179   0.56108   0.75000   0.00000  Uiso   1.00
O790   O     0.53823   0.56107   0.75000   0.00000  Uiso   1.00
O791   O     0.44280   0.50000   0.82681   0.00000  Uiso   1.00
O792   O     0.51924   0.49999   0.82681   0.00000  Uiso   1.00
O793   O     0.46177   0.43893   0.74999   0.00000  Uiso   1.00
O794   O     0.53821   0.43892   0.74999   0.00000  Uiso   1.00
O795   O     0.48076   0.50001   0.67319   0.00000  Uiso   1.00
O796   O     0.55720   0.50000   0.67319   0.00000  Uiso   1.00
Zn797  Zn    0.44896   0.50001   0.75000   0.00000  Uiso   1.00
Zn798  Zn    0.55104   0.49999   0.75000   0.00000  Uiso   1.00
C799   C     0.83334   0.58003   0.75004   0.00000  Uiso   1.00
C800   C     0.79480   0.52268   0.90598   0.00000  Uiso   1.00
C801   C     0.87021   0.64537   0.76163   0.00000  Uiso   1.00
C802   C     0.80809   0.50697   0.85056   0.00000  Uiso   1.00
C803   C     0.87022   0.35466   0.76158   0.00000  Uiso   1.00
C804   C     0.83327   0.37581   0.75017   0.00000  Uiso   1.00
C805   C     0.79627   0.35462   0.73889   0.00000  Uiso   1.00
C806   C     0.79627   0.64533   0.73891   0.00000  Uiso   1.00
C807   C     0.83327   0.62418   0.75021   0.00000  Uiso   1.00
C808   C     0.98097   0.46612   0.73237   0.00000  Uiso   1.00
C809   C     0.69558   0.46617   0.73226   0.00000  Uiso   1.00
C810   C     0.81603   0.52950   0.98794   0.00000  Uiso   1.00
C811   C     0.68574   0.53391   0.76751   0.00000  Uiso   1.00
C812   C     0.97131   0.53400   0.76713   0.00000  Uiso   1.00
C813   C     0.83330   0.41997   0.75005   0.00000  Uiso   1.00
C814   C     0.85923   0.50031   0.64828   0.00000  Uiso   1.00
C815   C     0.93187   0.49487   0.50334   0.00000  Uiso   1.00
C816   C     0.87417   0.50401   0.59061   0.00000  Uiso   1.00
C817   C     0.74682   0.52922   0.93481   0.00000  Uiso   1.00
C818   C     0.73318   0.53622   0.98969   0.00000  Uiso   1.00
C819   C     0.76693   0.53454   0.51661   0.00000  Uiso   1.00
C820   C     0.97471   0.47434   0.97103   0.00000  Uiso   1.00
C821   C     0.82989   0.52936   0.93167   0.00000  Uiso   1.00
C822   C     0.85175   0.52161   0.51244   0.00000  Uiso   1.00
C823   C     0.89934   0.51285   0.98027   0.00000  Uiso   1.00
C824   C     0.91306   0.52296   0.92611   0.00000  Uiso   1.00
C825   C     0.87874   0.53431   0.90320   0.00000  Uiso   1.00
C826   C     0.84102   0.51918   0.56759   0.00000  Uiso   1.00
C827   C     0.91922   0.49108   0.55875   0.00000  Uiso   1.00
H828   H     0.94376   0.47701   0.57689   0.00000  Uiso   1.00
H829   H     0.71982   0.52822   0.91500   0.00000  Uiso   1.00
H830   H     0.75326   0.53695   0.55955   0.00000  Uiso   1.00
H831   H     0.69591   0.54071   0.51195   0.00000  Uiso   1.00
H832   H     0.89095   0.54571   0.86268   0.00000  Uiso   1.00
H833   H     0.89878   0.62914   0.77087   0.00000  Uiso   1.00
H834   H     0.94966   0.56140   0.78046   0.00000  Uiso   1.00
H835   H     0.89882   0.37091   0.77076   0.00000  Uiso   1.00
H836   H     0.76767   0.37083   0.72968   0.00000  Uiso   1.00
H837   H     0.76767   0.62908   0.72971   0.00000  Uiso   1.00
H838   H     0.96692   0.43902   0.71811   0.00000  Uiso   1.00
H839   H     0.71763   0.43913   0.71786   0.00000  Uiso   1.00
H840   H     0.69982   0.56104   0.78166   0.00000  Uiso   1.00
H841   H     0.95010   0.52227   0.90147   0.00000  Uiso   1.00
H842   H     0.80677   0.52893   0.59365   0.00000  Uiso   1.00
N843   N     0.71426   0.50001   0.75001   0.00000  Uiso   1.00
N844   N     0.95239   0.49998   0.75000   0.00000  Uiso   1.00
N845   N     0.67513   0.45705   0.94528   0.00000  Uiso   1.00
O846   O     0.79512   0.56108   0.75000   0.00000  Uiso   1.00
O847   O     0.87157   0.56107   0.75000   0.00000  Uiso   1.00
O848   O     0.77613   0.50000   0.82681   0.00000  Uiso   1.00
O849   O     0.85258   0.49999   0.82681   0.00000  Uiso   1.00
O850   O     0.79510   0.43893   0.74999   0.00000  Uiso   1.00
O851   O     0.87154   0.43892   0.74999   0.00000  Uiso   1.00
O852   O     0.81409   0.50001   0.67319   0.00000  Uiso   1.00
O853   O     0.89053   0.50000   0.67319   0.00000  Uiso   1.00
Zn854  Zn    0.78229   0.50001   0.75000   0.00000  Uiso   1.00
Zn855  Zn    0.88438   0.49999   0.75000   0.00000  Uiso   1.00
C856   C     0.16667   0.91337   0.75004   0.00000  Uiso   1.00
C857   C     0.12813   0.85602   0.90598   0.00000  Uiso   1.00
C858   C     0.20354   0.97870   0.76163   0.00000  Uiso   1.00
C859   C     0.14143   0.84030   0.85056   0.00000  Uiso   1.00
C860   C     0.20355   0.68799   0.76158   0.00000  Uiso   1.00
C861   C     0.16660   0.70915   0.75017   0.00000  Uiso   1.00
C862   C     0.12960   0.68795   0.73889   0.00000  Uiso   1.00
C863   C     0.12961   0.97867   0.73891   0.00000  Uiso   1.00
C864   C     0.16661   0.95751   0.75021   0.00000  Uiso   1.00
C865   C     0.31430   0.79945   0.73237   0.00000  Uiso   1.00
C866   C     0.02891   0.79951   0.73226   0.00000  Uiso   1.00
C867   C     0.14936   0.86284   0.98794   0.00000  Uiso   1.00
C868   C     0.01908   0.86724   0.76751   0.00000  Uiso   1.00
C869   C     0.30464   0.86733   0.76713   0.00000  Uiso   1.00
C870   C     0.16664   0.75330   0.75005   0.00000  Uiso   1.00
C871   C     0.19257   0.83365   0.64828   0.00000  Uiso   1.00
C872   C     0.26520   0.82821   0.50334   0.00000  Uiso   1.00
C873   C     0.20751   0.83734   0.59061   0.00000  Uiso   1.00
C874   C     0.08015   0.86256   0.93481   0.00000  Uiso   1.00
C875   C     0.06651   0.86955   0.98969   0.00000  Uiso   1.00
C876   C     0.10026   0.86787   0.51661   0.00000  Uiso   1.00
C877   C     0.30805   0.80768   0.97103   0.00000  Uiso   1.00
C878   C     0.16322   0.86269   0.93167   0.00000  Uiso   1.00
C879   C     0.18508   0.85494   0.51244   0.00000  Uiso   1.00
C880   C     0.23268   0.84619   0.98027   0.00000  Uiso   1.00
C881   C     0.24639   0.85629   0.92611   0.00000  Uiso   1.00
C882   C     0.21208   0.86764   0.90320   0.00000  Uiso   1.00
C883   C     0.17435   0.85251   0.56759   0.00000  Uiso   1.00
C884   C     0.25256   0.82441   0.55875   0.00000  Uiso   1.00
H885   H     0.27710   0.81034   0.57689   0.00000  Uiso   1.00
H886   H     0.05315   0.86155   0.91500   0.00000  Uiso   1.00
H887   H     0.08659   0.87028   0.55955   0.00000  Uiso   1.00
H888   H     0.02924   0.87405   0.51195   0.00000  Uiso   1.00
H889   H     0.22428   0.87904   0.86268   0.00000  Uiso   1.00
H890   H     0.23212   0.96247   0.77087   0.00000  Uiso   1.00
H891   H     0.28299   0.89473   0.78046   0.00000  Uiso   1.00
H892   H     0.23216   0.70425   0.77076   0.00000  Uiso   1.00
H893   H     0.10100   0.70416   0.72968   0.00000  Uiso   1.00
H894   H     0.10100   0.96242   0.72971   0.00000  Uiso   1.00
H895   H     0.30026   0.77235   0.71811   0.00000  Uiso   1.00
H896   H     0.05096   0.77246   0.71786   0.00000  Uiso   1.00
H897   H     0.03315   0.89437   0.78166   0.00000  Uiso   1.00
H898   H     0.28344   0.85560   0.90147   0.00000  Uiso   1.00
H899   H     0.14010   0.86226   0.59365   0.00000  Uiso   1.00
N900   N     0.04760   0.83334   0.75001   0.00000  Uiso   1.00
N901   N     0.28573   0.83331   0.75000   0.00000  Uiso   1.00
N902   N     0.00847   0.79038   0.94528   0.00000  Uiso   1.00
O903   O     0.12846   0.89442   0.75000   0.00000  Uiso   1.00
O904   O     0.20490   0.89441   0.75000   0.00000  Uiso   1.00
O905   O     0.10947   0.83333   0.82681   0.00000  Uiso   1.00
O906   O     0.18591   0.83332   0.82681   0.00000  Uiso   1.00
O907   O     0.12843   0.77226   0.74999   0.00000  Uiso   1.00
O908   O     0.20488   0.77225   0.74999   0.00000  Uiso   1.00
O909   O     0.14742   0.83335   0.67319   0.00000  Uiso   1.00
O910   O     0.22387   0.83334   0.67319   0.00000  Uiso   1.00
Zn911  Zn    0.11562   0.83334   0.75000   0.00000  Uiso   1.00
Zn912  Zn    0.21771   0.83333   0.75000   0.00000  Uiso   1.00
C913   C     0.50000   0.91337   0.75004   0.00000  Uiso   1.00
C914   C     0.46146   0.85602   0.90598   0.00000  Uiso   1.00
C915   C     0.53687   0.97870   0.76163   0.00000  Uiso   1.00
C916   C     0.47476   0.84030   0.85056   0.00000  Uiso   1.00
C917   C     0.53688   0.68799   0.76158   0.00000  Uiso   1.00
C918   C     0.49993   0.70915   0.75017   0.00000  Uiso   1.00
C919   C     0.46294   0.68795   0.73889   0.00000  Uiso   1.00
C920   C     0.46294   0.97867   0.73891   0.00000  Uiso   1.00
C921   C     0.49994   0.95751   0.75021   0.00000  Uiso   1.00
C922   C     0.64764   0.79945   0.73237   0.00000  Uiso   1.00
C923   C     0.36224   0.79951   0.73226   0.00000  Uiso   1.00
C924   C     0.48269   0.86284   0.98794   0.00000  Uiso   1.00
C925   C     0.35241   0.86724   0.76751   0.00000  Uiso   1.00
C926   C     0.63797   0.86733   0.76713   0.00000  Uiso   1.00
C927   C     0.49997   0.75330   0.75005   0.00000  Uiso   1.00
C928   C     0.52590   0.83365   0.64828   0.00000  Uiso   1.00
C929   C     0.59854   0.82821   0.50334   0.00000  Uiso   1.00
C930   C     0.54084   0.83734   0.59061   0.00000  Uiso   1.00
C931   C     0.41348   0.86256   0.93481   0.00000  Uiso   1.00
C932   C     0.39985   0.86955   0.98969   0.00000  Uiso   1.00
C933   C     0.43359   0.86787   0.51661   0.00000  Uiso   1.00
C934   C     0.64138   0.80768   0.97103   0.00000  Uiso   1.00
C935   C     0.49655   0.86269   0.93167   0.00000  Uiso   1.00
C936   C     0.51842   0.85494   0.51244   0.00000  Uiso   1.00
C937   C     0.56601   0.84619   0.98027   0.00000  Uiso   1.00
C938   C     0.57972   0.85629   0.92611   0.00000  Uiso   1.00
C939   C     0.54541   0.86764   0.90320   0.00000  Uiso   1.00
C940   C     0.50768   0.85251   0.56759   0.00000  Uiso   1.00
C941   C     0.58589   0.82441   0.55875   0.00000  Uiso   1.00
H942   H     0.61043   0.81034   0.57689   0.00000  Uiso   1.00
H943   H     0.38648   0.86155   0.91500   0.00000  Uiso   1.00
H944   H     0.41993   0.87028   0.55955   0.00000  Uiso   1.00
H945   H     0.36258   0.87405   0.51195   0.00000  Uiso   1.00
H946   H     0.55761   0.87904   0.86268   0.00000  Uiso   1.00
H947   H     0.56545   0.96247   0.77087   0.00000  Uiso   1.00
H948   H     0.61633   0.89473   0.78046   0.00000  Uiso   1.00
H949   H     0.56549   0.70425   0.77076   0.00000  Uiso   1.00
H950   H     0.43433   0.70416   0.72968   0.00000  Uiso   1.00
H951   H     0.43434   0.96242   0.72971   0.00000  Uiso   1.00
H952   H     0.63359   0.77235   0.71811   0.00000  Uiso   1.00
H953   H     0.38429   0.77246   0.71786   0.00000  Uiso   1.00
H954   H     0.36648   0.89437   0.78166   0.00000  Uiso   1.00
H955   H     0.61677   0.85560   0.90147   0.00000  Uiso   1.00
H956   H     0.47343   0.86226   0.59365   0.00000  Uiso   1.00
N957   N     0.38093   0.83334   0.75001   0.00000  Uiso   1.00
N958   N     0.61906   0.83331   0.75000   0.00000  Uiso   1.00
N959   N     0.34180   0.79038   0.94528   0.00000  Uiso   1.00
O960   O     0.46179   0.89442   0.75000   0.00000  Uiso   1.00
O961   O     0.53823   0.89441   0.75000   0.00000  Uiso   1.00
O962   O     0.44280   0.83333   0.82681   0.00000  Uiso   1.00
O963   O     0.51924   0.83332   0.82681   0.00000  Uiso   1.00
O964   O     0.46177   0.77226   0.74999   0.00000  Uiso   1.00
O965   O     0.53821   0.77225   0.74999   0.00000  Uiso   1.00
O966   O     0.48076   0.83335   0.67319   0.00000  Uiso   1.00
O967   O     0.55720   0.83334   0.67319   0.00000  Uiso   1.00
Zn968  Zn    0.44896   0.83334   0.75000   0.00000  Uiso   1.00
Zn969  Zn    0.55104   0.83333   0.75000   0.00000  Uiso   1.00
C970   C     0.83334   0.91337   0.75004   0.00000  Uiso   1.00
C971   C     0.79480   0.85602   0.90598   0.00000  Uiso   1.00
C972   C     0.87021   0.97870   0.76163   0.00000  Uiso   1.00
C973   C     0.80809   0.84030   0.85056   0.00000  Uiso   1.00
C974   C     0.87022   0.68799   0.76158   0.00000  Uiso   1.00
C975   C     0.83327   0.70915   0.75017   0.00000  Uiso   1.00
C976   C     0.79627   0.68795   0.73889   0.00000  Uiso   1.00
C977   C     0.79627   0.97867   0.73891   0.00000  Uiso   1.00
C978   C     0.83327   0.95751   0.75021   0.00000  Uiso   1.00
C979   C     0.98097   0.79945   0.73237   0.00000  Uiso   1.00
C980   C     0.69558   0.79951   0.73226   0.00000  Uiso   1.00
C981   C     0.81603   0.86284   0.98794   0.00000  Uiso   1.00
C982   C     0.68574   0.86724   0.76751   0.00000  Uiso   1.00
C983   C     0.97131   0.86733   0.76713   0.00000  Uiso   1.00
C984   C     0.83330   0.75330   0.75005   0.00000  Uiso   1.00
C985   C     0.85923   0.83365   0.64828   0.00000  Uiso   1.00
C986   C     0.93187   0.82821   0.50334   0.00000  Uiso   1.00
C987   C     0.87417   0.83734   0.59061   0.00000  Uiso   1.00
C988   C     0.74682   0.86256   0.93481   0.00000  Uiso   1.00
C989   C     0.73318   0.86955   0.98969   0.00000  Uiso   1.00
C990   C     0.76693   0.86787   0.51661   0.00000  Uiso   1.00
C991   C     0.97471   0.80768   0.97103   0.00000  Uiso   1.00
C992   C     0.82989   0.86269   0.93167   0.00000  Uiso   1.00
C993   C     0.85175   0.85494   0.51244   0.00000  Uiso   1.00
C994   C     0.89934   0.84619   0.98027   0.00000  Uiso   1.00
C995   C     0.91306   0.85629   0.92611   0.00000  Uiso   1.00
C996   C     0.87874   0.86764   0.90320   0.00000  Uiso   1.00
C997   C     0.84102   0.85251   0.56759   0.00000  Uiso   1.00
C998   C     0.91922   0.82441   0.55875   0.00000  Uiso   1.00
H999   H     0.94376   0.81034   0.57689   0.00000  Uiso   1.00
H1000  H     0.71982   0.86155   0.91500   0.00000  Uiso   1.00
H1001  H     0.75326   0.87028   0.55955   0.00000  Uiso   1.00
H1002  H     0.69591   0.87405   0.51195   0.00000  Uiso   1.00
H1003  H     0.89095   0.87904   0.86268   0.00000  Uiso   1.00
H1004  H     0.89878   0.96247   0.77087   0.00000  Uiso   1.00
H1005  H     0.94966   0.89473   0.78046   0.00000  Uiso   1.00
H1006  H     0.89882   0.70425   0.77076   0.00000  Uiso   1.00
H1007  H     0.76767   0.70416   0.72968   0.00000  Uiso   1.00
H1008  H     0.76767   0.96242   0.72971   0.00000  Uiso   1.00
H1009  H     0.96692   0.77235   0.71811   0.00000  Uiso   1.00
H1010  H     0.71763   0.77246   0.71786   0.00000  Uiso   1.00
H1011  H     0.69982   0.89437   0.78166   0.00000  Uiso   1.00
H1012  H     0.95010   0.85560   0.90147   0.00000  Uiso   1.00
H1013  H     0.80677   0.86226   0.59365   0.00000  Uiso   1.00
N1014  N     0.71426   0.83334   0.75001   0.00000  Uiso   1.00
N1015  N     0.95239   0.83331   0.75000   0.00000  Uiso   1.00
N1016  N     0.67513   0.79038   0.94528   0.00000  Uiso   1.00
O1017  O     0.79512   0.89442   0.75000   0.00000  Uiso   1.00
O1018  O     0.87157   0.89441   0.75000   0.00000  Uiso   1.00
O1019  O     0.77613   0.83333   0.82681   0.00000  Uiso   1.00
O1020  O     0.85258   0.83332   0.82681   0.00000  Uiso   1.00
O1021  O     0.79510   0.77226   0.74999   0.00000  Uiso   1.00
O1022  O     0.87154   0.77225   0.74999   0.00000  Uiso   1.00
O1023  O     0.81409   0.83335   0.67319   0.00000  Uiso   1.00
O1024  O     0.89053   0.83334   0.67319   0.00000  Uiso   1.00
Zn1025 Zn    0.78229   0.83334   0.75000   0.00000  Uiso   1.00
Zn1026 Zn    0.88438   0.83333   0.75000   0.00000  Uiso   1.00
loop_
_geom_bond_atom_site_label_1
_geom_bond_atom_site_label_2
_geom_bond_distance
_geom_bond_site_symmetry_2
_ccdc_geom_bond_type
C1     C9      1.419   .     S
C1     O48     1.284   .     A
C1     O49     1.284   .     A
C2     C4      1.475   .     S
C2     C23     1.421   .     A
C2     C19     1.398   .     A
C3     C9      1.397   .     A
C3     H35     1.084   .     S
C3     C176    1.370   .     S
C4     O51     1.286   .     A
C4     O50     1.305   .     A
C5     H37     1.084   .     S
C5     C6      1.397   .     A
C5     C345    1.370   1_545 S
C6     C7      1.397   .     A
C6     C15     1.420   .     S
C7     H38     1.084   .     S
C7     C350    1.370   1_545 S
C8     H39     1.084   .     S
C8     C9      1.397   .     A
C8     C178    1.370   .     S
C10    N46     1.366   .     A
C10    H40     1.081   .     S
C10    C68     1.416   .     S
C11    H41     1.081   .     S
C11    N45     1.367   .     A
C11    C124    1.416   1_455 S
C12    C23     1.407   .     A
C12    C534    1.419   .     S
C12    C537    1.422   .     S
C13    N45     1.366   .     A
C13    H42     1.081   .     S
C13    C128    1.415   1_455 S
C14    N46     1.367   .     A
C14    H36     1.080   .     S
C14    C70     1.415   .     S
C15    O52     1.284   .     A
C15    O53     1.284   .     A
C16    O55     1.291   .     A
C16    O54     1.289   .     A
C16    C18     1.446   .     S
C17    C29     1.393   .     A
C17    C535    1.444   1_554 S
C17    C538    1.412   1_554 S
C18    C28     1.392   .     A
C18    C29     1.396   .     A
C19    C20     1.391   .     A
C19    H31     1.082   .     S
C20    C534    1.394   .     S
C20    H546    1.083   .     S
C21    H32     1.077   .     S
C21    C525    1.419   1_554 S
C21    C533    1.394   1_554 S
C22    C530    1.444   .     S
C22    N104    1.157   .     S
C23    C27     1.412   .     A
C24    C28     1.387   .     A
C24    C525    1.422   1_554 S
C24    C538    1.424   1_554 S
C25    C26     1.393   .     A
C25    C537    1.424   .     S
C25    C530    1.412   .     S
C26    C27     1.382   .     A
C26    H43     1.084   .     S
C27    H34     1.077   .     S
C28    H44     1.076   .     S
C29    H30     1.085   .     S
H33    C533    1.083   1_554 S
N45    Zn56    2.011   .     S
N46    Zn57    2.011   .     S
N47    C136    1.157   1_455 S
O48    Zn56    2.000   .     S
O49    Zn57    2.000   .     S
O50    Zn56    1.972   .     S
O51    Zn57    1.944   .     S
O52    Zn56    2.000   .     S
O53    Zn57    2.000   .     S
O54    Zn56    1.944   .     S
O55    Zn57    1.972   .     S
C58    C66     1.419   .     S
C58    O105    1.284   .     A
C58    O106    1.284   .     A
C59    C61     1.475   .     S
C59    C80     1.421   .     A
C59    C76     1.398   .     A
C60    C66     1.397   .     A
C60    H92     1.084   .     S
C60    C233    1.370   .     S
C61    O108    1.286   .     A
C61    O107    1.305   .     A
C62    H94     1.084   .     S
C62    C63     1.397   .     A
C62    C402    1.370   1_545 S
C63    C64     1.397   .     A
C63    C72     1.420   .     S
C64    H95     1.084   .     S
C64    C407    1.370   1_545 S
C65    H96     1.084   .     S
C65    C66     1.397   .     A
C65    C235    1.370   .     S
C67    N103    1.366   .     A
C67    H97     1.081   .     S
C67    C125    1.416   .     S
C68    H98     1.081   .     S
C68    N102    1.367   .     A
C69    C80     1.407   .     A
C69    C591    1.419   .     S
C69    C594    1.422   .     S
C70    N102    1.366   .     A
C70    H99     1.081   .     S
C71    N103    1.367   .     A
C71    H93     1.080   .     S
C71    C127    1.415   .     S
C72    O109    1.284   .     A
C72    O110    1.284   .     A
C73    O112    1.291   .     A
C73    O111    1.289   .     A
C73    C75     1.446   .     S
C74    C86     1.393   .     A
C74    C592    1.444   1_554 S
C74    C595    1.412   1_554 S
C75    C85     1.392   .     A
C75    C86     1.396   .     A
C76    C77     1.391   .     A
C76    H88     1.082   .     S
C77    C591    1.394   .     S
C77    H603    1.083   .     S
C78    H89     1.077   .     S
C78    C582    1.419   1_554 S
C78    C590    1.394   1_554 S
C79    C587    1.444   .     S
C79    N161    1.157   .     S
C80    C84     1.412   .     A
C81    C85     1.387   .     A
C81    C582    1.422   1_554 S
C81    C595    1.424   1_554 S
C82    C83     1.393   .     A
C82    C594    1.424   .     S
C82    C587    1.412   .     S
C83    C84     1.382   .     A
C83    H100    1.084   .     S
C84    H91     1.077   .     S
C85    H101    1.076   .     S
C86    H87     1.085   .     S
H90    C590    1.083   1_554 S
N102   Zn113   2.011   .     S
N103   Zn114   2.011   .     S
O105   Zn113   2.000   .     S
O106   Zn114   2.000   .     S
O107   Zn113   1.972   .     S
O108   Zn114   1.944   .     S
O109   Zn113   2.000   .     S
O110   Zn114   2.000   .     S
O111   Zn113   1.944   .     S
O112   Zn114   1.972   .     S
C115   C123    1.419   .     S
C115   O162    1.284   .     A
C115   O163    1.284   .     A
C116   C118    1.475   .     S
C116   C137    1.421   .     A
C116   C133    1.398   .     A
C117   C123    1.397   .     A
C117   H149    1.084   .     S
C117   C290    1.370   .     S
C118   O165    1.286   .     A
C118   O164    1.305   .     A
C119   H151    1.084   .     S
C119   C120    1.397   .     A
C119   C459    1.370   1_545 S
C120   C121    1.397   .     A
C120   C129    1.420   .     S
C121   H152    1.084   .     S
C121   C464    1.370   1_545 S
C122   H153    1.084   .     S
C122   C123    1.397   .     A
C122   C292    1.370   .     S
C124   N160    1.366   .     A
C124   H154    1.081   .     S
C124   C11     1.416   1_655 S
C125   H155    1.081   .     S
C125   N159    1.367   .     A
C126   C137    1.407   .     A
C126   C648    1.419   .     S
C126   C651    1.422   .     S
C127   N159    1.366   .     A
C127   H156    1.081   .     S
C128   N160    1.367   .     A
C128   H150    1.080   .     S
C128   C13     1.415   1_655 S
C129   O166    1.284   .     A
C129   O167    1.284   .     A
C130   O169    1.291   .     A
C130   O168    1.289   .     A
C130   C132    1.446   .     S
C131   C143    1.393   .     A
C131   C649    1.444   1_554 S
C131   C652    1.412   1_554 S
C132   C142    1.392   .     A
C132   C143    1.396   .     A
C133   C134    1.391   .     A
C133   H145    1.082   .     S
C134   C648    1.394   .     S
C134   H660    1.083   .     S
C135   H146    1.077   .     S
C135   C639    1.419   1_554 S
C135   C647    1.394   1_554 S
C136   C644    1.444   .     S
C136   N47     1.157   1_655 S
C137   C141    1.412   .     A
C138   C142    1.387   .     A
C138   C639    1.422   1_554 S
C138   C652    1.424   1_554 S
C139   C140    1.393   .     A
C139   C651    1.424   .     S
C139   C644    1.412   .     S
C140   C141    1.382   .     A
C140   H157    1.084   .     S
C141   H148    1.077   .     S
C142   H158    1.076   .     S
C143   H144    1.085   .     S
H147   C647    1.083   1_554 S
N159   Zn170   2.011   .     S
N160   Zn171   2.011   .     S
O162   Zn170   2.000   .     S
O163   Zn171   2.000   .     S
O164   Zn170   1.972   .     S
O165   Zn171   1.944   .     S
O166   Zn170   2.000   .     S
O167   Zn171   2.000   .     S
O168   Zn170   1.944   .     S
O169   Zn171   1.972   .     S
C172   C180    1.419   .     S
C172   O219    1.284   .     A
C172   O220    1.284   .     A
C173   C175    1.475   .     S
C173   C194    1.421   .     A
C173   C190    1.398   .     A
C174   C180    1.397   .     A
C174   H206    1.084   .     S
C174   C347    1.370   .     S
C175   O222    1.286   .     A
C175   O221    1.305   .     A
C176   H208    1.084   .     S
C176   C177    1.397   .     A
C177   C178    1.397   .     A
C177   C186    1.420   .     S
C178   H209    1.084   .     S
C179   H210    1.084   .     S
C179   C180    1.397   .     A
C179   C349    1.370   .     S
C181   N217    1.366   .     A
C181   H211    1.081   .     S
C181   C239    1.416   .     S
C182   H212    1.081   .     S
C182   N216    1.367   .     A
C182   C295    1.416   1_455 S
C183   C194    1.407   .     A
C183   C705    1.419   .     S
C183   C708    1.422   .     S
C184   N216    1.366   .     A
C184   H213    1.081   .     S
C184   C299    1.415   1_455 S
C185   N217    1.367   .     A
C185   H207    1.080   .     S
C185   C241    1.415   .     S
C186   O223    1.284   .     A
C186   O224    1.284   .     A
C187   O226    1.291   .     A
C187   O225    1.289   .     A
C187   C189    1.446   .     S
C188   C200    1.393   .     A
C188   C706    1.444   1_554 S
C188   C709    1.412   1_554 S
C189   C199    1.392   .     A
C189   C200    1.396   .     A
C190   C191    1.391   .     A
C190   H202    1.082   .     S
C191   C705    1.394   .     S
C191   H717    1.083   .     S
C192   H203    1.077   .     S
C192   C696    1.419   1_554 S
C192   C704    1.394   1_554 S
C193   C701    1.444   .     S
C193   N275    1.157   .     S
C194   C198    1.412   .     A
C195   C199    1.387   .     A
C195   C696    1.422   1_554 S
C195   C709    1.424   1_554 S
C196   C197    1.393   .     A
C196   C708    1.424   .     S
C196   C701    1.412   .     S
C197   C198    1.382   .     A
C197   H214    1.084   .     S
C198   H205    1.077   .     S
C199   H215    1.076   .     S
C200   H201    1.085   .     S
H204   C704    1.083   1_554 S
N216   Zn227   2.011   .     S
N217   Zn228   2.011   .     S
N218   C307    1.157   1_455 S
O219   Zn227   2.000   .     S
O220   Zn228   2.000   .     S
O221   Zn227   1.972   .     S
O222   Zn228   1.944   .     S
O223   Zn227   2.000   .     S
O224   Zn228   2.000   .     S
O225   Zn227   1.944   .     S
O226   Zn228   1.972   .     S
C229   C237    1.419   .     S
C229   O276    1.284   .     A
C229   O277    1.284   .     A
C230   C232    1.475   .     S
C230   C251    1.421   .     A
C230   C247    1.398   .     A
C231   C237    1.397   .     A
C231   H263    1.084   .     S
C231   C404    1.370   .     S
C232   O279    1.286   .     A
C232   O278    1.305   .     A
C233   H265    1.084   .     S
C233   C234    1.397   .     A
C234   C235    1.397   .     A
C234   C243    1.420   .     S
C235   H266    1.084   .     S
C236   H267    1.084   .     S
C236   C237    1.397   .     A
C236   C406    1.370   .     S
C238   N274    1.366   .     A
C238   H268    1.081   .     S
C238   C296    1.416   .     S
C239   H269    1.081   .     S
C239   N273    1.367   .     A
C240   C251    1.407   .     A
C240   C762    1.419   .     S
C240   C765    1.422   .     S
C241   N273    1.366   .     A
C241   H270    1.081   .     S
C242   N274    1.367   .     A
C242   H264    1.080   .     S
C242   C298    1.415   .     S
C243   O280    1.284   .     A
C243   O281    1.284   .     A
C244   O283    1.291   .     A
C244   O282    1.289   .     A
C244   C246    1.446   .     S
C245   C257    1.393   .     A
C245   C763    1.444   1_554 S
C245   C766    1.412   1_554 S
C246   C256    1.392   .     A
C246   C257    1.396   .     A
C247   C248    1.391   .     A
C247   H259    1.082   .     S
C248   C762    1.394   .     S
C248   H774    1.083   .     S
C249   H260    1.077   .     S
C249   C753    1.419   1_554 S
C249   C761    1.394   1_554 S
C250   C758    1.444   .     S
C250   N332    1.157   .     S
C251   C255    1.412   .     A
C252   C256    1.387   .     A
C252   C753    1.422   1_554 S
C252   C766    1.424   1_554 S
C253   C254    1.393   .     A
C253   C765    1.424   .     S
C253   C758    1.412   .     S
C254   C255    1.382   .     A
C254   H271    1.084   .     S
C255   H262    1.077   .     S
C256   H272    1.076   .     S
C257   H258    1.085   .     S
H261   C761    1.083   1_554 S
N273   Zn284   2.011   .     S
N274   Zn285   2.011   .     S
O276   Zn284   2.000   .     S
O277   Zn285   2.000   .     S
O278   Zn284   1.972   .     S
O279   Zn285   1.944   .     S
O280   Zn284   2.000   .     S
O281   Zn285   2.000   .     S
O282   Zn284   1.944   .     S
O283   Zn285   1.972   .     S
C286   C294    1.419   .     S
C286   O333    1.284   .     A
C286   O334    1.284   .     A
C287   C289    1.475   .     S
C287   C308    1.421   .     A
C287   C304    1.398   .     A
C288   C294    1.397   .     A
C288   H320    1.084   .     S
C288   C461    1.370   .     S
C289   O336    1.286   .     A
C289   O335    1.305   .     A
C290   H322    1.084   .     S
C290   C291    1.397   .     A
C291   C292    1.397   .     A
C291   C300    1.420   .     S
C292   H323    1.084   .     S
C293   H324    1.084   .     S
C293   C294    1.397   .     A
C293   C463    1.370   .     S
C295   N331    1.366   .     A
C295   H325    1.081   .     S
C295   C182    1.416   1_655 S
C296   H326    1.081   .     S
C296   N330    1.367   .     A
C297   C308    1.407   .     A
C297   C819    1.419   .     S
C297   C822    1.422   .     S
C298   N330    1.366   .     A
C298   H327    1.081   .     S
C299   N331    1.367   .     A
C299   H321    1.080   .     S
C299   C184    1.415   1_655 S
C300   O337    1.284   .     A
C300   O338    1.284   .     A
C301   O340    1.291   .     A
C301   O339    1.289   .     A
C301   C303    1.446   .     S
C302   C314    1.393   .     A
C302   C820    1.444   1_554 S
C302   C823    1.412   1_554 S
C303   C313    1.392   .     A
C303   C314    1.396   .     A
C304   C305    1.391   .     A
C304   H316    1.082   .     S
C305   C819    1.394   .     S
C305   H831    1.083   .     S
C306   H317    1.077   .     S
C306   C810    1.419   1_554 S
C306   C818    1.394   1_554 S
C307   C815    1.444   .     S
C307   N218    1.157   1_655 S
C308   C312    1.412   .     A
C309   C313    1.387   .     A
C309   C810    1.422   1_554 S
C309   C823    1.424   1_554 S
C310   C311    1.393   .     A
C310   C822    1.424   .     S
C310   C815    1.412   .     S
C311   C312    1.382   .     A
C311   H328    1.084   .     S
C312   H319    1.077   .     S
C313   H329    1.076   .     S
C314   H315    1.085   .     S
H318   C818    1.083   1_554 S
N330   Zn341   2.011   .     S
N331   Zn342   2.011   .     S
O333   Zn341   2.000   .     S
O334   Zn342   2.000   .     S
O335   Zn341   1.972   .     S
O336   Zn342   1.944   .     S
O337   Zn341   2.000   .     S
O338   Zn342   2.000   .     S
O339   Zn341   1.944   .     S
O340   Zn342   1.972   .     S
C343   C351    1.419   .     S
C343   O390    1.284   .     A
C343   O391    1.284   .     A
C344   C346    1.475   .     S
C344   C365    1.421   .     A
C344   C361    1.398   .     A
C345   C351    1.397   .     A
C345   H377    1.084   .     S
C345   C5      1.370   1_565 S
C346   O393    1.286   .     A
C346   O392    1.305   .     A
C347   H379    1.084   .     S
C347   C348    1.397   .     A
C348   C349    1.397   .     A
C348   C357    1.420   .     S
C349   H380    1.084   .     S
C350   H381    1.084   .     S
C350   C351    1.397   .     A
C350   C7      1.370   1_565 S
C352   N388    1.366   .     A
C352   H382    1.081   .     S
C352   C410    1.416   .     S
C353   H383    1.081   .     S
C353   N387    1.367   .     A
C353   C466    1.416   1_455 S
C354   C365    1.407   .     A
C354   C876    1.419   .     S
C354   C879    1.422   .     S
C355   N387    1.366   .     A
C355   H384    1.081   .     S
C355   C470    1.415   1_455 S
C356   N388    1.367   .     A
C356   H378    1.080   .     S
C356   C412    1.415   .     S
C357   O394    1.284   .     A
C357   O395    1.284   .     A
C358   O397    1.291   .     A
C358   O396    1.289   .     A
C358   C360    1.446   .     S
C359   C371    1.393   .     A
C359   C877    1.444   1_554 S
C359   C880    1.412   1_554 S
C360   C370    1.392   .     A
C360   C371    1.396   .     A
C361   C362    1.391   .     A
C361   H373    1.082   .     S
C362   C876    1.394   .     S
C362   H888    1.083   .     S
C363   H374    1.077   .     S
C363   C867    1.419   1_554 S
C363   C875    1.394   1_554 S
C364   C872    1.444   .     S
C364   N446    1.157   .     S
C365   C369    1.412   .     A
C366   C370    1.387   .     A
C366   C867    1.422   1_554 S
C366   C880    1.424   1_554 S
C367   C368    1.393   .     A
C367   C879    1.424   .     S
C367   C872    1.412   .     S
C368   C369    1.382   .     A
C368   H385    1.084   .     S
C369   H376    1.077   .     S
C370   H386    1.076   .     S
C371   H372    1.085   .     S
H375   C875    1.083   1_554 S
N387   Zn398   2.011   .     S
N388   Zn399   2.011   .     S
N389   C478    1.157   1_455 S
O390   Zn398   2.000   .     S
O391   Zn399   2.000   .     S
O392   Zn398   1.972   .     S
O393   Zn399   1.944   .     S
O394   Zn398   2.000   .     S
O395   Zn399   2.000   .     S
O396   Zn398   1.944   .     S
O397   Zn399   1.972   .     S
C400   C408    1.419   .     S
C400   O447    1.284   .     A
C400   O448    1.284   .     A
C401   C403    1.475   .     S
C401   C422    1.421   .     A
C401   C418    1.398   .     A
C402   C408    1.397   .     A
C402   H434    1.084   .     S
C402   C62     1.370   1_565 S
C403   O450    1.286   .     A
C403   O449    1.305   .     A
C404   H436    1.084   .     S
C404   C405    1.397   .     A
C405   C406    1.397   .     A
C405   C414    1.420   .     S
C406   H437    1.084   .     S
C407   H438    1.084   .     S
C407   C408    1.397   .     A
C407   C64     1.370   1_565 S
C409   N445    1.366   .     A
C409   H439    1.081   .     S
C409   C467    1.416   .     S
C410   H440    1.081   .     S
C410   N444    1.367   .     A
C411   C422    1.407   .     A
C411   C933    1.419   .     S
C411   C936    1.422   .     S
C412   N444    1.366   .     A
C412   H441    1.081   .     S
C413   N445    1.367   .     A
C413   H435    1.080   .     S
C413   C469    1.415   .     S
C414   O451    1.284   .     A
C414   O452    1.284   .     A
C415   O454    1.291   .     A
C415   O453    1.289   .     A
C415   C417    1.446   .     S
C416   C428    1.393   .     A
C416   C934    1.444   1_554 S
C416   C937    1.412   1_554 S
C417   C427    1.392   .     A
C417   C428    1.396   .     A
C418   C419    1.391   .     A
C418   H430    1.082   .     S
C419   C933    1.394   .     S
C419   H945    1.083   .     S
C420   H431    1.077   .     S
C420   C924    1.419   1_554 S
C420   C932    1.394   1_554 S
C421   C929    1.444   .     S
C421   N503    1.157   .     S
C422   C426    1.412   .     A
C423   C427    1.387   .     A
C423   C924    1.422   1_554 S
C423   C937    1.424   1_554 S
C424   C425    1.393   .     A
C424   C936    1.424   .     S
C424   C929    1.412   .     S
C425   C426    1.382   .     A
C425   H442    1.084   .     S
C426   H433    1.077   .     S
C427   H443    1.076   .     S
C428   H429    1.085   .     S
H432   C932    1.083   1_554 S
N444   Zn455   2.011   .     S
N445   Zn456   2.011   .     S
O447   Zn455   2.000   .     S
O448   Zn456   2.000   .     S
O449   Zn455   1.972   .     S
O450   Zn456   1.944   .     S
O451   Zn455   2.000   .     S
O452   Zn456   2.000   .     S
O453   Zn455   1.944   .     S
O454   Zn456   1.972   .     S
C457   C465    1.419   .     S
C457   O504    1.284   .     A
C457   O505    1.284   .     A
C458   C460    1.475   .     S
C458   C479    1.421   .     A
C458   C475    1.398   .     A
C459   C465    1.397   .     A
C459   H491    1.084   .     S
C459   C119    1.370   1_565 S
C460   O507    1.286   .     A
C460   O506    1.305   .     A
C461   H493    1.084   .     S
C461   C462    1.397   .     A
C462   C463    1.397   .     A
C462   C471    1.420   .     S
C463   H494    1.084   .     S
C464   H495    1.084   .     S
C464   C465    1.397   .     A
C464   C121    1.370   1_565 S
C466   N502    1.366   .     A
C466   H496    1.081   .     S
C466   C353    1.416   1_655 S
C467   H497    1.081   .     S
C467   N501    1.367   .     A
C468   C479    1.407   .     A
C468   C990    1.419   .     S
C468   C993    1.422   .     S
C469   N501    1.366   .     A
C469   H498    1.081   .     S
C470   N502    1.367   .     A
C470   H492    1.080   .     S
C470   C355    1.415   1_655 S
C471   O508    1.284   .     A
C471   O509    1.284   .     A
C472   O511    1.291   .     A
C472   O510    1.289   .     A
C472   C474    1.446   .     S
C473   C485    1.393   .     A
C473   C991    1.444   1_554 S
C473   C994    1.412   1_554 S
C474   C484    1.392   .     A
C474   C485    1.396   .     A
C475   C476    1.391   .     A
C475   H487    1.082   .     S
C476   C990    1.394   .     S
C476   H1002   1.083   .     S
C477   H488    1.077   .     S
C477   C981    1.419   1_554 S
C477   C989    1.394   1_554 S
C478   C986    1.444   .     S
C478   N389    1.157   1_655 S
C479   C483    1.412   .     A
C480   C484    1.387   .     A
C480   C981    1.422   1_554 S
C480   C994    1.424   1_554 S
C481   C482    1.393   .     A
C481   C993    1.424   .     S
C481   C986    1.412   .     S
C482   C483    1.382   .     A
C482   H499    1.084   .     S
C483   H490    1.077   .     S
C484   H500    1.076   .     S
C485   H486    1.085   .     S
H489   C989    1.083   1_554 S
N501   Zn512   2.011   .     S
N502   Zn513   2.011   .     S
O504   Zn512   2.000   .     S
O505   Zn513   2.000   .     S
O506   Zn512   1.972   .     S
O507   Zn513   1.944   .     S
O508   Zn512   2.000   .     S
O509   Zn513   2.000   .     S
O510   Zn512   1.944   .     S
O511   Zn513   1.972   .     S
C514   C522    1.419   .     S
C514   O561    1.284   .     A
C514   O562    1.284   .     A
C515   C517    1.475   .     S
C515   C536    1.421   .     A
C515   C532    1.398   .     A
C516   C522    1.397   .     A
C516   H548    1.084   .     S
C516   C689    1.370   .     S
C517   O564    1.286   .     A
C517   O563    1.305   .     A
C518   H550    1.084   .     S
C518   C519    1.397   .     A
C518   C858    1.370   1_545 S
C519   C520    1.397   .     A
C519   C528    1.420   .     S
C520   H551    1.084   .     S
C520   C863    1.370   1_545 S
C521   H552    1.084   .     S
C521   C522    1.397   .     A
C521   C691    1.370   .     S
C523   N559    1.366   .     A
C523   H553    1.081   .     S
C523   C581    1.416   .     S
C524   H554    1.081   .     S
C524   N558    1.367   .     A
C524   C637    1.416   1_455 S
C525   C536    1.407   .     A
C525   C21     1.419   1_556 S
C525   C24     1.422   1_556 S
C526   N558    1.366   .     A
C526   H555    1.081   .     S
C526   C641    1.415   1_455 S
C527   N559    1.367   .     A
C527   H549    1.080   .     S
C527   C583    1.415   .     S
C528   O565    1.284   .     A
C528   O566    1.284   .     A
C529   O568    1.291   .     A
C529   O567    1.289   .     A
C529   C531    1.446   .     S
C530   C542    1.393   .     A
C531   C541    1.392   .     A
C531   C542    1.396   .     A
C532   C533    1.391   .     A
C532   H544    1.082   .     S
C533   C21     1.394   1_556 S
C533   H33     1.083   1_556 S
C534   H545    1.077   .     S
C535   C17     1.444   1_556 S
C535   N617    1.157   .     S
C536   C540    1.412   .     A
C537   C541    1.387   .     A
C538   C539    1.393   .     A
C538   C24     1.424   1_556 S
C538   C17     1.412   1_556 S
C539   C540    1.382   .     A
C539   H556    1.084   .     S
C540   H547    1.077   .     S
C541   H557    1.076   .     S
C542   H543    1.085   .     S
N558   Zn569   2.011   .     S
N559   Zn570   2.011   .     S
N560   C649    1.157   1_455 S
O561   Zn569   2.000   .     S
O562   Zn570   2.000   .     S
O563   Zn569   1.972   .     S
O564   Zn570   1.944   .     S
O565   Zn569   2.000   .     S
O566   Zn570   2.000   .     S
O567   Zn569   1.944   .     S
O568   Zn570   1.972   .     S
C571   C579    1.419   .     S
C571   O618    1.284   .     A
C571   O619    1.284   .     A
C572   C574    1.475   .     S
C572   C593    1.421   .     A
C572   C589    1.398   .     A
C573   C579    1.397   .     A
C573   H605    1.084   .     S
C573   C746    1.370   .     S
C574   O621    1.286   .     A
C574   O620    1.305   .     A
C575   H607    1.084   .     S
C575   C576    1.397   .     A
C575   C915    1.370   1_545 S
C576   C577    1.397   .     A
C576   C585    1.420   .     S
C577   H608    1.084   .     S
C577   C920    1.370   1_545 S
C578   H609    1.084   .     S
C578   C579    1.397   .     A
C578   C748    1.370   .     S
C580   N616    1.366   .     A
C580   H610    1.081   .     S
C580   C638    1.416   .     S
C581   H611    1.081   .     S
C581   N615    1.367   .     A
C582   C593    1.407   .     A
C582   C78     1.419   1_556 S
C582   C81     1.422   1_556 S
C583   N615    1.366   .     A
C583   H612    1.081   .     S
C584   N616    1.367   .     A
C584   H606    1.080   .     S
C584   C640    1.415   .     S
C585   O622    1.284   .     A
C585   O623    1.284   .     A
C586   O625    1.291   .     A
C586   O624    1.289   .     A
C586   C588    1.446   .     S
C587   C599    1.393   .     A
C588   C598    1.392   .     A
C588   C599    1.396   .     A
C589   C590    1.391   .     A
C589   H601    1.082   .     S
C590   C78     1.394   1_556 S
C590   H90     1.083   1_556 S
C591   H602    1.077   .     S
C592   C74     1.444   1_556 S
C592   N674    1.157   .     S
C593   C597    1.412   .     A
C594   C598    1.387   .     A
C595   C596    1.393   .     A
C595   C81     1.424   1_556 S
C595   C74     1.412   1_556 S
C596   C597    1.382   .     A
C596   H613    1.084   .     S
C597   H604    1.077   .     S
C598   H614    1.076   .     S
C599   H600    1.085   .     S
N615   Zn626   2.011   .     S
N616   Zn627   2.011   .     S
O618   Zn626   2.000   .     S
O619   Zn627   2.000   .     S
O620   Zn626   1.972   .     S
O621   Zn627   1.944   .     S
O622   Zn626   2.000   .     S
O623   Zn627   2.000   .     S
O624   Zn626   1.944   .     S
O625   Zn627   1.972   .     S
C628   C636    1.419   .     S
C628   O675    1.284   .     A
C628   O676    1.284   .     A
C629   C631    1.475   .     S
C629   C650    1.421   .     A
C629   C646    1.398   .     A
C630   C636    1.397   .     A
C630   H662    1.084   .     S
C630   C803    1.370   .     S
C631   O678    1.286   .     A
C631   O677    1.305   .     A
C632   H664    1.084   .     S
C632   C633    1.397   .     A
C632   C972    1.370   1_545 S
C633   C634    1.397   .     A
C633   C642    1.420   .     S
C634   H665    1.084   .     S
C634   C977    1.370   1_545 S
C635   H666    1.084   .     S
C635   C636    1.397   .     A
C635   C805    1.370   .     S
C637   N673    1.366   .     A
C637   H667    1.081   .     S
C637   C524    1.416   1_655 S
C638   H668    1.081   .     S
C638   N672    1.367   .     A
C639   C650    1.407   .     A
C639   C135    1.419   1_556 S
C639   C138    1.422   1_556 S
C640   N672    1.366   .     A
C640   H669    1.081   .     S
C641   N673    1.367   .     A
C641   H663    1.080   .     S
C641   C526    1.415   1_655 S
C642   O679    1.284   .     A
C642   O680    1.284   .     A
C643   O682    1.291   .     A
C643   O681    1.289   .     A
C643   C645    1.446   .     S
C644   C656    1.393   .     A
C645   C655    1.392   .     A
C645   C656    1.396   .     A
C646   C647    1.391   .     A
C646   H658    1.082   .     S
C647   C135    1.394   1_556 S
C647   H147    1.083   1_556 S
C648   H659    1.077   .     S
C649   C131    1.444   1_556 S
C649   N560    1.157   1_655 S
C650   C654    1.412   .     A
C651   C655    1.387   .     A
C652   C653    1.393   .     A
C652   C138    1.424   1_556 S
C652   C131    1.412   1_556 S
C653   C654    1.382   .     A
C653   H670    1.084   .     S
C654   H661    1.077   .     S
C655   H671    1.076   .     S
C656   H657    1.085   .     S
N672   Zn683   2.011   .     S
N673   Zn684   2.011   .     S
O675   Zn683   2.000   .     S
O676   Zn684   2.000   .     S
O677   Zn683   1.972   .     S
O678   Zn684   1.944   .     S
O679   Zn683   2.000   .     S
O680   Zn684   2.000   .     S
O681   Zn683   1.944   .     S
O682   Zn684   1.972   .     S
C685   C693    1.419   .     S
C685   O732    1.284   .     A
C685   O733    1.284   .     A
C686   C688    1.475   .     S
C686   C707    1.421   .     A
C686   C703    1.398   .     A
C687   C693    1.397   .     A
C687   H719    1.084   .     S
C687   C860    1.370   .     S
C688   O735    1.286   .     A
C688   O734    1.305   .     A
C689   H721    1.084   .     S
C689   C690    1.397   .     A
C690   C691    1.397   .     A
C690   C699    1.420   .     S
C691   H722    1.084   .     S
C692   H723    1.084   .     S
C692   C693    1.397   .     A
C692   C862    1.370   .     S
C694   N730    1.366   .     A
C694   H724    1.081   .     S
C694   C752    1.416   .     S
C695   H725    1.081   .     S
C695   N729    1.367   .     A
C695   C808    1.416   1_455 S
C696   C707    1.407   .     A
C696   C192    1.419   1_556 S
C696   C195    1.422   1_556 S
C697   N729    1.366   .     A
C697   H726    1.081   .     S
C697   C812    1.415   1_455 S
C698   N730    1.367   .     A
C698   H720    1.080   .     S
C698   C754    1.415   .     S
C699   O736    1.284   .     A
C699   O737    1.284   .     A
C700   O739    1.291   .     A
C700   O738    1.289   .     A
C700   C702    1.446   .     S
C701   C713    1.393   .     A
C702   C712    1.392   .     A
C702   C713    1.396   .     A
C703   C704    1.391   .     A
C703   H715    1.082   .     S
C704   C192    1.394   1_556 S
C704   H204    1.083   1_556 S
C705   H716    1.077   .     S
C706   C188    1.444   1_556 S
C706   N788    1.157   .     S
C707   C711    1.412   .     A
C708   C712    1.387   .     A
C709   C710    1.393   .     A
C709   C195    1.424   1_556 S
C709   C188    1.412   1_556 S
C710   C711    1.382   .     A
C710   H727    1.084   .     S
C711   H718    1.077   .     S
C712   H728    1.076   .     S
C713   H714    1.085   .     S
N729   Zn740   2.011   .     S
N730   Zn741   2.011   .     S
N731   C820    1.157   1_455 S
O732   Zn740   2.000   .     S
O733   Zn741   2.000   .     S
O734   Zn740   1.972   .     S
O735   Zn741   1.944   .     S
O736   Zn740   2.000   .     S
O737   Zn741   2.000   .     S
O738   Zn740   1.944   .     S
O739   Zn741   1.972   .     S
C742   C750    1.419   .     S
C742   O789    1.284   .     A
C742   O790    1.284   .     A
C743   C745    1.475   .     S
C743   C764    1.421   .     A
C743   C760    1.398   .     A
C744   C750    1.397   .     A
C744   H776    1.084   .     S
C744   C917    1.370   .     S
C745   O792    1.286   .     A
C745   O791    1.305   .     A
C746   H778    1.084   .     S
C746   C747    1.397   .     A
C747   C748    1.397   .     A
C747   C756    1.420   .     S
C748   H779    1.084   .     S
C749   H780    1.084   .     S
C749   C750    1.397   .     A
C749   C919    1.370   .     S
C751   N787    1.366   .     A
C751   H781    1.081   .     S
C751   C809    1.416   .     S
C752   H782    1.081   .     S
C752   N786    1.367   .     A
C753   C764    1.407   .     A
C753   C249    1.419   1_556 S
C753   C252    1.422   1_556 S
C754   N786    1.366   .     A
C754   H783    1.081   .     S
C755   N787    1.367   .     A
C755   H777    1.080   .     S
C755   C811    1.415   .     S
C756   O793    1.284   .     A
C756   O794    1.284   .     A
C757   O796    1.291   .     A
C757   O795    1.289   .     A
C757   C759    1.446   .     S
C758   C770    1.393   .     A
C759   C769    1.392   .     A
C759   C770    1.396   .     A
C760   C761    1.391   .     A
C760   H772    1.082   .     S
C761   C249    1.394   1_556 S
C761   H261    1.083   1_556 S
C762   H773    1.077   .     S
C763   C245    1.444   1_556 S
C763   N845    1.157   .     S
C764   C768    1.412   .     A
C765   C769    1.387   .     A
C766   C767    1.393   .     A
C766   C252    1.424   1_556 S
C766   C245    1.412   1_556 S
C767   C768    1.382   .     A
C767   H784    1.084   .     S
C768   H775    1.077   .     S
C769   H785    1.076   .     S
C770   H771    1.085   .     S
N786   Zn797   2.011   .     S
N787   Zn798   2.011   .     S
O789   Zn797   2.000   .     S
O790   Zn798   2.000   .     S
O791   Zn797   1.972   .     S
O792   Zn798   1.944   .     S
O793   Zn797   2.000   .     S
O794   Zn798   2.000   .     S
O795   Zn797   1.944   .     S
O796   Zn798   1.972   .     S
C799   C807    1.419   .     S
C799   O846    1.284   .     A
C799   O847    1.284   .     A
C800   C802    1.475   .     S
C800   C821    1.421   .     A
C800   C817    1.398   .     A
C801   C807    1.397   .     A
C801   H833    1.084   .     S
C801   C974    1.370   .     S
C802   O849    1.286   .     A
C802   O848    1.305   .     A
C803   H835    1.084   .     S
C803   C804    1.397   .     A
C804   C805    1.397   .     A
C804   C813    1.420   .     S
C805   H836    1.084   .     S
C806   H837    1.084   .     S
C806   C807    1.397   .     A
C806   C976    1.370   .     S
C808   N844    1.366   .     A
C808   H838    1.081   .     S
C808   C695    1.416   1_655 S
C809   H839    1.081   .     S
C809   N843    1.367   .     A
C810   C821    1.407   .     A
C810   C306    1.419   1_556 S
C810   C309    1.422   1_556 S
C811   N843    1.366   .     A
C811   H840    1.081   .     S
C812   N844    1.367   .     A
C812   H834    1.080   .     S
C812   C697    1.415   1_655 S
C813   O850    1.284   .     A
C813   O851    1.284   .     A
C814   O853    1.291   .     A
C814   O852    1.289   .     A
C814   C816    1.446   .     S
C815   C827    1.393   .     A
C816   C826    1.392   .     A
C816   C827    1.396   .     A
C817   C818    1.391   .     A
C817   H829    1.082   .     S
C818   C306    1.394   1_556 S
C818   H318    1.083   1_556 S
C819   H830    1.077   .     S
C820   C302    1.444   1_556 S
C820   N731    1.157   1_655 S
C821   C825    1.412   .     A
C822   C826    1.387   .     A
C823   C824    1.393   .     A
C823   C309    1.424   1_556 S
C823   C302    1.412   1_556 S
C824   C825    1.382   .     A
C824   H841    1.084   .     S
C825   H832    1.077   .     S
C826   H842    1.076   .     S
C827   H828    1.085   .     S
N843   Zn854   2.011   .     S
N844   Zn855   2.011   .     S
O846   Zn854   2.000   .     S
O847   Zn855   2.000   .     S
O848   Zn854   1.972   .     S
O849   Zn855   1.944   .     S
O850   Zn854   2.000   .     S
O851   Zn855   2.000   .     S
O852   Zn854   1.944   .     S
O853   Zn855   1.972   .     S
C856   C864    1.419   .     S
C856   O903    1.284   .     A
C856   O904    1.284   .     A
C857   C859    1.475   .     S
C857   C878    1.421   .     A
C857   C874    1.398   .     A
C858   C864    1.397   .     A
C858   H890    1.084   .     S
C858   C518    1.370   1_565 S
C859   O906    1.286   .     A
C859   O905    1.305   .     A
C860   H892    1.084   .     S
C860   C861    1.397   .     A
C861   C862    1.397   .     A
C861   C870    1.420   .     S
C862   H893    1.084   .     S
C863   H894    1.084   .     S
C863   C864    1.397   .     A
C863   C520    1.370   1_565 S
C865   N901    1.366   .     A
C865   H895    1.081   .     S
C865   C923    1.416   .     S
C866   H896    1.081   .     S
C866   N900    1.367   .     A
C866   C979    1.416   1_455 S
C867   C878    1.407   .     A
C867   C363    1.419   1_556 S
C867   C366    1.422   1_556 S
C868   N900    1.366   .     A
C868   H897    1.081   .     S
C868   C983    1.415   1_455 S
C869   N901    1.367   .     A
C869   H891    1.080   .     S
C869   C925    1.415   .     S
C870   O907    1.284   .     A
C870   O908    1.284   .     A
C871   O910    1.291   .     A
C871   O909    1.289   .     A
C871   C873    1.446   .     S
C872   C884    1.393   .     A
C873   C883    1.392   .     A
C873   C884    1.396   .     A
C874   C875    1.391   .     A
C874   H886    1.082   .     S
C875   C363    1.394   1_556 S
C875   H375    1.083   1_556 S
C876   H887    1.077   .     S
C877   C359    1.444   1_556 S
C877   N959    1.157   .     S
C878   C882    1.412   .     A
C879   C883    1.387   .     A
C880   C881    1.393   .     A
C880   C366    1.424   1_556 S
C880   C359    1.412   1_556 S
C881   C882    1.382   .     A
C881   H898    1.084   .     S
C882   H889    1.077   .     S
C883   H899    1.076   .     S
C884   H885    1.085   .     S
N900   Zn911   2.011   .     S
N901   Zn912   2.011   .     S
N902   C991    1.157   1_455 S
O903   Zn911   2.000   .     S
O904   Zn912   2.000   .     S
O905   Zn911   1.972   .     S
O906   Zn912   1.944   .     S
O907   Zn911   2.000   .     S
O908   Zn912   2.000   .     S
O909   Zn911   1.944   .     S
O910   Zn912   1.972   .     S
C913   C921    1.419   .     S
C913   O960    1.284   .     A
C913   O961    1.284   .     A
C914   C916    1.475   .     S
C914   C935    1.421   .     A
C914   C931    1.398   .     A
C915   C921    1.397   .     A
C915   H947    1.084   .     S
C915   C575    1.370   1_565 S
C916   O963    1.286   .     A
C916   O962    1.305   .     A
C917   H949    1.084   .     S
C917   C918    1.397   .     A
C918   C919    1.397   .     A
C918   C927    1.420   .     S
C919   H950    1.084   .     S
C920   H951    1.084   .     S
C920   C921    1.397   .     A
C920   C577    1.370   1_565 S
C922   N958    1.366   .     A
C922   H952    1.081   .     S
C922   C980    1.416   .     S
C923   H953    1.081   .     S
C923   N957    1.367   .     A
C924   C935    1.407   .     A
C924   C420    1.419   1_556 S
C924   C423    1.422   1_556 S
C925   N957    1.366   .     A
C925   H954    1.081   .     S
C926   N958    1.367   .     A
C926   H948    1.080   .     S
C926   C982    1.415   .     S
C927   O964    1.284   .     A
C927   O965    1.284   .     A
C928   O967    1.291   .     A
C928   O966    1.289   .     A
C928   C930    1.446   .     S
C929   C941    1.393   .     A
C930   C940    1.392   .     A
C930   C941    1.396   .     A
C931   C932    1.391   .     A
C931   H943    1.082   .     S
C932   C420    1.394   1_556 S
C932   H432    1.083   1_556 S
C933   H944    1.077   .     S
C934   C416    1.444   1_556 S
C934   N1016   1.157   .     S
C935   C939    1.412   .     A
C936   C940    1.387   .     A
C937   C938    1.393   .     A
C937   C423    1.424   1_556 S
C937   C416    1.412   1_556 S
C938   C939    1.382   .     A
C938   H955    1.084   .     S
C939   H946    1.077   .     S
C940   H956    1.076   .     S
C941   H942    1.085   .     S
N957   Zn968   2.011   .     S
N958   Zn969   2.011   .     S
O960   Zn968   2.000   .     S
O961   Zn969   2.000   .     S
O962   Zn968   1.972   .     S
O963   Zn969   1.944   .     S
O964   Zn968   2.000   .     S
O965   Zn969   2.000   .     S
O966   Zn968   1.944   .     S
O967   Zn969   1.972   .     S
C970   C978    1.419   .     S
C970   O1017   1.284   .     A
C970   O1018   1.284   .     A
C971   C973    1.475   .     S
C971   C992    1.421   .     A
C971   C988    1.398   .     A
C972   C978    1.397   .     A
C972   H1004   1.084   .     S
C972   C632    1.370   1_565 S
C973   O1020   1.286   .     A
C973   O1019   1.305   .     A
C974   H1006   1.084   .     S
C974   C975    1.397   .     A
C975   C976    1.397   .     A
C975   C984    1.420   .     S
C976   H1007   1.084   .     S
C977   H1008   1.084   .     S
C977   C978    1.397   .     A
C977   C634    1.370   1_565 S
C979   N1015   1.366   .     A
C979   H1009   1.081   .     S
C979   C866    1.416   1_655 S
C980   H1010   1.081   .     S
C980   N1014   1.367   .     A
C981   C992    1.407   .     A
C981   C477    1.419   1_556 S
C981   C480    1.422   1_556 S
C982   N1014   1.366   .     A
C982   H1011   1.081   .     S
C983   N1015   1.367   .     A
C983   H1005   1.080   .     S
C983   C868    1.415   1_655 S
C984   O1021   1.284   .     A
C984   O1022   1.284   .     A
C985   O1024   1.291   .     A
C985   O1023   1.289   .     A
C985   C987    1.446   .     S
C986   C998    1.393   .     A
C987   C997    1.392   .     A
C987   C998    1.396   .     A
C988   C989    1.391   .     A
C988   H1000   1.082   .     S
C989   C477    1.394   1_556 S
C989   H489    1.083   1_556 S
C990   H1001   1.077   .     S
C991   C473    1.444   1_556 S
C991   N902    1.157   1_655 S
C992   C996    1.412   .     A
C993   C997    1.387   .     A
C994   C995    1.393   .     A
C994   C480    1.424   1_556 S
C994   C473    1.412   1_556 S
C995   C996    1.382   .     A
C995   H1012   1.084   .     S
C996   H1003   1.077   .     S
C997   H1013   1.076   .     S
C998   H999    1.085   .     S
N1014  Zn1025  2.011   .     S
N1015  Zn1026  2.011   .     S
O1017  Zn1025  2.000   .     S
O1018  Zn1026  2.000   .     S
O1019  Zn1025  1.972   .     S
O1020  Zn1026  1.944   .     S
O1021  Zn1025  2.000   .     S
O1022  Zn1026  2.000   .     S
O1023  Zn1025  1.944   .     S
O1024  Zn1026  1.972   .     S
