data_str_m2_o1_o18_pcu_sym.36
_audit_creation_date              2020-01-03
_audit_creation_method            'Materials Studio'
_symmetry_space_group_name_H-M    'P1'
_symmetry_Int_Tables_number       1
_symmetry_cell_setting            triclinic
loop_
_symmetry_equiv_pos_as_xyz
  x,y,z
_cell_length_a                    28.8586
_cell_length_b                    32.4942
_cell_length_c                    31.7319
_cell_angle_alpha                 87.0983
_cell_angle_beta                  72.8873
_cell_angle_gamma                 90.1605
loop_
_atom_site_label
_atom_site_type_symbol
_atom_site_fract_x
_atom_site_fract_y
_atom_site_fract_z
_atom_site_U_iso_or_equiv
_atom_site_adp_type
_atom_site_occupancy
C1     C     0.33331   0.08747   0.24987   0.00000  Uiso   1.00
C2     C     0.04304   0.02160   0.24641   0.00000  Uiso   1.00
C3     C     0.33332   0.29053   0.25028   0.00000  Uiso   1.00
C4     C     0.00001   0.04280   0.24972   0.00000  Uiso   1.00
C5     C     0.18497   0.13514   0.27072   0.00000  Uiso   1.00
C6     C     0.14836   0.19820   0.22928   0.00000  Uiso   1.00
C7     C     0.13479   0.13626   0.27299   0.00000  Uiso   1.00
C8     C     0.19854   0.19708   0.22701   0.00000  Uiso   1.00
C9     C     0.30551   0.16534   0.33595   0.00000  Uiso   1.00
C10    C     0.02782   0.16800   0.16405   0.00000  Uiso   1.00
C11    C     0.28951   0.16234   0.38502   0.00000  Uiso   1.00
C12    C     0.00002   0.24587   0.25013   0.00000  Uiso   1.00
C13    C     0.04382   0.17100   0.11498   0.00000  Uiso   1.00
C14    C     0.30670   0.15264   0.45533   0.00000  Uiso   1.00
C15    C     0.02663   0.18070   0.04467   0.00000  Uiso   1.00
C16    C     0.32312   0.16235   0.41001   0.00000  Uiso   1.00
C17    C     0.01021   0.17099   0.08999   0.00000  Uiso   1.00
C18    C     0.23983   0.15612   0.40812   0.00000  Uiso   1.00
C19    C     0.09351   0.17723   0.09188   0.00000  Uiso   1.00
C20    C     0.22364   0.16068   0.45385   0.00000  Uiso   1.00
C21    C     0.10969   0.17266   0.04615   0.00000  Uiso   1.00
C22    C     0.25719   0.15355   0.47781   0.00000  Uiso   1.00
C23    C     0.19169   0.15054   0.04589   0.00000  Uiso   1.00
C24    C     0.07614   0.17980   0.02219   0.00000  Uiso   1.00
C25    C     0.17460   0.16874   0.47663   0.00000  Uiso   1.00
C26    C     0.15874   0.16461   0.02337   0.00000  Uiso   1.00
C27    C     0.14165   0.18281   0.45411   0.00000  Uiso   1.00
C28    C     0.24062   0.14661   0.02356   0.00000  Uiso   1.00
C29    C     0.09271   0.18674   0.47644   0.00000  Uiso   1.00
C30    C     0.29037   0.02099   0.25311   0.00000  Uiso   1.00
C31    C     0.04297   0.31234   0.24689   0.00000  Uiso   1.00
C32    C     0.29029   0.31174   0.25359   0.00000  Uiso   1.00
Cu33   Cu    0.04689   0.16667   0.25000   0.00000  Uiso   1.00
Cu34   Cu    0.28645   0.16666   0.25000   0.00000  Uiso   1.00
H35    H     0.26539   0.13765   0.04204   0.00000  Uiso   1.00
H36    H     0.07681   0.03778   0.24334   0.00000  Uiso   1.00
H37    H     0.29082   0.13850   0.12793   0.00000  Uiso   1.00
H38    H     0.04252   0.19483   0.37206   0.00000  Uiso   1.00
H39    H     0.18422   0.07699   0.28760   0.00000  Uiso   1.00
H40    H     0.14911   0.25634   0.21241   0.00000  Uiso   1.00
H41    H     0.06794   0.19570   0.45796   0.00000  Uiso   1.00
H42    H     0.33291   0.14657   0.47300   0.00000  Uiso   1.00
H43    H     0.00042   0.18678   0.02700   0.00000  Uiso   1.00
H44    H     0.17999   0.14299   0.08107   0.00000  Uiso   1.00
H45    H     0.15335   0.19036   0.41893   0.00000  Uiso   1.00
H46    H     0.25678   0.03666   0.25546   0.00000  Uiso   1.00
H47    H     0.07655   0.29667   0.24454   0.00000  Uiso   1.00
H48    H     0.25652   0.29555   0.25666   0.00000  Uiso   1.00
I49    I     0.13620   0.21915   0.11527   0.00000  Uiso   1.00
I50    I     0.19713   0.11419   0.38473   0.00000  Uiso   1.00
I51    I     0.08741   0.09430   0.32075   0.00000  Uiso   1.00
I52    I     0.24593   0.23903   0.17925   0.00000  Uiso   1.00
N53    N     0.11736   0.16668   0.24999   0.00000  Uiso   1.00
N54    N     0.21597   0.16666   0.25001   0.00000  Uiso   1.00
O55    O     0.03958   0.10655   0.25000   0.00000  Uiso   1.00
O56    O     0.03874   0.16937   0.39140   0.00000  Uiso   1.00
O57    O     0.20359   0.10195   0.28835   0.00000  Uiso   1.00
O58    O     0.12975   0.23138   0.21165   0.00000  Uiso   1.00
O59    O     0.29375   0.22678   0.25000   0.00000  Uiso   1.00
O60    O     0.29372   0.10654   0.25000   0.00000  Uiso   1.00
O61    O     0.03961   0.22679   0.24999   0.00000  Uiso   1.00
O62    O     0.01852   0.16668   0.31491   0.00000  Uiso   1.00
O63    O     0.31481   0.16666   0.18508   0.00000  Uiso   1.00
O64    O     0.27267   0.16667   0.31492   0.00000  Uiso   1.00
O65    O     0.06067   0.16667   0.18508   0.00000  Uiso   1.00
O66    O     0.29459   0.16396   0.10860   0.00000  Uiso   1.00
C67    C     0.66665   0.08747   0.24987   0.00000  Uiso   1.00
C68    C     0.37637   0.02160   0.24641   0.00000  Uiso   1.00
C69    C     0.66665   0.29053   0.25028   0.00000  Uiso   1.00
C70    C     0.33335   0.04280   0.24972   0.00000  Uiso   1.00
C71    C     0.51830   0.13514   0.27072   0.00000  Uiso   1.00
C72    C     0.48169   0.19820   0.22928   0.00000  Uiso   1.00
C73    C     0.46813   0.13626   0.27299   0.00000  Uiso   1.00
C74    C     0.53187   0.19708   0.22701   0.00000  Uiso   1.00
C75    C     0.63885   0.16534   0.33595   0.00000  Uiso   1.00
C76    C     0.36115   0.16800   0.16405   0.00000  Uiso   1.00
C77    C     0.62284   0.16234   0.38502   0.00000  Uiso   1.00
C78    C     0.33335   0.24587   0.25013   0.00000  Uiso   1.00
C79    C     0.37716   0.17100   0.11498   0.00000  Uiso   1.00
C80    C     0.64003   0.15264   0.45533   0.00000  Uiso   1.00
C81    C     0.35997   0.18070   0.04467   0.00000  Uiso   1.00
C82    C     0.65646   0.16235   0.41001   0.00000  Uiso   1.00
C83    C     0.34354   0.17099   0.08999   0.00000  Uiso   1.00
C84    C     0.57316   0.15612   0.40812   0.00000  Uiso   1.00
C85    C     0.42684   0.17723   0.09188   0.00000  Uiso   1.00
C86    C     0.55697   0.16068   0.45385   0.00000  Uiso   1.00
C87    C     0.44303   0.17266   0.04615   0.00000  Uiso   1.00
C88    C     0.59052   0.15355   0.47781   0.00000  Uiso   1.00
C89    C     0.52502   0.15054   0.04589   0.00000  Uiso   1.00
C90    C     0.40948   0.17980   0.02219   0.00000  Uiso   1.00
C91    C     0.50793   0.16874   0.47663   0.00000  Uiso   1.00
C92    C     0.49207   0.16461   0.02337   0.00000  Uiso   1.00
C93    C     0.47498   0.18281   0.45411   0.00000  Uiso   1.00
C94    C     0.57395   0.14661   0.02356   0.00000  Uiso   1.00
C95    C     0.42605   0.18674   0.47644   0.00000  Uiso   1.00
C96    C     0.62370   0.02099   0.25311   0.00000  Uiso   1.00
C97    C     0.37630   0.31234   0.24689   0.00000  Uiso   1.00
C98    C     0.62362   0.31174   0.25359   0.00000  Uiso   1.00
Cu99   Cu    0.38022   0.16667   0.25000   0.00000  Uiso   1.00
Cu100  Cu    0.61978   0.16666   0.25000   0.00000  Uiso   1.00
H101   H     0.59873   0.13765   0.04204   0.00000  Uiso   1.00
H102   H     0.41015   0.03778   0.24334   0.00000  Uiso   1.00
H103   H     0.62415   0.13850   0.12793   0.00000  Uiso   1.00
H104   H     0.37585   0.19483   0.37206   0.00000  Uiso   1.00
H105   H     0.51755   0.07699   0.28760   0.00000  Uiso   1.00
H106   H     0.48245   0.25634   0.21241   0.00000  Uiso   1.00
H107   H     0.40127   0.19570   0.45796   0.00000  Uiso   1.00
H108   H     0.66625   0.14657   0.47300   0.00000  Uiso   1.00
H109   H     0.33375   0.18678   0.02700   0.00000  Uiso   1.00
H110   H     0.51332   0.14299   0.08107   0.00000  Uiso   1.00
H111   H     0.48668   0.19036   0.41893   0.00000  Uiso   1.00
H112   H     0.59011   0.03666   0.25546   0.00000  Uiso   1.00
H113   H     0.40989   0.29667   0.24454   0.00000  Uiso   1.00
H114   H     0.58985   0.29555   0.25666   0.00000  Uiso   1.00
I115   I     0.46953   0.21915   0.11527   0.00000  Uiso   1.00
I116   I     0.53046   0.11419   0.38473   0.00000  Uiso   1.00
I117   I     0.42074   0.09430   0.32075   0.00000  Uiso   1.00
I118   I     0.57926   0.23903   0.17925   0.00000  Uiso   1.00
N119   N     0.45069   0.16668   0.24999   0.00000  Uiso   1.00
N120   N     0.54931   0.16666   0.25001   0.00000  Uiso   1.00
O121   O     0.37291   0.10655   0.25000   0.00000  Uiso   1.00
O122   O     0.37208   0.16937   0.39140   0.00000  Uiso   1.00
O123   O     0.53692   0.10195   0.28835   0.00000  Uiso   1.00
O124   O     0.46308   0.23138   0.21165   0.00000  Uiso   1.00
O125   O     0.62709   0.22678   0.25000   0.00000  Uiso   1.00
O126   O     0.62706   0.10654   0.25000   0.00000  Uiso   1.00
O127   O     0.37294   0.22679   0.24999   0.00000  Uiso   1.00
O128   O     0.35186   0.16668   0.31491   0.00000  Uiso   1.00
O129   O     0.64814   0.16666   0.18508   0.00000  Uiso   1.00
O130   O     0.60600   0.16667   0.31492   0.00000  Uiso   1.00
O131   O     0.39400   0.16667   0.18508   0.00000  Uiso   1.00
O132   O     0.62792   0.16396   0.10860   0.00000  Uiso   1.00
C133   C     0.99998   0.08747   0.24987   0.00000  Uiso   1.00
C134   C     0.70971   0.02160   0.24641   0.00000  Uiso   1.00
C135   C     0.99999   0.29053   0.25028   0.00000  Uiso   1.00
C136   C     0.66668   0.04280   0.24972   0.00000  Uiso   1.00
C137   C     0.85164   0.13514   0.27072   0.00000  Uiso   1.00
C138   C     0.81503   0.19820   0.22928   0.00000  Uiso   1.00
C139   C     0.80146   0.13626   0.27299   0.00000  Uiso   1.00
C140   C     0.86521   0.19708   0.22701   0.00000  Uiso   1.00
C141   C     0.97218   0.16534   0.33595   0.00000  Uiso   1.00
C142   C     0.69448   0.16800   0.16405   0.00000  Uiso   1.00
C143   C     0.95618   0.16234   0.38502   0.00000  Uiso   1.00
C144   C     0.66669   0.24587   0.25013   0.00000  Uiso   1.00
C145   C     0.71049   0.17100   0.11498   0.00000  Uiso   1.00
C146   C     0.97337   0.15264   0.45533   0.00000  Uiso   1.00
C147   C     0.69330   0.18070   0.04467   0.00000  Uiso   1.00
C148   C     0.98979   0.16235   0.41001   0.00000  Uiso   1.00
C149   C     0.67688   0.17099   0.08999   0.00000  Uiso   1.00
C150   C     0.90649   0.15612   0.40812   0.00000  Uiso   1.00
C151   C     0.76017   0.17723   0.09188   0.00000  Uiso   1.00
C152   C     0.89031   0.16068   0.45385   0.00000  Uiso   1.00
C153   C     0.77636   0.17266   0.04615   0.00000  Uiso   1.00
C154   C     0.92386   0.15355   0.47781   0.00000  Uiso   1.00
C155   C     0.85835   0.15054   0.04589   0.00000  Uiso   1.00
C156   C     0.74281   0.17980   0.02219   0.00000  Uiso   1.00
C157   C     0.84126   0.16874   0.47663   0.00000  Uiso   1.00
C158   C     0.82540   0.16461   0.02337   0.00000  Uiso   1.00
C159   C     0.80832   0.18281   0.45411   0.00000  Uiso   1.00
C160   C     0.90729   0.14661   0.02356   0.00000  Uiso   1.00
C161   C     0.75938   0.18674   0.47644   0.00000  Uiso   1.00
C162   C     0.95703   0.02099   0.25311   0.00000  Uiso   1.00
C163   C     0.70963   0.31234   0.24689   0.00000  Uiso   1.00
C164   C     0.95696   0.31174   0.25359   0.00000  Uiso   1.00
Cu165  Cu    0.71355   0.16667   0.25000   0.00000  Uiso   1.00
Cu166  Cu    0.95311   0.16666   0.25000   0.00000  Uiso   1.00
H167   H     0.93206   0.13765   0.04204   0.00000  Uiso   1.00
H168   H     0.74348   0.03778   0.24334   0.00000  Uiso   1.00
H169   H     0.95749   0.13850   0.12793   0.00000  Uiso   1.00
H170   H     0.70918   0.19483   0.37206   0.00000  Uiso   1.00
H171   H     0.85089   0.07699   0.28760   0.00000  Uiso   1.00
H172   H     0.81578   0.25634   0.21241   0.00000  Uiso   1.00
H173   H     0.73461   0.19570   0.45796   0.00000  Uiso   1.00
H174   H     0.99958   0.14657   0.47300   0.00000  Uiso   1.00
H175   H     0.66709   0.18678   0.02700   0.00000  Uiso   1.00
H176   H     0.84665   0.14299   0.08107   0.00000  Uiso   1.00
H177   H     0.82002   0.19036   0.41893   0.00000  Uiso   1.00
H178   H     0.92345   0.03666   0.25546   0.00000  Uiso   1.00
H179   H     0.74322   0.29667   0.24454   0.00000  Uiso   1.00
H180   H     0.92318   0.29555   0.25666   0.00000  Uiso   1.00
I181   I     0.80286   0.21915   0.11527   0.00000  Uiso   1.00
I182   I     0.86379   0.11419   0.38473   0.00000  Uiso   1.00
I183   I     0.75407   0.09430   0.32075   0.00000  Uiso   1.00
I184   I     0.91259   0.23903   0.17925   0.00000  Uiso   1.00
N185   N     0.78403   0.16668   0.24999   0.00000  Uiso   1.00
N186   N     0.88264   0.16666   0.25001   0.00000  Uiso   1.00
O187   O     0.70625   0.10655   0.25000   0.00000  Uiso   1.00
O188   O     0.70541   0.16937   0.39140   0.00000  Uiso   1.00
O189   O     0.87025   0.10195   0.28835   0.00000  Uiso   1.00
O190   O     0.79641   0.23138   0.21165   0.00000  Uiso   1.00
O191   O     0.96042   0.22678   0.25000   0.00000  Uiso   1.00
O192   O     0.96039   0.10654   0.25000   0.00000  Uiso   1.00
O193   O     0.70628   0.22679   0.24999   0.00000  Uiso   1.00
O194   O     0.68519   0.16668   0.31491   0.00000  Uiso   1.00
O195   O     0.98148   0.16666   0.18508   0.00000  Uiso   1.00
O196   O     0.93933   0.16667   0.31492   0.00000  Uiso   1.00
O197   O     0.72733   0.16667   0.18508   0.00000  Uiso   1.00
O198   O     0.96126   0.16396   0.10860   0.00000  Uiso   1.00
C199   C     0.33331   0.42080   0.24987   0.00000  Uiso   1.00
C200   C     0.04304   0.35493   0.24641   0.00000  Uiso   1.00
C201   C     0.33332   0.62387   0.25028   0.00000  Uiso   1.00
C202   C     0.00001   0.37613   0.24972   0.00000  Uiso   1.00
C203   C     0.18497   0.46847   0.27072   0.00000  Uiso   1.00
C204   C     0.14836   0.53153   0.22928   0.00000  Uiso   1.00
C205   C     0.13479   0.46959   0.27299   0.00000  Uiso   1.00
C206   C     0.19854   0.53041   0.22701   0.00000  Uiso   1.00
C207   C     0.30551   0.49867   0.33595   0.00000  Uiso   1.00
C208   C     0.02782   0.50133   0.16405   0.00000  Uiso   1.00
C209   C     0.28951   0.49568   0.38502   0.00000  Uiso   1.00
C210   C     0.00002   0.57920   0.25013   0.00000  Uiso   1.00
C211   C     0.04382   0.50433   0.11498   0.00000  Uiso   1.00
C212   C     0.30670   0.48598   0.45533   0.00000  Uiso   1.00
C213   C     0.02663   0.51404   0.04467   0.00000  Uiso   1.00
C214   C     0.32312   0.49568   0.41001   0.00000  Uiso   1.00
C215   C     0.01021   0.50432   0.08999   0.00000  Uiso   1.00
C216   C     0.23983   0.48945   0.40812   0.00000  Uiso   1.00
C217   C     0.09351   0.51056   0.09188   0.00000  Uiso   1.00
C218   C     0.22364   0.49402   0.45385   0.00000  Uiso   1.00
C219   C     0.10969   0.50600   0.04615   0.00000  Uiso   1.00
C220   C     0.25719   0.48688   0.47781   0.00000  Uiso   1.00
C221   C     0.19169   0.48387   0.04589   0.00000  Uiso   1.00
C222   C     0.07614   0.51313   0.02219   0.00000  Uiso   1.00
C223   C     0.17460   0.50208   0.47663   0.00000  Uiso   1.00
C224   C     0.15874   0.49794   0.02337   0.00000  Uiso   1.00
C225   C     0.14165   0.51615   0.45411   0.00000  Uiso   1.00
C226   C     0.24062   0.47995   0.02356   0.00000  Uiso   1.00
C227   C     0.09271   0.52007   0.47644   0.00000  Uiso   1.00
C228   C     0.29037   0.35432   0.25311   0.00000  Uiso   1.00
C229   C     0.04297   0.64568   0.24689   0.00000  Uiso   1.00
C230   C     0.29029   0.64507   0.25359   0.00000  Uiso   1.00
Cu231  Cu    0.04689   0.50001   0.25000   0.00000  Uiso   1.00
Cu232  Cu    0.28645   0.49999   0.25000   0.00000  Uiso   1.00
H233   H     0.26539   0.47098   0.04204   0.00000  Uiso   1.00
H234   H     0.07681   0.37112   0.24334   0.00000  Uiso   1.00
H235   H     0.29082   0.47183   0.12793   0.00000  Uiso   1.00
H236   H     0.04252   0.52817   0.37206   0.00000  Uiso   1.00
H237   H     0.18422   0.41033   0.28760   0.00000  Uiso   1.00
H238   H     0.14911   0.58967   0.21241   0.00000  Uiso   1.00
H239   H     0.06794   0.52903   0.45796   0.00000  Uiso   1.00
H240   H     0.33291   0.47990   0.47300   0.00000  Uiso   1.00
H241   H     0.00042   0.52011   0.02700   0.00000  Uiso   1.00
H242   H     0.17999   0.47632   0.08107   0.00000  Uiso   1.00
H243   H     0.15335   0.52370   0.41893   0.00000  Uiso   1.00
H244   H     0.25678   0.36999   0.25546   0.00000  Uiso   1.00
H245   H     0.07655   0.63001   0.24454   0.00000  Uiso   1.00
H246   H     0.25652   0.62888   0.25666   0.00000  Uiso   1.00
I247   I     0.13620   0.55249   0.11527   0.00000  Uiso   1.00
I248   I     0.19713   0.44753   0.38473   0.00000  Uiso   1.00
I249   I     0.08741   0.42763   0.32075   0.00000  Uiso   1.00
I250   I     0.24593   0.57237   0.17925   0.00000  Uiso   1.00
N251   N     0.11736   0.50001   0.24999   0.00000  Uiso   1.00
N252   N     0.21597   0.49999   0.25001   0.00000  Uiso   1.00
O253   O     0.03958   0.43989   0.25000   0.00000  Uiso   1.00
O254   O     0.03874   0.50271   0.39140   0.00000  Uiso   1.00
O255   O     0.20359   0.43529   0.28835   0.00000  Uiso   1.00
O256   O     0.12975   0.56471   0.21165   0.00000  Uiso   1.00
O257   O     0.29375   0.56011   0.25000   0.00000  Uiso   1.00
O258   O     0.29372   0.43988   0.25000   0.00000  Uiso   1.00
O259   O     0.03961   0.56012   0.24999   0.00000  Uiso   1.00
O260   O     0.01852   0.50001   0.31491   0.00000  Uiso   1.00
O261   O     0.31481   0.49999   0.18508   0.00000  Uiso   1.00
O262   O     0.27267   0.50000   0.31492   0.00000  Uiso   1.00
O263   O     0.06067   0.50000   0.18508   0.00000  Uiso   1.00
O264   O     0.29459   0.49729   0.10860   0.00000  Uiso   1.00
C265   C     0.66665   0.42080   0.24987   0.00000  Uiso   1.00
C266   C     0.37637   0.35493   0.24641   0.00000  Uiso   1.00
C267   C     0.66665   0.62387   0.25028   0.00000  Uiso   1.00
C268   C     0.33335   0.37613   0.24972   0.00000  Uiso   1.00
C269   C     0.51830   0.46847   0.27072   0.00000  Uiso   1.00
C270   C     0.48169   0.53153   0.22928   0.00000  Uiso   1.00
C271   C     0.46813   0.46959   0.27299   0.00000  Uiso   1.00
C272   C     0.53187   0.53041   0.22701   0.00000  Uiso   1.00
C273   C     0.63885   0.49867   0.33595   0.00000  Uiso   1.00
C274   C     0.36115   0.50133   0.16405   0.00000  Uiso   1.00
C275   C     0.62284   0.49568   0.38502   0.00000  Uiso   1.00
C276   C     0.33335   0.57920   0.25013   0.00000  Uiso   1.00
C277   C     0.37716   0.50433   0.11498   0.00000  Uiso   1.00
C278   C     0.64003   0.48598   0.45533   0.00000  Uiso   1.00
C279   C     0.35997   0.51404   0.04467   0.00000  Uiso   1.00
C280   C     0.65646   0.49568   0.41001   0.00000  Uiso   1.00
C281   C     0.34354   0.50432   0.08999   0.00000  Uiso   1.00
C282   C     0.57316   0.48945   0.40812   0.00000  Uiso   1.00
C283   C     0.42684   0.51056   0.09188   0.00000  Uiso   1.00
C284   C     0.55697   0.49402   0.45385   0.00000  Uiso   1.00
C285   C     0.44303   0.50600   0.04615   0.00000  Uiso   1.00
C286   C     0.59052   0.48688   0.47781   0.00000  Uiso   1.00
C287   C     0.52502   0.48387   0.04589   0.00000  Uiso   1.00
C288   C     0.40948   0.51313   0.02219   0.00000  Uiso   1.00
C289   C     0.50793   0.50208   0.47663   0.00000  Uiso   1.00
C290   C     0.49207   0.49794   0.02337   0.00000  Uiso   1.00
C291   C     0.47498   0.51615   0.45411   0.00000  Uiso   1.00
C292   C     0.57395   0.47995   0.02356   0.00000  Uiso   1.00
C293   C     0.42605   0.52007   0.47644   0.00000  Uiso   1.00
C294   C     0.62370   0.35432   0.25311   0.00000  Uiso   1.00
C295   C     0.37630   0.64568   0.24689   0.00000  Uiso   1.00
C296   C     0.62362   0.64507   0.25359   0.00000  Uiso   1.00
Cu297  Cu    0.38022   0.50001   0.25000   0.00000  Uiso   1.00
Cu298  Cu    0.61978   0.49999   0.25000   0.00000  Uiso   1.00
H299   H     0.59873   0.47098   0.04204   0.00000  Uiso   1.00
H300   H     0.41015   0.37112   0.24334   0.00000  Uiso   1.00
H301   H     0.62415   0.47183   0.12793   0.00000  Uiso   1.00
H302   H     0.37585   0.52817   0.37206   0.00000  Uiso   1.00
H303   H     0.51755   0.41033   0.28760   0.00000  Uiso   1.00
H304   H     0.48245   0.58967   0.21241   0.00000  Uiso   1.00
H305   H     0.40127   0.52903   0.45796   0.00000  Uiso   1.00
H306   H     0.66625   0.47990   0.47300   0.00000  Uiso   1.00
H307   H     0.33375   0.52011   0.02700   0.00000  Uiso   1.00
H308   H     0.51332   0.47632   0.08107   0.00000  Uiso   1.00
H309   H     0.48668   0.52370   0.41893   0.00000  Uiso   1.00
H310   H     0.59011   0.36999   0.25546   0.00000  Uiso   1.00
H311   H     0.40989   0.63001   0.24454   0.00000  Uiso   1.00
H312   H     0.58985   0.62888   0.25666   0.00000  Uiso   1.00
I313   I     0.46953   0.55249   0.11527   0.00000  Uiso   1.00
I314   I     0.53046   0.44753   0.38473   0.00000  Uiso   1.00
I315   I     0.42074   0.42763   0.32075   0.00000  Uiso   1.00
I316   I     0.57926   0.57237   0.17925   0.00000  Uiso   1.00
N317   N     0.45069   0.50001   0.24999   0.00000  Uiso   1.00
N318   N     0.54931   0.49999   0.25001   0.00000  Uiso   1.00
O319   O     0.37291   0.43989   0.25000   0.00000  Uiso   1.00
O320   O     0.37208   0.50271   0.39140   0.00000  Uiso   1.00
O321   O     0.53692   0.43529   0.28835   0.00000  Uiso   1.00
O322   O     0.46308   0.56471   0.21165   0.00000  Uiso   1.00
O323   O     0.62709   0.56011   0.25000   0.00000  Uiso   1.00
O324   O     0.62706   0.43988   0.25000   0.00000  Uiso   1.00
O325   O     0.37294   0.56012   0.24999   0.00000  Uiso   1.00
O326   O     0.35186   0.50001   0.31491   0.00000  Uiso   1.00
O327   O     0.64814   0.49999   0.18508   0.00000  Uiso   1.00
O328   O     0.60600   0.50000   0.31492   0.00000  Uiso   1.00
O329   O     0.39400   0.50000   0.18508   0.00000  Uiso   1.00
O330   O     0.62792   0.49729   0.10860   0.00000  Uiso   1.00
C331   C     0.99998   0.42080   0.24987   0.00000  Uiso   1.00
C332   C     0.70971   0.35493   0.24641   0.00000  Uiso   1.00
C333   C     0.99999   0.62387   0.25028   0.00000  Uiso   1.00
C334   C     0.66668   0.37613   0.24972   0.00000  Uiso   1.00
C335   C     0.85164   0.46847   0.27072   0.00000  Uiso   1.00
C336   C     0.81503   0.53153   0.22928   0.00000  Uiso   1.00
C337   C     0.80146   0.46959   0.27299   0.00000  Uiso   1.00
C338   C     0.86521   0.53041   0.22701   0.00000  Uiso   1.00
C339   C     0.97218   0.49867   0.33595   0.00000  Uiso   1.00
C340   C     0.69448   0.50133   0.16405   0.00000  Uiso   1.00
C341   C     0.95618   0.49568   0.38502   0.00000  Uiso   1.00
C342   C     0.66669   0.57920   0.25013   0.00000  Uiso   1.00
C343   C     0.71049   0.50433   0.11498   0.00000  Uiso   1.00
C344   C     0.97337   0.48598   0.45533   0.00000  Uiso   1.00
C345   C     0.69330   0.51404   0.04467   0.00000  Uiso   1.00
C346   C     0.98979   0.49568   0.41001   0.00000  Uiso   1.00
C347   C     0.67688   0.50432   0.08999   0.00000  Uiso   1.00
C348   C     0.90649   0.48945   0.40812   0.00000  Uiso   1.00
C349   C     0.76017   0.51056   0.09188   0.00000  Uiso   1.00
C350   C     0.89031   0.49402   0.45385   0.00000  Uiso   1.00
C351   C     0.77636   0.50600   0.04615   0.00000  Uiso   1.00
C352   C     0.92386   0.48688   0.47781   0.00000  Uiso   1.00
C353   C     0.85835   0.48387   0.04589   0.00000  Uiso   1.00
C354   C     0.74281   0.51313   0.02219   0.00000  Uiso   1.00
C355   C     0.84126   0.50208   0.47663   0.00000  Uiso   1.00
C356   C     0.82540   0.49794   0.02337   0.00000  Uiso   1.00
C357   C     0.80832   0.51615   0.45411   0.00000  Uiso   1.00
C358   C     0.90729   0.47995   0.02356   0.00000  Uiso   1.00
C359   C     0.75938   0.52007   0.47644   0.00000  Uiso   1.00
C360   C     0.95703   0.35432   0.25311   0.00000  Uiso   1.00
C361   C     0.70963   0.64568   0.24689   0.00000  Uiso   1.00
C362   C     0.95696   0.64507   0.25359   0.00000  Uiso   1.00
Cu363  Cu    0.71355   0.50001   0.25000   0.00000  Uiso   1.00
Cu364  Cu    0.95311   0.49999   0.25000   0.00000  Uiso   1.00
H365   H     0.93206   0.47098   0.04204   0.00000  Uiso   1.00
H366   H     0.74348   0.37112   0.24334   0.00000  Uiso   1.00
H367   H     0.95749   0.47183   0.12793   0.00000  Uiso   1.00
H368   H     0.70918   0.52817   0.37206   0.00000  Uiso   1.00
H369   H     0.85089   0.41033   0.28760   0.00000  Uiso   1.00
H370   H     0.81578   0.58967   0.21241   0.00000  Uiso   1.00
H371   H     0.73461   0.52903   0.45796   0.00000  Uiso   1.00
H372   H     0.99958   0.47990   0.47300   0.00000  Uiso   1.00
H373   H     0.66709   0.52011   0.02700   0.00000  Uiso   1.00
H374   H     0.84665   0.47632   0.08107   0.00000  Uiso   1.00
H375   H     0.82002   0.52370   0.41893   0.00000  Uiso   1.00
H376   H     0.92345   0.36999   0.25546   0.00000  Uiso   1.00
H377   H     0.74322   0.63001   0.24454   0.00000  Uiso   1.00
H378   H     0.92318   0.62888   0.25666   0.00000  Uiso   1.00
I379   I     0.80286   0.55249   0.11527   0.00000  Uiso   1.00
I380   I     0.86379   0.44753   0.38473   0.00000  Uiso   1.00
I381   I     0.75407   0.42763   0.32075   0.00000  Uiso   1.00
I382   I     0.91259   0.57237   0.17925   0.00000  Uiso   1.00
N383   N     0.78403   0.50001   0.24999   0.00000  Uiso   1.00
N384   N     0.88264   0.49999   0.25001   0.00000  Uiso   1.00
O385   O     0.70625   0.43989   0.25000   0.00000  Uiso   1.00
O386   O     0.70541   0.50271   0.39140   0.00000  Uiso   1.00
O387   O     0.87025   0.43529   0.28835   0.00000  Uiso   1.00
O388   O     0.79641   0.56471   0.21165   0.00000  Uiso   1.00
O389   O     0.96042   0.56011   0.25000   0.00000  Uiso   1.00
O390   O     0.96039   0.43988   0.25000   0.00000  Uiso   1.00
O391   O     0.70628   0.56012   0.24999   0.00000  Uiso   1.00
O392   O     0.68519   0.50001   0.31491   0.00000  Uiso   1.00
O393   O     0.98148   0.49999   0.18508   0.00000  Uiso   1.00
O394   O     0.93933   0.50000   0.31492   0.00000  Uiso   1.00
O395   O     0.72733   0.50000   0.18508   0.00000  Uiso   1.00
O396   O     0.96126   0.49729   0.10860   0.00000  Uiso   1.00
C397   C     0.33331   0.75413   0.24987   0.00000  Uiso   1.00
C398   C     0.04304   0.68826   0.24641   0.00000  Uiso   1.00
C399   C     0.33332   0.95720   0.25028   0.00000  Uiso   1.00
C400   C     0.00001   0.70947   0.24972   0.00000  Uiso   1.00
C401   C     0.18497   0.80180   0.27072   0.00000  Uiso   1.00
C402   C     0.14836   0.86486   0.22928   0.00000  Uiso   1.00
C403   C     0.13479   0.80292   0.27299   0.00000  Uiso   1.00
C404   C     0.19854   0.86374   0.22701   0.00000  Uiso   1.00
C405   C     0.30551   0.83200   0.33595   0.00000  Uiso   1.00
C406   C     0.02782   0.83466   0.16405   0.00000  Uiso   1.00
C407   C     0.28951   0.82901   0.38502   0.00000  Uiso   1.00
C408   C     0.00002   0.91253   0.25013   0.00000  Uiso   1.00
C409   C     0.04382   0.83766   0.11498   0.00000  Uiso   1.00
C410   C     0.30670   0.81931   0.45533   0.00000  Uiso   1.00
C411   C     0.02663   0.84737   0.04467   0.00000  Uiso   1.00
C412   C     0.32312   0.82902   0.41001   0.00000  Uiso   1.00
C413   C     0.01021   0.83766   0.08999   0.00000  Uiso   1.00
C414   C     0.23983   0.82278   0.40812   0.00000  Uiso   1.00
C415   C     0.09351   0.84389   0.09188   0.00000  Uiso   1.00
C416   C     0.22364   0.82735   0.45385   0.00000  Uiso   1.00
C417   C     0.10969   0.83933   0.04615   0.00000  Uiso   1.00
C418   C     0.25719   0.82021   0.47781   0.00000  Uiso   1.00
C419   C     0.19169   0.81720   0.04589   0.00000  Uiso   1.00
C420   C     0.07614   0.84647   0.02219   0.00000  Uiso   1.00
C421   C     0.17460   0.83541   0.47663   0.00000  Uiso   1.00
C422   C     0.15874   0.83127   0.02337   0.00000  Uiso   1.00
C423   C     0.14165   0.84948   0.45411   0.00000  Uiso   1.00
C424   C     0.24062   0.81328   0.02356   0.00000  Uiso   1.00
C425   C     0.09271   0.85340   0.47644   0.00000  Uiso   1.00
C426   C     0.29037   0.68766   0.25311   0.00000  Uiso   1.00
C427   C     0.04297   0.97901   0.24689   0.00000  Uiso   1.00
C428   C     0.29029   0.97840   0.25359   0.00000  Uiso   1.00
Cu429  Cu    0.04689   0.83334   0.25000   0.00000  Uiso   1.00
Cu430  Cu    0.28645   0.83333   0.25000   0.00000  Uiso   1.00
H431   H     0.26539   0.80432   0.04204   0.00000  Uiso   1.00
H432   H     0.07681   0.70445   0.24334   0.00000  Uiso   1.00
H433   H     0.29082   0.80517   0.12793   0.00000  Uiso   1.00
H434   H     0.04252   0.86150   0.37206   0.00000  Uiso   1.00
H435   H     0.18422   0.74366   0.28760   0.00000  Uiso   1.00
H436   H     0.14911   0.92301   0.21241   0.00000  Uiso   1.00
H437   H     0.06794   0.86237   0.45796   0.00000  Uiso   1.00
H438   H     0.33291   0.81323   0.47300   0.00000  Uiso   1.00
H439   H     0.00042   0.85345   0.02700   0.00000  Uiso   1.00
H440   H     0.17999   0.80965   0.08107   0.00000  Uiso   1.00
H441   H     0.15335   0.85703   0.41893   0.00000  Uiso   1.00
H442   H     0.25678   0.70333   0.25546   0.00000  Uiso   1.00
H443   H     0.07655   0.96334   0.24454   0.00000  Uiso   1.00
H444   H     0.25652   0.96221   0.25666   0.00000  Uiso   1.00
I445   I     0.13620   0.88582   0.11527   0.00000  Uiso   1.00
I446   I     0.19713   0.78086   0.38473   0.00000  Uiso   1.00
I447   I     0.08741   0.76097   0.32075   0.00000  Uiso   1.00
I448   I     0.24593   0.90570   0.17925   0.00000  Uiso   1.00
N449   N     0.11736   0.83334   0.24999   0.00000  Uiso   1.00
N450   N     0.21597   0.83332   0.25001   0.00000  Uiso   1.00
O451   O     0.03958   0.77322   0.25000   0.00000  Uiso   1.00
O452   O     0.03874   0.83604   0.39140   0.00000  Uiso   1.00
O453   O     0.20359   0.76862   0.28835   0.00000  Uiso   1.00
O454   O     0.12975   0.89805   0.21165   0.00000  Uiso   1.00
O455   O     0.29375   0.89345   0.25000   0.00000  Uiso   1.00
O456   O     0.29372   0.77321   0.25000   0.00000  Uiso   1.00
O457   O     0.03961   0.89346   0.24999   0.00000  Uiso   1.00
O458   O     0.01852   0.83334   0.31491   0.00000  Uiso   1.00
O459   O     0.31481   0.83332   0.18508   0.00000  Uiso   1.00
O460   O     0.27267   0.83333   0.31492   0.00000  Uiso   1.00
O461   O     0.06067   0.83333   0.18508   0.00000  Uiso   1.00
O462   O     0.29459   0.83063   0.10860   0.00000  Uiso   1.00
C463   C     0.66665   0.75413   0.24987   0.00000  Uiso   1.00
C464   C     0.37637   0.68826   0.24641   0.00000  Uiso   1.00
C465   C     0.66665   0.95720   0.25028   0.00000  Uiso   1.00
C466   C     0.33335   0.70947   0.24972   0.00000  Uiso   1.00
C467   C     0.51830   0.80180   0.27072   0.00000  Uiso   1.00
C468   C     0.48169   0.86486   0.22928   0.00000  Uiso   1.00
C469   C     0.46813   0.80292   0.27299   0.00000  Uiso   1.00
C470   C     0.53187   0.86374   0.22701   0.00000  Uiso   1.00
C471   C     0.63885   0.83200   0.33595   0.00000  Uiso   1.00
C472   C     0.36115   0.83466   0.16405   0.00000  Uiso   1.00
C473   C     0.62284   0.82901   0.38502   0.00000  Uiso   1.00
C474   C     0.33335   0.91253   0.25013   0.00000  Uiso   1.00
C475   C     0.37716   0.83766   0.11498   0.00000  Uiso   1.00
C476   C     0.64003   0.81931   0.45533   0.00000  Uiso   1.00
C477   C     0.35997   0.84737   0.04467   0.00000  Uiso   1.00
C478   C     0.65646   0.82902   0.41001   0.00000  Uiso   1.00
C479   C     0.34354   0.83766   0.08999   0.00000  Uiso   1.00
C480   C     0.57316   0.82278   0.40812   0.00000  Uiso   1.00
C481   C     0.42684   0.84389   0.09188   0.00000  Uiso   1.00
C482   C     0.55697   0.82735   0.45385   0.00000  Uiso   1.00
C483   C     0.44303   0.83933   0.04615   0.00000  Uiso   1.00
C484   C     0.59052   0.82021   0.47781   0.00000  Uiso   1.00
C485   C     0.52502   0.81720   0.04589   0.00000  Uiso   1.00
C486   C     0.40948   0.84647   0.02219   0.00000  Uiso   1.00
C487   C     0.50793   0.83541   0.47663   0.00000  Uiso   1.00
C488   C     0.49207   0.83127   0.02337   0.00000  Uiso   1.00
C489   C     0.47498   0.84948   0.45411   0.00000  Uiso   1.00
C490   C     0.57395   0.81328   0.02356   0.00000  Uiso   1.00
C491   C     0.42605   0.85340   0.47644   0.00000  Uiso   1.00
C492   C     0.62370   0.68766   0.25311   0.00000  Uiso   1.00
C493   C     0.37630   0.97901   0.24689   0.00000  Uiso   1.00
C494   C     0.62362   0.97840   0.25359   0.00000  Uiso   1.00
Cu495  Cu    0.38022   0.83334   0.25000   0.00000  Uiso   1.00
Cu496  Cu    0.61978   0.83333   0.25000   0.00000  Uiso   1.00
H497   H     0.59873   0.80432   0.04204   0.00000  Uiso   1.00
H498   H     0.41015   0.70445   0.24334   0.00000  Uiso   1.00
H499   H     0.62415   0.80517   0.12793   0.00000  Uiso   1.00
H500   H     0.37585   0.86150   0.37206   0.00000  Uiso   1.00
H501   H     0.51755   0.74366   0.28760   0.00000  Uiso   1.00
H502   H     0.48245   0.92301   0.21241   0.00000  Uiso   1.00
H503   H     0.40127   0.86237   0.45796   0.00000  Uiso   1.00
H504   H     0.66625   0.81323   0.47300   0.00000  Uiso   1.00
H505   H     0.33375   0.85345   0.02700   0.00000  Uiso   1.00
H506   H     0.51332   0.80965   0.08107   0.00000  Uiso   1.00
H507   H     0.48668   0.85703   0.41893   0.00000  Uiso   1.00
H508   H     0.59011   0.70333   0.25546   0.00000  Uiso   1.00
H509   H     0.40989   0.96334   0.24454   0.00000  Uiso   1.00
H510   H     0.58985   0.96221   0.25666   0.00000  Uiso   1.00
I511   I     0.46953   0.88582   0.11527   0.00000  Uiso   1.00
I512   I     0.53046   0.78086   0.38473   0.00000  Uiso   1.00
I513   I     0.42074   0.76097   0.32075   0.00000  Uiso   1.00
I514   I     0.57926   0.90570   0.17925   0.00000  Uiso   1.00
N515   N     0.45069   0.83334   0.24999   0.00000  Uiso   1.00
N516   N     0.54931   0.83332   0.25001   0.00000  Uiso   1.00
O517   O     0.37291   0.77322   0.25000   0.00000  Uiso   1.00
O518   O     0.37208   0.83604   0.39140   0.00000  Uiso   1.00
O519   O     0.53692   0.76862   0.28835   0.00000  Uiso   1.00
O520   O     0.46308   0.89805   0.21165   0.00000  Uiso   1.00
O521   O     0.62709   0.89345   0.25000   0.00000  Uiso   1.00
O522   O     0.62706   0.77321   0.25000   0.00000  Uiso   1.00
O523   O     0.37294   0.89346   0.24999   0.00000  Uiso   1.00
O524   O     0.35186   0.83334   0.31491   0.00000  Uiso   1.00
O525   O     0.64814   0.83332   0.18508   0.00000  Uiso   1.00
O526   O     0.60600   0.83333   0.31492   0.00000  Uiso   1.00
O527   O     0.39400   0.83333   0.18508   0.00000  Uiso   1.00
O528   O     0.62792   0.83063   0.10860   0.00000  Uiso   1.00
C529   C     0.99998   0.75413   0.24987   0.00000  Uiso   1.00
C530   C     0.70971   0.68826   0.24641   0.00000  Uiso   1.00
C531   C     0.99999   0.95720   0.25028   0.00000  Uiso   1.00
C532   C     0.66668   0.70947   0.24972   0.00000  Uiso   1.00
C533   C     0.85164   0.80180   0.27072   0.00000  Uiso   1.00
C534   C     0.81503   0.86486   0.22928   0.00000  Uiso   1.00
C535   C     0.80146   0.80292   0.27299   0.00000  Uiso   1.00
C536   C     0.86521   0.86374   0.22701   0.00000  Uiso   1.00
C537   C     0.97218   0.83200   0.33595   0.00000  Uiso   1.00
C538   C     0.69448   0.83466   0.16405   0.00000  Uiso   1.00
C539   C     0.95618   0.82901   0.38502   0.00000  Uiso   1.00
C540   C     0.66669   0.91253   0.25013   0.00000  Uiso   1.00
C541   C     0.71049   0.83766   0.11498   0.00000  Uiso   1.00
C542   C     0.97337   0.81931   0.45533   0.00000  Uiso   1.00
C543   C     0.69330   0.84737   0.04467   0.00000  Uiso   1.00
C544   C     0.98979   0.82902   0.41001   0.00000  Uiso   1.00
C545   C     0.67688   0.83766   0.08999   0.00000  Uiso   1.00
C546   C     0.90649   0.82278   0.40812   0.00000  Uiso   1.00
C547   C     0.76017   0.84389   0.09188   0.00000  Uiso   1.00
C548   C     0.89031   0.82735   0.45385   0.00000  Uiso   1.00
C549   C     0.77636   0.83933   0.04615   0.00000  Uiso   1.00
C550   C     0.92386   0.82021   0.47781   0.00000  Uiso   1.00
C551   C     0.85835   0.81720   0.04589   0.00000  Uiso   1.00
C552   C     0.74281   0.84647   0.02219   0.00000  Uiso   1.00
C553   C     0.84126   0.83541   0.47663   0.00000  Uiso   1.00
C554   C     0.82540   0.83127   0.02337   0.00000  Uiso   1.00
C555   C     0.80832   0.84948   0.45411   0.00000  Uiso   1.00
C556   C     0.90729   0.81328   0.02356   0.00000  Uiso   1.00
C557   C     0.75938   0.85340   0.47644   0.00000  Uiso   1.00
C558   C     0.95703   0.68766   0.25311   0.00000  Uiso   1.00
C559   C     0.70963   0.97901   0.24689   0.00000  Uiso   1.00
C560   C     0.95696   0.97840   0.25359   0.00000  Uiso   1.00
Cu561  Cu    0.71355   0.83334   0.25000   0.00000  Uiso   1.00
Cu562  Cu    0.95311   0.83333   0.25000   0.00000  Uiso   1.00
H563   H     0.93206   0.80432   0.04204   0.00000  Uiso   1.00
H564   H     0.74348   0.70445   0.24334   0.00000  Uiso   1.00
H565   H     0.95749   0.80517   0.12793   0.00000  Uiso   1.00
H566   H     0.70918   0.86150   0.37206   0.00000  Uiso   1.00
H567   H     0.85089   0.74366   0.28760   0.00000  Uiso   1.00
H568   H     0.81578   0.92301   0.21241   0.00000  Uiso   1.00
H569   H     0.73461   0.86237   0.45796   0.00000  Uiso   1.00
H570   H     0.99958   0.81323   0.47300   0.00000  Uiso   1.00
H571   H     0.66709   0.85345   0.02700   0.00000  Uiso   1.00
H572   H     0.84665   0.80965   0.08107   0.00000  Uiso   1.00
H573   H     0.82002   0.85703   0.41893   0.00000  Uiso   1.00
H574   H     0.92345   0.70333   0.25546   0.00000  Uiso   1.00
H575   H     0.74322   0.96334   0.24454   0.00000  Uiso   1.00
H576   H     0.92318   0.96221   0.25666   0.00000  Uiso   1.00
I577   I     0.80286   0.88582   0.11527   0.00000  Uiso   1.00
I578   I     0.86379   0.78086   0.38473   0.00000  Uiso   1.00
I579   I     0.75407   0.76097   0.32075   0.00000  Uiso   1.00
I580   I     0.91259   0.90570   0.17925   0.00000  Uiso   1.00
N581   N     0.78403   0.83334   0.24999   0.00000  Uiso   1.00
N582   N     0.88264   0.83332   0.25001   0.00000  Uiso   1.00
O583   O     0.70625   0.77322   0.25000   0.00000  Uiso   1.00
O584   O     0.70541   0.83604   0.39140   0.00000  Uiso   1.00
O585   O     0.87025   0.76862   0.28835   0.00000  Uiso   1.00
O586   O     0.79641   0.89805   0.21165   0.00000  Uiso   1.00
O587   O     0.96042   0.89345   0.25000   0.00000  Uiso   1.00
O588   O     0.96039   0.77321   0.25000   0.00000  Uiso   1.00
O589   O     0.70628   0.89346   0.24999   0.00000  Uiso   1.00
O590   O     0.68519   0.83334   0.31491   0.00000  Uiso   1.00
O591   O     0.98148   0.83332   0.18508   0.00000  Uiso   1.00
O592   O     0.93933   0.83333   0.31492   0.00000  Uiso   1.00
O593   O     0.72733   0.83333   0.18508   0.00000  Uiso   1.00
O594   O     0.96126   0.83063   0.10860   0.00000  Uiso   1.00
C595   C     0.33331   0.08747   0.74987   0.00000  Uiso   1.00
C596   C     0.04304   0.02160   0.74641   0.00000  Uiso   1.00
C597   C     0.33332   0.29053   0.75028   0.00000  Uiso   1.00
C598   C     0.00001   0.04280   0.74972   0.00000  Uiso   1.00
C599   C     0.18497   0.13514   0.77072   0.00000  Uiso   1.00
C600   C     0.14836   0.19820   0.72928   0.00000  Uiso   1.00
C601   C     0.13479   0.13626   0.77299   0.00000  Uiso   1.00
C602   C     0.19854   0.19708   0.72701   0.00000  Uiso   1.00
C603   C     0.30551   0.16534   0.83595   0.00000  Uiso   1.00
C604   C     0.02782   0.16800   0.66405   0.00000  Uiso   1.00
C605   C     0.28951   0.16234   0.88502   0.00000  Uiso   1.00
C606   C     0.00002   0.24587   0.75013   0.00000  Uiso   1.00
C607   C     0.04382   0.17100   0.61498   0.00000  Uiso   1.00
C608   C     0.30670   0.15264   0.95533   0.00000  Uiso   1.00
C609   C     0.02663   0.18070   0.54467   0.00000  Uiso   1.00
C610   C     0.32312   0.16235   0.91001   0.00000  Uiso   1.00
C611   C     0.01021   0.17099   0.58999   0.00000  Uiso   1.00
C612   C     0.23983   0.15612   0.90812   0.00000  Uiso   1.00
C613   C     0.09351   0.17723   0.59188   0.00000  Uiso   1.00
C614   C     0.22364   0.16068   0.95385   0.00000  Uiso   1.00
C615   C     0.10969   0.17266   0.54615   0.00000  Uiso   1.00
C616   C     0.25719   0.15355   0.97781   0.00000  Uiso   1.00
C617   C     0.19169   0.15054   0.54589   0.00000  Uiso   1.00
C618   C     0.07614   0.17980   0.52219   0.00000  Uiso   1.00
C619   C     0.17460   0.16874   0.97663   0.00000  Uiso   1.00
C620   C     0.15874   0.16461   0.52337   0.00000  Uiso   1.00
C621   C     0.14165   0.18281   0.95411   0.00000  Uiso   1.00
C622   C     0.24062   0.14661   0.52356   0.00000  Uiso   1.00
C623   C     0.09271   0.18674   0.97644   0.00000  Uiso   1.00
C624   C     0.29037   0.02099   0.75311   0.00000  Uiso   1.00
C625   C     0.04297   0.31234   0.74689   0.00000  Uiso   1.00
C626   C     0.29029   0.31174   0.75359   0.00000  Uiso   1.00
Cu627  Cu    0.04689   0.16667   0.75000   0.00000  Uiso   1.00
Cu628  Cu    0.28645   0.16666   0.75000   0.00000  Uiso   1.00
H629   H     0.26539   0.13765   0.54204   0.00000  Uiso   1.00
H630   H     0.07681   0.03778   0.74334   0.00000  Uiso   1.00
H631   H     0.29082   0.13850   0.62793   0.00000  Uiso   1.00
H632   H     0.04252   0.19483   0.87206   0.00000  Uiso   1.00
H633   H     0.18422   0.07699   0.78760   0.00000  Uiso   1.00
H634   H     0.14911   0.25634   0.71241   0.00000  Uiso   1.00
H635   H     0.06794   0.19570   0.95796   0.00000  Uiso   1.00
H636   H     0.33291   0.14657   0.97300   0.00000  Uiso   1.00
H637   H     0.00042   0.18678   0.52700   0.00000  Uiso   1.00
H638   H     0.17999   0.14299   0.58107   0.00000  Uiso   1.00
H639   H     0.15335   0.19036   0.91893   0.00000  Uiso   1.00
H640   H     0.25678   0.03666   0.75546   0.00000  Uiso   1.00
H641   H     0.07655   0.29667   0.74454   0.00000  Uiso   1.00
H642   H     0.25652   0.29555   0.75666   0.00000  Uiso   1.00
I643   I     0.13620   0.21915   0.61527   0.00000  Uiso   1.00
I644   I     0.19713   0.11419   0.88473   0.00000  Uiso   1.00
I645   I     0.08741   0.09430   0.82075   0.00000  Uiso   1.00
I646   I     0.24593   0.23903   0.67925   0.00000  Uiso   1.00
N647   N     0.11736   0.16668   0.74999   0.00000  Uiso   1.00
N648   N     0.21597   0.16666   0.75001   0.00000  Uiso   1.00
O649   O     0.03958   0.10655   0.75000   0.00000  Uiso   1.00
O650   O     0.03874   0.16937   0.89140   0.00000  Uiso   1.00
O651   O     0.20359   0.10195   0.78835   0.00000  Uiso   1.00
O652   O     0.12975   0.23138   0.71165   0.00000  Uiso   1.00
O653   O     0.29375   0.22678   0.75000   0.00000  Uiso   1.00
O654   O     0.29372   0.10654   0.75000   0.00000  Uiso   1.00
O655   O     0.03961   0.22679   0.74999   0.00000  Uiso   1.00
O656   O     0.01852   0.16668   0.81491   0.00000  Uiso   1.00
O657   O     0.31481   0.16666   0.68508   0.00000  Uiso   1.00
O658   O     0.27267   0.16667   0.81492   0.00000  Uiso   1.00
O659   O     0.06067   0.16667   0.68508   0.00000  Uiso   1.00
O660   O     0.29459   0.16396   0.60860   0.00000  Uiso   1.00
C661   C     0.66665   0.08747   0.74987   0.00000  Uiso   1.00
C662   C     0.37637   0.02160   0.74641   0.00000  Uiso   1.00
C663   C     0.66665   0.29053   0.75028   0.00000  Uiso   1.00
C664   C     0.33335   0.04280   0.74972   0.00000  Uiso   1.00
C665   C     0.51830   0.13514   0.77072   0.00000  Uiso   1.00
C666   C     0.48169   0.19820   0.72928   0.00000  Uiso   1.00
C667   C     0.46813   0.13626   0.77299   0.00000  Uiso   1.00
C668   C     0.53187   0.19708   0.72701   0.00000  Uiso   1.00
C669   C     0.63885   0.16534   0.83595   0.00000  Uiso   1.00
C670   C     0.36115   0.16800   0.66405   0.00000  Uiso   1.00
C671   C     0.62284   0.16234   0.88502   0.00000  Uiso   1.00
C672   C     0.33335   0.24587   0.75013   0.00000  Uiso   1.00
C673   C     0.37716   0.17100   0.61498   0.00000  Uiso   1.00
C674   C     0.64003   0.15264   0.95533   0.00000  Uiso   1.00
C675   C     0.35997   0.18070   0.54467   0.00000  Uiso   1.00
C676   C     0.65646   0.16235   0.91001   0.00000  Uiso   1.00
C677   C     0.34354   0.17099   0.58999   0.00000  Uiso   1.00
C678   C     0.57316   0.15612   0.90812   0.00000  Uiso   1.00
C679   C     0.42684   0.17723   0.59188   0.00000  Uiso   1.00
C680   C     0.55697   0.16068   0.95385   0.00000  Uiso   1.00
C681   C     0.44303   0.17266   0.54615   0.00000  Uiso   1.00
C682   C     0.59052   0.15355   0.97781   0.00000  Uiso   1.00
C683   C     0.52502   0.15054   0.54589   0.00000  Uiso   1.00
C684   C     0.40948   0.17980   0.52219   0.00000  Uiso   1.00
C685   C     0.50793   0.16874   0.97663   0.00000  Uiso   1.00
C686   C     0.49207   0.16461   0.52337   0.00000  Uiso   1.00
C687   C     0.47498   0.18281   0.95411   0.00000  Uiso   1.00
C688   C     0.57395   0.14661   0.52356   0.00000  Uiso   1.00
C689   C     0.42605   0.18674   0.97644   0.00000  Uiso   1.00
C690   C     0.62370   0.02099   0.75311   0.00000  Uiso   1.00
C691   C     0.37630   0.31234   0.74689   0.00000  Uiso   1.00
C692   C     0.62362   0.31174   0.75359   0.00000  Uiso   1.00
Cu693  Cu    0.38022   0.16667   0.75000   0.00000  Uiso   1.00
Cu694  Cu    0.61978   0.16666   0.75000   0.00000  Uiso   1.00
H695   H     0.59873   0.13765   0.54204   0.00000  Uiso   1.00
H696   H     0.41015   0.03778   0.74334   0.00000  Uiso   1.00
H697   H     0.62415   0.13850   0.62793   0.00000  Uiso   1.00
H698   H     0.37585   0.19483   0.87206   0.00000  Uiso   1.00
H699   H     0.51755   0.07699   0.78760   0.00000  Uiso   1.00
H700   H     0.48245   0.25634   0.71241   0.00000  Uiso   1.00
H701   H     0.40127   0.19570   0.95796   0.00000  Uiso   1.00
H702   H     0.66625   0.14657   0.97300   0.00000  Uiso   1.00
H703   H     0.33375   0.18678   0.52700   0.00000  Uiso   1.00
H704   H     0.51332   0.14299   0.58107   0.00000  Uiso   1.00
H705   H     0.48668   0.19036   0.91893   0.00000  Uiso   1.00
H706   H     0.59011   0.03666   0.75546   0.00000  Uiso   1.00
H707   H     0.40989   0.29667   0.74454   0.00000  Uiso   1.00
H708   H     0.58985   0.29555   0.75666   0.00000  Uiso   1.00
I709   I     0.46953   0.21915   0.61527   0.00000  Uiso   1.00
I710   I     0.53046   0.11419   0.88473   0.00000  Uiso   1.00
I711   I     0.42074   0.09430   0.82075   0.00000  Uiso   1.00
I712   I     0.57926   0.23903   0.67925   0.00000  Uiso   1.00
N713   N     0.45069   0.16668   0.74999   0.00000  Uiso   1.00
N714   N     0.54931   0.16666   0.75001   0.00000  Uiso   1.00
O715   O     0.37291   0.10655   0.75000   0.00000  Uiso   1.00
O716   O     0.37208   0.16937   0.89140   0.00000  Uiso   1.00
O717   O     0.53692   0.10195   0.78835   0.00000  Uiso   1.00
O718   O     0.46308   0.23138   0.71165   0.00000  Uiso   1.00
O719   O     0.62709   0.22678   0.75000   0.00000  Uiso   1.00
O720   O     0.62706   0.10654   0.75000   0.00000  Uiso   1.00
O721   O     0.37294   0.22679   0.74999   0.00000  Uiso   1.00
O722   O     0.35186   0.16668   0.81491   0.00000  Uiso   1.00
O723   O     0.64814   0.16666   0.68508   0.00000  Uiso   1.00
O724   O     0.60600   0.16667   0.81492   0.00000  Uiso   1.00
O725   O     0.39400   0.16667   0.68508   0.00000  Uiso   1.00
O726   O     0.62792   0.16396   0.60860   0.00000  Uiso   1.00
C727   C     0.99998   0.08747   0.74987   0.00000  Uiso   1.00
C728   C     0.70971   0.02160   0.74641   0.00000  Uiso   1.00
C729   C     0.99999   0.29053   0.75028   0.00000  Uiso   1.00
C730   C     0.66668   0.04280   0.74972   0.00000  Uiso   1.00
C731   C     0.85164   0.13514   0.77072   0.00000  Uiso   1.00
C732   C     0.81503   0.19820   0.72928   0.00000  Uiso   1.00
C733   C     0.80146   0.13626   0.77299   0.00000  Uiso   1.00
C734   C     0.86521   0.19708   0.72701   0.00000  Uiso   1.00
C735   C     0.97218   0.16534   0.83595   0.00000  Uiso   1.00
C736   C     0.69448   0.16800   0.66405   0.00000  Uiso   1.00
C737   C     0.95618   0.16234   0.88502   0.00000  Uiso   1.00
C738   C     0.66669   0.24587   0.75013   0.00000  Uiso   1.00
C739   C     0.71049   0.17100   0.61498   0.00000  Uiso   1.00
C740   C     0.97337   0.15264   0.95533   0.00000  Uiso   1.00
C741   C     0.69330   0.18070   0.54467   0.00000  Uiso   1.00
C742   C     0.98979   0.16235   0.91001   0.00000  Uiso   1.00
C743   C     0.67688   0.17099   0.58999   0.00000  Uiso   1.00
C744   C     0.90649   0.15612   0.90812   0.00000  Uiso   1.00
C745   C     0.76017   0.17723   0.59188   0.00000  Uiso   1.00
C746   C     0.89031   0.16068   0.95385   0.00000  Uiso   1.00
C747   C     0.77636   0.17266   0.54615   0.00000  Uiso   1.00
C748   C     0.92386   0.15355   0.97781   0.00000  Uiso   1.00
C749   C     0.85835   0.15054   0.54589   0.00000  Uiso   1.00
C750   C     0.74281   0.17980   0.52219   0.00000  Uiso   1.00
C751   C     0.84126   0.16874   0.97663   0.00000  Uiso   1.00
C752   C     0.82540   0.16461   0.52337   0.00000  Uiso   1.00
C753   C     0.80832   0.18281   0.95411   0.00000  Uiso   1.00
C754   C     0.90729   0.14661   0.52356   0.00000  Uiso   1.00
C755   C     0.75938   0.18674   0.97644   0.00000  Uiso   1.00
C756   C     0.95703   0.02099   0.75311   0.00000  Uiso   1.00
C757   C     0.70963   0.31234   0.74689   0.00000  Uiso   1.00
C758   C     0.95696   0.31174   0.75359   0.00000  Uiso   1.00
Cu759  Cu    0.71355   0.16667   0.75000   0.00000  Uiso   1.00
Cu760  Cu    0.95311   0.16666   0.75000   0.00000  Uiso   1.00
H761   H     0.93206   0.13765   0.54204   0.00000  Uiso   1.00
H762   H     0.74348   0.03778   0.74334   0.00000  Uiso   1.00
H763   H     0.95749   0.13850   0.62793   0.00000  Uiso   1.00
H764   H     0.70918   0.19483   0.87206   0.00000  Uiso   1.00
H765   H     0.85089   0.07699   0.78760   0.00000  Uiso   1.00
H766   H     0.81578   0.25634   0.71241   0.00000  Uiso   1.00
H767   H     0.73461   0.19570   0.95796   0.00000  Uiso   1.00
H768   H     0.99958   0.14657   0.97300   0.00000  Uiso   1.00
H769   H     0.66709   0.18678   0.52700   0.00000  Uiso   1.00
H770   H     0.84665   0.14299   0.58107   0.00000  Uiso   1.00
H771   H     0.82002   0.19036   0.91893   0.00000  Uiso   1.00
H772   H     0.92345   0.03666   0.75546   0.00000  Uiso   1.00
H773   H     0.74322   0.29667   0.74454   0.00000  Uiso   1.00
H774   H     0.92318   0.29555   0.75666   0.00000  Uiso   1.00
I775   I     0.80286   0.21915   0.61527   0.00000  Uiso   1.00
I776   I     0.86379   0.11419   0.88473   0.00000  Uiso   1.00
I777   I     0.75407   0.09430   0.82075   0.00000  Uiso   1.00
I778   I     0.91259   0.23903   0.67925   0.00000  Uiso   1.00
N779   N     0.78403   0.16668   0.74999   0.00000  Uiso   1.00
N780   N     0.88264   0.16666   0.75001   0.00000  Uiso   1.00
O781   O     0.70625   0.10655   0.75000   0.00000  Uiso   1.00
O782   O     0.70541   0.16937   0.89140   0.00000  Uiso   1.00
O783   O     0.87025   0.10195   0.78835   0.00000  Uiso   1.00
O784   O     0.79641   0.23138   0.71165   0.00000  Uiso   1.00
O785   O     0.96042   0.22678   0.75000   0.00000  Uiso   1.00
O786   O     0.96039   0.10654   0.75000   0.00000  Uiso   1.00
O787   O     0.70628   0.22679   0.74999   0.00000  Uiso   1.00
O788   O     0.68519   0.16668   0.81491   0.00000  Uiso   1.00
O789   O     0.98148   0.16666   0.68508   0.00000  Uiso   1.00
O790   O     0.93933   0.16667   0.81492   0.00000  Uiso   1.00
O791   O     0.72733   0.16667   0.68508   0.00000  Uiso   1.00
O792   O     0.96126   0.16396   0.60860   0.00000  Uiso   1.00
C793   C     0.33331   0.42080   0.74987   0.00000  Uiso   1.00
C794   C     0.04304   0.35493   0.74641   0.00000  Uiso   1.00
C795   C     0.33332   0.62387   0.75028   0.00000  Uiso   1.00
C796   C     0.00001   0.37613   0.74972   0.00000  Uiso   1.00
C797   C     0.18497   0.46847   0.77072   0.00000  Uiso   1.00
C798   C     0.14836   0.53153   0.72928   0.00000  Uiso   1.00
C799   C     0.13479   0.46959   0.77299   0.00000  Uiso   1.00
C800   C     0.19854   0.53041   0.72701   0.00000  Uiso   1.00
C801   C     0.30551   0.49867   0.83595   0.00000  Uiso   1.00
C802   C     0.02782   0.50133   0.66405   0.00000  Uiso   1.00
C803   C     0.28951   0.49568   0.88502   0.00000  Uiso   1.00
C804   C     0.00002   0.57920   0.75013   0.00000  Uiso   1.00
C805   C     0.04382   0.50433   0.61498   0.00000  Uiso   1.00
C806   C     0.30670   0.48598   0.95533   0.00000  Uiso   1.00
C807   C     0.02663   0.51404   0.54467   0.00000  Uiso   1.00
C808   C     0.32312   0.49568   0.91001   0.00000  Uiso   1.00
C809   C     0.01021   0.50432   0.58999   0.00000  Uiso   1.00
C810   C     0.23983   0.48945   0.90812   0.00000  Uiso   1.00
C811   C     0.09351   0.51056   0.59188   0.00000  Uiso   1.00
C812   C     0.22364   0.49402   0.95385   0.00000  Uiso   1.00
C813   C     0.10969   0.50600   0.54615   0.00000  Uiso   1.00
C814   C     0.25719   0.48688   0.97781   0.00000  Uiso   1.00
C815   C     0.19169   0.48387   0.54589   0.00000  Uiso   1.00
C816   C     0.07614   0.51313   0.52219   0.00000  Uiso   1.00
C817   C     0.17460   0.50208   0.97663   0.00000  Uiso   1.00
C818   C     0.15874   0.49794   0.52337   0.00000  Uiso   1.00
C819   C     0.14165   0.51615   0.95411   0.00000  Uiso   1.00
C820   C     0.24062   0.47995   0.52356   0.00000  Uiso   1.00
C821   C     0.09271   0.52007   0.97644   0.00000  Uiso   1.00
C822   C     0.29037   0.35432   0.75311   0.00000  Uiso   1.00
C823   C     0.04297   0.64568   0.74689   0.00000  Uiso   1.00
C824   C     0.29029   0.64507   0.75359   0.00000  Uiso   1.00
Cu825  Cu    0.04689   0.50001   0.75000   0.00000  Uiso   1.00
Cu826  Cu    0.28645   0.49999   0.75000   0.00000  Uiso   1.00
H827   H     0.26539   0.47098   0.54204   0.00000  Uiso   1.00
H828   H     0.07681   0.37112   0.74334   0.00000  Uiso   1.00
H829   H     0.29082   0.47183   0.62793   0.00000  Uiso   1.00
H830   H     0.04252   0.52817   0.87206   0.00000  Uiso   1.00
H831   H     0.18422   0.41033   0.78760   0.00000  Uiso   1.00
H832   H     0.14911   0.58967   0.71241   0.00000  Uiso   1.00
H833   H     0.06794   0.52903   0.95796   0.00000  Uiso   1.00
H834   H     0.33291   0.47990   0.97300   0.00000  Uiso   1.00
H835   H     0.00042   0.52011   0.52700   0.00000  Uiso   1.00
H836   H     0.17999   0.47632   0.58107   0.00000  Uiso   1.00
H837   H     0.15335   0.52370   0.91893   0.00000  Uiso   1.00
H838   H     0.25678   0.36999   0.75546   0.00000  Uiso   1.00
H839   H     0.07655   0.63001   0.74454   0.00000  Uiso   1.00
H840   H     0.25652   0.62888   0.75666   0.00000  Uiso   1.00
I841   I     0.13620   0.55249   0.61527   0.00000  Uiso   1.00
I842   I     0.19713   0.44753   0.88473   0.00000  Uiso   1.00
I843   I     0.08741   0.42763   0.82075   0.00000  Uiso   1.00
I844   I     0.24593   0.57237   0.67925   0.00000  Uiso   1.00
N845   N     0.11736   0.50001   0.74999   0.00000  Uiso   1.00
N846   N     0.21597   0.49999   0.75001   0.00000  Uiso   1.00
O847   O     0.03958   0.43989   0.75000   0.00000  Uiso   1.00
O848   O     0.03874   0.50271   0.89140   0.00000  Uiso   1.00
O849   O     0.20359   0.43529   0.78835   0.00000  Uiso   1.00
O850   O     0.12975   0.56471   0.71165   0.00000  Uiso   1.00
O851   O     0.29375   0.56011   0.75000   0.00000  Uiso   1.00
O852   O     0.29372   0.43988   0.75000   0.00000  Uiso   1.00
O853   O     0.03961   0.56012   0.74999   0.00000  Uiso   1.00
O854   O     0.01852   0.50001   0.81491   0.00000  Uiso   1.00
O855   O     0.31481   0.49999   0.68508   0.00000  Uiso   1.00
O856   O     0.27267   0.50000   0.81492   0.00000  Uiso   1.00
O857   O     0.06067   0.50000   0.68508   0.00000  Uiso   1.00
O858   O     0.29459   0.49729   0.60860   0.00000  Uiso   1.00
C859   C     0.66665   0.42080   0.74987   0.00000  Uiso   1.00
C860   C     0.37637   0.35493   0.74641   0.00000  Uiso   1.00
C861   C     0.66665   0.62387   0.75028   0.00000  Uiso   1.00
C862   C     0.33335   0.37613   0.74972   0.00000  Uiso   1.00
C863   C     0.51830   0.46847   0.77072   0.00000  Uiso   1.00
C864   C     0.48169   0.53153   0.72928   0.00000  Uiso   1.00
C865   C     0.46813   0.46959   0.77299   0.00000  Uiso   1.00
C866   C     0.53187   0.53041   0.72701   0.00000  Uiso   1.00
C867   C     0.63885   0.49867   0.83595   0.00000  Uiso   1.00
C868   C     0.36115   0.50133   0.66405   0.00000  Uiso   1.00
C869   C     0.62284   0.49568   0.88502   0.00000  Uiso   1.00
C870   C     0.33335   0.57920   0.75013   0.00000  Uiso   1.00
C871   C     0.37716   0.50433   0.61498   0.00000  Uiso   1.00
C872   C     0.64003   0.48598   0.95533   0.00000  Uiso   1.00
C873   C     0.35997   0.51404   0.54467   0.00000  Uiso   1.00
C874   C     0.65646   0.49568   0.91001   0.00000  Uiso   1.00
C875   C     0.34354   0.50432   0.58999   0.00000  Uiso   1.00
C876   C     0.57316   0.48945   0.90812   0.00000  Uiso   1.00
C877   C     0.42684   0.51056   0.59188   0.00000  Uiso   1.00
C878   C     0.55697   0.49402   0.95385   0.00000  Uiso   1.00
C879   C     0.44303   0.50600   0.54615   0.00000  Uiso   1.00
C880   C     0.59052   0.48688   0.97781   0.00000  Uiso   1.00
C881   C     0.52502   0.48387   0.54589   0.00000  Uiso   1.00
C882   C     0.40948   0.51313   0.52219   0.00000  Uiso   1.00
C883   C     0.50793   0.50208   0.97663   0.00000  Uiso   1.00
C884   C     0.49207   0.49794   0.52337   0.00000  Uiso   1.00
C885   C     0.47498   0.51615   0.95411   0.00000  Uiso   1.00
C886   C     0.57395   0.47995   0.52356   0.00000  Uiso   1.00
C887   C     0.42605   0.52007   0.97644   0.00000  Uiso   1.00
C888   C     0.62370   0.35432   0.75311   0.00000  Uiso   1.00
C889   C     0.37630   0.64568   0.74689   0.00000  Uiso   1.00
C890   C     0.62362   0.64507   0.75359   0.00000  Uiso   1.00
Cu891  Cu    0.38022   0.50001   0.75000   0.00000  Uiso   1.00
Cu892  Cu    0.61978   0.49999   0.75000   0.00000  Uiso   1.00
H893   H     0.59873   0.47098   0.54204   0.00000  Uiso   1.00
H894   H     0.41015   0.37112   0.74334   0.00000  Uiso   1.00
H895   H     0.62415   0.47183   0.62793   0.00000  Uiso   1.00
H896   H     0.37585   0.52817   0.87206   0.00000  Uiso   1.00
H897   H     0.51755   0.41033   0.78760   0.00000  Uiso   1.00
H898   H     0.48245   0.58967   0.71241   0.00000  Uiso   1.00
H899   H     0.40127   0.52903   0.95796   0.00000  Uiso   1.00
H900   H     0.66625   0.47990   0.97300   0.00000  Uiso   1.00
H901   H     0.33375   0.52011   0.52700   0.00000  Uiso   1.00
H902   H     0.51332   0.47632   0.58107   0.00000  Uiso   1.00
H903   H     0.48668   0.52370   0.91893   0.00000  Uiso   1.00
H904   H     0.59011   0.36999   0.75546   0.00000  Uiso   1.00
H905   H     0.40989   0.63001   0.74454   0.00000  Uiso   1.00
H906   H     0.58985   0.62888   0.75666   0.00000  Uiso   1.00
I907   I     0.46953   0.55249   0.61527   0.00000  Uiso   1.00
I908   I     0.53046   0.44753   0.88473   0.00000  Uiso   1.00
I909   I     0.42074   0.42763   0.82075   0.00000  Uiso   1.00
I910   I     0.57926   0.57237   0.67925   0.00000  Uiso   1.00
N911   N     0.45069   0.50001   0.74999   0.00000  Uiso   1.00
N912   N     0.54931   0.49999   0.75001   0.00000  Uiso   1.00
O913   O     0.37291   0.43989   0.75000   0.00000  Uiso   1.00
O914   O     0.37208   0.50271   0.89140   0.00000  Uiso   1.00
O915   O     0.53692   0.43529   0.78835   0.00000  Uiso   1.00
O916   O     0.46308   0.56471   0.71165   0.00000  Uiso   1.00
O917   O     0.62709   0.56011   0.75000   0.00000  Uiso   1.00
O918   O     0.62706   0.43988   0.75000   0.00000  Uiso   1.00
O919   O     0.37294   0.56012   0.74999   0.00000  Uiso   1.00
O920   O     0.35186   0.50001   0.81491   0.00000  Uiso   1.00
O921   O     0.64814   0.49999   0.68508   0.00000  Uiso   1.00
O922   O     0.60600   0.50000   0.81492   0.00000  Uiso   1.00
O923   O     0.39400   0.50000   0.68508   0.00000  Uiso   1.00
O924   O     0.62792   0.49729   0.60860   0.00000  Uiso   1.00
C925   C     0.99998   0.42080   0.74987   0.00000  Uiso   1.00
C926   C     0.70971   0.35493   0.74641   0.00000  Uiso   1.00
C927   C     0.99999   0.62387   0.75028   0.00000  Uiso   1.00
C928   C     0.66668   0.37613   0.74972   0.00000  Uiso   1.00
C929   C     0.85164   0.46847   0.77072   0.00000  Uiso   1.00
C930   C     0.81503   0.53153   0.72928   0.00000  Uiso   1.00
C931   C     0.80146   0.46959   0.77299   0.00000  Uiso   1.00
C932   C     0.86521   0.53041   0.72701   0.00000  Uiso   1.00
C933   C     0.97218   0.49867   0.83595   0.00000  Uiso   1.00
C934   C     0.69448   0.50133   0.66405   0.00000  Uiso   1.00
C935   C     0.95618   0.49568   0.88502   0.00000  Uiso   1.00
C936   C     0.66669   0.57920   0.75013   0.00000  Uiso   1.00
C937   C     0.71049   0.50433   0.61498   0.00000  Uiso   1.00
C938   C     0.97337   0.48598   0.95533   0.00000  Uiso   1.00
C939   C     0.69330   0.51404   0.54467   0.00000  Uiso   1.00
C940   C     0.98979   0.49568   0.91001   0.00000  Uiso   1.00
C941   C     0.67688   0.50432   0.58999   0.00000  Uiso   1.00
C942   C     0.90649   0.48945   0.90812   0.00000  Uiso   1.00
C943   C     0.76017   0.51056   0.59188   0.00000  Uiso   1.00
C944   C     0.89031   0.49402   0.95385   0.00000  Uiso   1.00
C945   C     0.77636   0.50600   0.54615   0.00000  Uiso   1.00
C946   C     0.92386   0.48688   0.97781   0.00000  Uiso   1.00
C947   C     0.85835   0.48387   0.54589   0.00000  Uiso   1.00
C948   C     0.74281   0.51313   0.52219   0.00000  Uiso   1.00
C949   C     0.84126   0.50208   0.97663   0.00000  Uiso   1.00
C950   C     0.82540   0.49794   0.52337   0.00000  Uiso   1.00
C951   C     0.80832   0.51615   0.95411   0.00000  Uiso   1.00
C952   C     0.90729   0.47995   0.52356   0.00000  Uiso   1.00
C953   C     0.75938   0.52007   0.97644   0.00000  Uiso   1.00
C954   C     0.95703   0.35432   0.75311   0.00000  Uiso   1.00
C955   C     0.70963   0.64568   0.74689   0.00000  Uiso   1.00
C956   C     0.95696   0.64507   0.75359   0.00000  Uiso   1.00
Cu957  Cu    0.71355   0.50001   0.75000   0.00000  Uiso   1.00
Cu958  Cu    0.95311   0.49999   0.75000   0.00000  Uiso   1.00
H959   H     0.93206   0.47098   0.54204   0.00000  Uiso   1.00
H960   H     0.74348   0.37112   0.74334   0.00000  Uiso   1.00
H961   H     0.95749   0.47183   0.62793   0.00000  Uiso   1.00
H962   H     0.70918   0.52817   0.87206   0.00000  Uiso   1.00
H963   H     0.85089   0.41033   0.78760   0.00000  Uiso   1.00
H964   H     0.81578   0.58967   0.71241   0.00000  Uiso   1.00
H965   H     0.73461   0.52903   0.95796   0.00000  Uiso   1.00
H966   H     0.99958   0.47990   0.97300   0.00000  Uiso   1.00
H967   H     0.66709   0.52011   0.52700   0.00000  Uiso   1.00
H968   H     0.84665   0.47632   0.58107   0.00000  Uiso   1.00
H969   H     0.82002   0.52370   0.91893   0.00000  Uiso   1.00
H970   H     0.92345   0.36999   0.75546   0.00000  Uiso   1.00
H971   H     0.74322   0.63001   0.74454   0.00000  Uiso   1.00
H972   H     0.92318   0.62888   0.75666   0.00000  Uiso   1.00
I973   I     0.80286   0.55249   0.61527   0.00000  Uiso   1.00
I974   I     0.86379   0.44753   0.88473   0.00000  Uiso   1.00
I975   I     0.75407   0.42763   0.82075   0.00000  Uiso   1.00
I976   I     0.91259   0.57237   0.67925   0.00000  Uiso   1.00
N977   N     0.78403   0.50001   0.74999   0.00000  Uiso   1.00
N978   N     0.88264   0.49999   0.75001   0.00000  Uiso   1.00
O979   O     0.70625   0.43989   0.75000   0.00000  Uiso   1.00
O980   O     0.70541   0.50271   0.89140   0.00000  Uiso   1.00
O981   O     0.87025   0.43529   0.78835   0.00000  Uiso   1.00
O982   O     0.79641   0.56471   0.71165   0.00000  Uiso   1.00
O983   O     0.96042   0.56011   0.75000   0.00000  Uiso   1.00
O984   O     0.96039   0.43988   0.75000   0.00000  Uiso   1.00
O985   O     0.70628   0.56012   0.74999   0.00000  Uiso   1.00
O986   O     0.68519   0.50001   0.81491   0.00000  Uiso   1.00
O987   O     0.98148   0.49999   0.68508   0.00000  Uiso   1.00
O988   O     0.93933   0.50000   0.81492   0.00000  Uiso   1.00
O989   O     0.72733   0.50000   0.68508   0.00000  Uiso   1.00
O990   O     0.96126   0.49729   0.60860   0.00000  Uiso   1.00
C991   C     0.33331   0.75413   0.74987   0.00000  Uiso   1.00
C992   C     0.04304   0.68826   0.74641   0.00000  Uiso   1.00
C993   C     0.33332   0.95720   0.75028   0.00000  Uiso   1.00
C994   C     0.00001   0.70947   0.74972   0.00000  Uiso   1.00
C995   C     0.18497   0.80180   0.77072   0.00000  Uiso   1.00
C996   C     0.14836   0.86486   0.72928   0.00000  Uiso   1.00
C997   C     0.13479   0.80292   0.77299   0.00000  Uiso   1.00
C998   C     0.19854   0.86374   0.72701   0.00000  Uiso   1.00
C999   C     0.30551   0.83200   0.83595   0.00000  Uiso   1.00
C1000  C     0.02782   0.83466   0.66405   0.00000  Uiso   1.00
C1001  C     0.28951   0.82901   0.88502   0.00000  Uiso   1.00
C1002  C     0.00002   0.91253   0.75013   0.00000  Uiso   1.00
C1003  C     0.04382   0.83766   0.61498   0.00000  Uiso   1.00
C1004  C     0.30670   0.81931   0.95533   0.00000  Uiso   1.00
C1005  C     0.02663   0.84737   0.54467   0.00000  Uiso   1.00
C1006  C     0.32312   0.82902   0.91001   0.00000  Uiso   1.00
C1007  C     0.01021   0.83766   0.58999   0.00000  Uiso   1.00
C1008  C     0.23983   0.82278   0.90812   0.00000  Uiso   1.00
C1009  C     0.09351   0.84389   0.59188   0.00000  Uiso   1.00
C1010  C     0.22364   0.82735   0.95385   0.00000  Uiso   1.00
C1011  C     0.10969   0.83933   0.54615   0.00000  Uiso   1.00
C1012  C     0.25719   0.82021   0.97781   0.00000  Uiso   1.00
C1013  C     0.19169   0.81720   0.54589   0.00000  Uiso   1.00
C1014  C     0.07614   0.84647   0.52219   0.00000  Uiso   1.00
C1015  C     0.17460   0.83541   0.97663   0.00000  Uiso   1.00
C1016  C     0.15874   0.83127   0.52337   0.00000  Uiso   1.00
C1017  C     0.14165   0.84948   0.95411   0.00000  Uiso   1.00
C1018  C     0.24062   0.81328   0.52356   0.00000  Uiso   1.00
C1019  C     0.09271   0.85340   0.97644   0.00000  Uiso   1.00
C1020  C     0.29037   0.68766   0.75311   0.00000  Uiso   1.00
C1021  C     0.04297   0.97901   0.74689   0.00000  Uiso   1.00
C1022  C     0.29029   0.97840   0.75359   0.00000  Uiso   1.00
Cu1023 Cu    0.04689   0.83334   0.75000   0.00000  Uiso   1.00
Cu1024 Cu    0.28645   0.83333   0.75000   0.00000  Uiso   1.00
H1025  H     0.26539   0.80432   0.54204   0.00000  Uiso   1.00
H1026  H     0.07681   0.70445   0.74334   0.00000  Uiso   1.00
H1027  H     0.29082   0.80517   0.62793   0.00000  Uiso   1.00
H1028  H     0.04252   0.86150   0.87206   0.00000  Uiso   1.00
H1029  H     0.18422   0.74366   0.78760   0.00000  Uiso   1.00
H1030  H     0.14911   0.92301   0.71241   0.00000  Uiso   1.00
H1031  H     0.06794   0.86237   0.95796   0.00000  Uiso   1.00
H1032  H     0.33291   0.81323   0.97300   0.00000  Uiso   1.00
H1033  H     0.00042   0.85345   0.52700   0.00000  Uiso   1.00
H1034  H     0.17999   0.80965   0.58107   0.00000  Uiso   1.00
H1035  H     0.15335   0.85703   0.91893   0.00000  Uiso   1.00
H1036  H     0.25678   0.70333   0.75546   0.00000  Uiso   1.00
H1037  H     0.07655   0.96334   0.74454   0.00000  Uiso   1.00
H1038  H     0.25652   0.96221   0.75666   0.00000  Uiso   1.00
I1039  I     0.13620   0.88582   0.61527   0.00000  Uiso   1.00
I1040  I     0.19713   0.78086   0.88473   0.00000  Uiso   1.00
I1041  I     0.08741   0.76097   0.82075   0.00000  Uiso   1.00
I1042  I     0.24593   0.90570   0.67925   0.00000  Uiso   1.00
N1043  N     0.11736   0.83334   0.74999   0.00000  Uiso   1.00
N1044  N     0.21597   0.83332   0.75001   0.00000  Uiso   1.00
O1045  O     0.03958   0.77322   0.75000   0.00000  Uiso   1.00
O1046  O     0.03874   0.83604   0.89140   0.00000  Uiso   1.00
O1047  O     0.20359   0.76862   0.78835   0.00000  Uiso   1.00
O1048  O     0.12975   0.89805   0.71165   0.00000  Uiso   1.00
O1049  O     0.29375   0.89345   0.75000   0.00000  Uiso   1.00
O1050  O     0.29372   0.77321   0.75000   0.00000  Uiso   1.00
O1051  O     0.03961   0.89346   0.74999   0.00000  Uiso   1.00
O1052  O     0.01852   0.83334   0.81491   0.00000  Uiso   1.00
O1053  O     0.31481   0.83332   0.68508   0.00000  Uiso   1.00
O1054  O     0.27267   0.83333   0.81492   0.00000  Uiso   1.00
O1055  O     0.06067   0.83333   0.68508   0.00000  Uiso   1.00
O1056  O     0.29459   0.83063   0.60860   0.00000  Uiso   1.00
C1057  C     0.66665   0.75413   0.74987   0.00000  Uiso   1.00
C1058  C     0.37637   0.68826   0.74641   0.00000  Uiso   1.00
C1059  C     0.66665   0.95720   0.75028   0.00000  Uiso   1.00
C1060  C     0.33335   0.70947   0.74972   0.00000  Uiso   1.00
C1061  C     0.51830   0.80180   0.77072   0.00000  Uiso   1.00
C1062  C     0.48169   0.86486   0.72928   0.00000  Uiso   1.00
C1063  C     0.46813   0.80292   0.77299   0.00000  Uiso   1.00
C1064  C     0.53187   0.86374   0.72701   0.00000  Uiso   1.00
C1065  C     0.63885   0.83200   0.83595   0.00000  Uiso   1.00
C1066  C     0.36115   0.83466   0.66405   0.00000  Uiso   1.00
C1067  C     0.62284   0.82901   0.88502   0.00000  Uiso   1.00
C1068  C     0.33335   0.91253   0.75013   0.00000  Uiso   1.00
C1069  C     0.37716   0.83766   0.61498   0.00000  Uiso   1.00
C1070  C     0.64003   0.81931   0.95533   0.00000  Uiso   1.00
C1071  C     0.35997   0.84737   0.54467   0.00000  Uiso   1.00
C1072  C     0.65646   0.82902   0.91001   0.00000  Uiso   1.00
C1073  C     0.34354   0.83766   0.58999   0.00000  Uiso   1.00
C1074  C     0.57316   0.82278   0.90812   0.00000  Uiso   1.00
C1075  C     0.42684   0.84389   0.59188   0.00000  Uiso   1.00
C1076  C     0.55697   0.82735   0.95385   0.00000  Uiso   1.00
C1077  C     0.44303   0.83933   0.54615   0.00000  Uiso   1.00
C1078  C     0.59052   0.82021   0.97781   0.00000  Uiso   1.00
C1079  C     0.52502   0.81720   0.54589   0.00000  Uiso   1.00
C1080  C     0.40948   0.84647   0.52219   0.00000  Uiso   1.00
C1081  C     0.50793   0.83541   0.97663   0.00000  Uiso   1.00
C1082  C     0.49207   0.83127   0.52337   0.00000  Uiso   1.00
C1083  C     0.47498   0.84948   0.95411   0.00000  Uiso   1.00
C1084  C     0.57395   0.81328   0.52356   0.00000  Uiso   1.00
C1085  C     0.42605   0.85340   0.97644   0.00000  Uiso   1.00
C1086  C     0.62370   0.68766   0.75311   0.00000  Uiso   1.00
C1087  C     0.37630   0.97901   0.74689   0.00000  Uiso   1.00
C1088  C     0.62362   0.97840   0.75359   0.00000  Uiso   1.00
Cu1089 Cu    0.38022   0.83334   0.75000   0.00000  Uiso   1.00
Cu1090 Cu    0.61978   0.83333   0.75000   0.00000  Uiso   1.00
H1091  H     0.59873   0.80432   0.54204   0.00000  Uiso   1.00
H1092  H     0.41015   0.70445   0.74334   0.00000  Uiso   1.00
H1093  H     0.62415   0.80517   0.62793   0.00000  Uiso   1.00
H1094  H     0.37585   0.86150   0.87206   0.00000  Uiso   1.00
H1095  H     0.51755   0.74366   0.78760   0.00000  Uiso   1.00
H1096  H     0.48245   0.92301   0.71241   0.00000  Uiso   1.00
H1097  H     0.40127   0.86237   0.95796   0.00000  Uiso   1.00
H1098  H     0.66625   0.81323   0.97300   0.00000  Uiso   1.00
H1099  H     0.33375   0.85345   0.52700   0.00000  Uiso   1.00
H1100  H     0.51332   0.80965   0.58107   0.00000  Uiso   1.00
H1101  H     0.48668   0.85703   0.91893   0.00000  Uiso   1.00
H1102  H     0.59011   0.70333   0.75546   0.00000  Uiso   1.00
H1103  H     0.40989   0.96334   0.74454   0.00000  Uiso   1.00
H1104  H     0.58985   0.96221   0.75666   0.00000  Uiso   1.00
I1105  I     0.46953   0.88582   0.61527   0.00000  Uiso   1.00
I1106  I     0.53046   0.78086   0.88473   0.00000  Uiso   1.00
I1107  I     0.42074   0.76097   0.82075   0.00000  Uiso   1.00
I1108  I     0.57926   0.90570   0.67925   0.00000  Uiso   1.00
N1109  N     0.45069   0.83334   0.74999   0.00000  Uiso   1.00
N1110  N     0.54931   0.83332   0.75001   0.00000  Uiso   1.00
O1111  O     0.37291   0.77322   0.75000   0.00000  Uiso   1.00
O1112  O     0.37208   0.83604   0.89140   0.00000  Uiso   1.00
O1113  O     0.53692   0.76862   0.78835   0.00000  Uiso   1.00
O1114  O     0.46308   0.89805   0.71165   0.00000  Uiso   1.00
O1115  O     0.62709   0.89345   0.75000   0.00000  Uiso   1.00
O1116  O     0.62706   0.77321   0.75000   0.00000  Uiso   1.00
O1117  O     0.37294   0.89346   0.74999   0.00000  Uiso   1.00
O1118  O     0.35186   0.83334   0.81491   0.00000  Uiso   1.00
O1119  O     0.64814   0.83332   0.68508   0.00000  Uiso   1.00
O1120  O     0.60600   0.83333   0.81492   0.00000  Uiso   1.00
O1121  O     0.39400   0.83333   0.68508   0.00000  Uiso   1.00
O1122  O     0.62792   0.83063   0.60860   0.00000  Uiso   1.00
C1123  C     0.99998   0.75413   0.74987   0.00000  Uiso   1.00
C1124  C     0.70971   0.68826   0.74641   0.00000  Uiso   1.00
C1125  C     0.99999   0.95720   0.75028   0.00000  Uiso   1.00
C1126  C     0.66668   0.70947   0.74972   0.00000  Uiso   1.00
C1127  C     0.85164   0.80180   0.77072   0.00000  Uiso   1.00
C1128  C     0.81503   0.86486   0.72928   0.00000  Uiso   1.00
C1129  C     0.80146   0.80292   0.77299   0.00000  Uiso   1.00
C1130  C     0.86521   0.86374   0.72701   0.00000  Uiso   1.00
C1131  C     0.97218   0.83200   0.83595   0.00000  Uiso   1.00
C1132  C     0.69448   0.83466   0.66405   0.00000  Uiso   1.00
C1133  C     0.95618   0.82901   0.88502   0.00000  Uiso   1.00
C1134  C     0.66669   0.91253   0.75013   0.00000  Uiso   1.00
C1135  C     0.71049   0.83766   0.61498   0.00000  Uiso   1.00
C1136  C     0.97337   0.81931   0.95533   0.00000  Uiso   1.00
C1137  C     0.69330   0.84737   0.54467   0.00000  Uiso   1.00
C1138  C     0.98979   0.82902   0.91001   0.00000  Uiso   1.00
C1139  C     0.67688   0.83766   0.58999   0.00000  Uiso   1.00
C1140  C     0.90649   0.82278   0.90812   0.00000  Uiso   1.00
C1141  C     0.76017   0.84389   0.59188   0.00000  Uiso   1.00
C1142  C     0.89031   0.82735   0.95385   0.00000  Uiso   1.00
C1143  C     0.77636   0.83933   0.54615   0.00000  Uiso   1.00
C1144  C     0.92386   0.82021   0.97781   0.00000  Uiso   1.00
C1145  C     0.85835   0.81720   0.54589   0.00000  Uiso   1.00
C1146  C     0.74281   0.84647   0.52219   0.00000  Uiso   1.00
C1147  C     0.84126   0.83541   0.97663   0.00000  Uiso   1.00
C1148  C     0.82540   0.83127   0.52337   0.00000  Uiso   1.00
C1149  C     0.80832   0.84948   0.95411   0.00000  Uiso   1.00
C1150  C     0.90729   0.81328   0.52356   0.00000  Uiso   1.00
C1151  C     0.75938   0.85340   0.97644   0.00000  Uiso   1.00
C1152  C     0.95703   0.68766   0.75311   0.00000  Uiso   1.00
C1153  C     0.70963   0.97901   0.74689   0.00000  Uiso   1.00
C1154  C     0.95696   0.97840   0.75359   0.00000  Uiso   1.00
Cu1155 Cu    0.71355   0.83334   0.75000   0.00000  Uiso   1.00
Cu1156 Cu    0.95311   0.83333   0.75000   0.00000  Uiso   1.00
H1157  H     0.93206   0.80432   0.54204   0.00000  Uiso   1.00
H1158  H     0.74348   0.70445   0.74334   0.00000  Uiso   1.00
H1159  H     0.95749   0.80517   0.62793   0.00000  Uiso   1.00
H1160  H     0.70918   0.86150   0.87206   0.00000  Uiso   1.00
H1161  H     0.85089   0.74366   0.78760   0.00000  Uiso   1.00
H1162  H     0.81578   0.92301   0.71241   0.00000  Uiso   1.00
H1163  H     0.73461   0.86237   0.95796   0.00000  Uiso   1.00
H1164  H     0.99958   0.81323   0.97300   0.00000  Uiso   1.00
H1165  H     0.66709   0.85345   0.52700   0.00000  Uiso   1.00
H1166  H     0.84665   0.80965   0.58107   0.00000  Uiso   1.00
H1167  H     0.82002   0.85703   0.91893   0.00000  Uiso   1.00
H1168  H     0.92345   0.70333   0.75546   0.00000  Uiso   1.00
H1169  H     0.74322   0.96334   0.74454   0.00000  Uiso   1.00
H1170  H     0.92318   0.96221   0.75666   0.00000  Uiso   1.00
I1171  I     0.80286   0.88582   0.61527   0.00000  Uiso   1.00
I1172  I     0.86379   0.78086   0.88473   0.00000  Uiso   1.00
I1173  I     0.75407   0.76097   0.82075   0.00000  Uiso   1.00
I1174  I     0.91259   0.90570   0.67925   0.00000  Uiso   1.00
N1175  N     0.78403   0.83334   0.74999   0.00000  Uiso   1.00
N1176  N     0.88264   0.83332   0.75001   0.00000  Uiso   1.00
O1177  O     0.70625   0.77322   0.75000   0.00000  Uiso   1.00
O1178  O     0.70541   0.83604   0.89140   0.00000  Uiso   1.00
O1179  O     0.87025   0.76862   0.78835   0.00000  Uiso   1.00
O1180  O     0.79641   0.89805   0.71165   0.00000  Uiso   1.00
O1181  O     0.96042   0.89345   0.75000   0.00000  Uiso   1.00
O1182  O     0.96039   0.77321   0.75000   0.00000  Uiso   1.00
O1183  O     0.70628   0.89346   0.74999   0.00000  Uiso   1.00
O1184  O     0.68519   0.83334   0.81491   0.00000  Uiso   1.00
O1185  O     0.98148   0.83332   0.68508   0.00000  Uiso   1.00
O1186  O     0.93933   0.83333   0.81492   0.00000  Uiso   1.00
O1187  O     0.72733   0.83333   0.68508   0.00000  Uiso   1.00
O1188  O     0.96126   0.83063   0.60860   0.00000  Uiso   1.00
loop_
_geom_bond_atom_site_label_1
_geom_bond_atom_site_label_2
_geom_bond_distance
_geom_bond_site_symmetry_2
_ccdc_geom_bond_type
C1     O60     1.300   .     A
C1     C70     1.452   .     S
C1     O121    1.300   .     S
C2     C4      1.401   .     A
C2     H36     1.083   .     S
C2     C427    1.383   1_545 S
C3     C32     1.401   .     A
C3     C78     1.452   .     S
C3     C97     1.400   .     S
C4     C133    1.452   1_455 S
C4     C162    1.400   1_455 S
C5     O57     1.372   .     S
C5     N54     1.365   .     A
C5     C7      1.429   .     A
C6     C8      1.429   .     A
C6     O58     1.372   .     S
C6     N53     1.365   .     A
C7     N53     1.381   .     A
C7     I51     2.142   .     S
C8     N54     1.381   .     A
C8     I52     2.142   .     S
C9     O64     1.310   .     A
C9     C11     1.486   .     S
C9     O128    1.307   .     S
C10    O65     1.310   .     A
C10    C13     1.486   .     S
C10    O195    1.307   1_455 S
C11    C18     1.414   .     A
C11    C16     1.422   .     A
C12    O61     1.300   .     A
C12    C135    1.452   1_455 S
C12    O191    1.300   1_455 S
C13    C17     1.422   .     A
C13    C19     1.414   .     A
C14    H42     1.079   .     S
C14    C22     1.398   .     A
C14    C16     1.394   .     A
C15    C17     1.394   .     A
C15    H43     1.079   .     S
C15    C24     1.398   .     A
C16    O122    1.375   .     S
C17    O198    1.375   1_455 S
C18    C20     1.403   .     A
C18    I50     2.135   .     S
C19    I49     2.135   .     S
C19    C21     1.403   .     A
C20    C22     1.409   .     A
C20    C25     1.419   .     A
C21    C26     1.419   .     A
C21    C24     1.409   .     A
C22    C622    1.394   .     S
C23    C28     1.391   .     A
C23    C26     1.412   .     A
C23    H44     1.082   .     S
C24    C623    1.394   1_554 S
C25    C27     1.412   .     A
C25    C620    1.417   .     S
C26    C619    1.417   1_554 S
C27    H45     1.082   .     S
C27    C29     1.391   .     A
C28    H35     1.082   .     S
C28    C616    1.394   1_554 S
C29    H41     1.082   .     S
C29    C618    1.394   .     S
C30    H46     1.081   .     S
C30    C70     1.400   .     S
C30    C428    1.383   1_545 S
C31    H47     1.081   .     S
C31    C200    1.383   .     S
C31    C135    1.400   1_455 S
C32    H48     1.083   .     S
C32    C228    1.383   .     S
Cu33   O55     1.964   .     S
Cu33   N53     2.034   .     S
Cu33   O61     1.965   .     S
Cu33   O62     1.980   .     S
Cu33   O65     1.980   .     S
Cu33   Cu166   2.706   1_455 S
Cu34   O60     1.965   .     S
Cu34   O64     1.980   .     S
Cu34   O63     1.980   .     S
Cu34   N54     2.034   .     S
Cu34   O59     1.964   .     S
Cu34   Cu99    2.706   .     S
H37    O66     0.991   .     S
H38    O56     0.991   .     S
H39    O57     0.989   .     S
H40    O58     0.989   .     S
O55    C133    1.300   1_455 S
O56    C148    1.375   1_455 S
O59    C78     1.300   .     S
O62    C141    1.307   1_455 S
O63    C76     1.307   .     S
O66    C83     1.375   .     S
C67    O126    1.300   .     A
C67    C136    1.452   .     S
C67    O187    1.300   .     S
C68    C70     1.401   .     A
C68    H102    1.083   .     S
C68    C493    1.383   1_545 S
C69    C98     1.401   .     A
C69    C144    1.452   .     S
C69    C163    1.400   .     S
C71    O123    1.372   .     S
C71    N120    1.365   .     A
C71    C73     1.429   .     A
C72    C74     1.429   .     A
C72    O124    1.372   .     S
C72    N119    1.365   .     A
C73    N119    1.381   .     A
C73    I117    2.142   .     S
C74    N120    1.381   .     A
C74    I118    2.142   .     S
C75    O130    1.310   .     A
C75    C77     1.486   .     S
C75    O194    1.307   .     S
C76    O131    1.310   .     A
C76    C79     1.486   .     S
C77    C84     1.414   .     A
C77    C82     1.422   .     A
C78    O127    1.300   .     A
C79    C83     1.422   .     A
C79    C85     1.414   .     A
C80    H108    1.079   .     S
C80    C88     1.398   .     A
C80    C82     1.394   .     A
C81    C83     1.394   .     A
C81    H109    1.079   .     S
C81    C90     1.398   .     A
C82    O188    1.375   .     S
C84    C86     1.403   .     A
C84    I116    2.135   .     S
C85    I115    2.135   .     S
C85    C87     1.403   .     A
C86    C88     1.409   .     A
C86    C91     1.419   .     A
C87    C92     1.419   .     A
C87    C90     1.409   .     A
C88    C688    1.394   .     S
C89    C94     1.391   .     A
C89    C92     1.412   .     A
C89    H110    1.082   .     S
C90    C689    1.394   1_554 S
C91    C93     1.412   .     A
C91    C686    1.417   .     S
C92    C685    1.417   1_554 S
C93    H111    1.082   .     S
C93    C95     1.391   .     A
C94    H101    1.082   .     S
C94    C682    1.394   1_554 S
C95    H107    1.082   .     S
C95    C684    1.394   .     S
C96    H112    1.081   .     S
C96    C136    1.400   .     S
C96    C494    1.383   1_545 S
C97    H113    1.081   .     S
C97    C266    1.383   .     S
C98    H114    1.083   .     S
C98    C294    1.383   .     S
Cu99   O121    1.964   .     S
Cu99   N119    2.034   .     S
Cu99   O127    1.965   .     S
Cu99   O128    1.980   .     S
Cu99   O131    1.980   .     S
Cu100  O126    1.965   .     S
Cu100  O130    1.980   .     S
Cu100  O129    1.980   .     S
Cu100  N120    2.034   .     S
Cu100  O125    1.964   .     S
Cu100  Cu165   2.706   .     S
H103   O132    0.991   .     S
H104   O122    0.991   .     S
H105   O123    0.989   .     S
H106   O124    0.989   .     S
O125   C144    1.300   .     S
O129   C142    1.307   .     S
O132   C149    1.375   .     S
C133   O192    1.300   .     A
C133   C4      1.452   1_655 S
C133   O55     1.300   1_655 S
C134   C136    1.401   .     A
C134   H168    1.083   .     S
C134   C559    1.383   1_545 S
C135   C164    1.401   .     A
C135   C12     1.452   1_655 S
C135   C31     1.400   1_655 S
C137   O189    1.372   .     S
C137   N186    1.365   .     A
C137   C139    1.429   .     A
C138   C140    1.429   .     A
C138   O190    1.372   .     S
C138   N185    1.365   .     A
C139   N185    1.381   .     A
C139   I183    2.142   .     S
C140   N186    1.381   .     A
C140   I184    2.142   .     S
C141   O196    1.310   .     A
C141   C143    1.486   .     S
C141   O62     1.307   1_655 S
C142   O197    1.310   .     A
C142   C145    1.486   .     S
C143   C150    1.414   .     A
C143   C148    1.422   .     A
C144   O193    1.300   .     A
C145   C149    1.422   .     A
C145   C151    1.414   .     A
C146   H174    1.079   .     S
C146   C154    1.398   .     A
C146   C148    1.394   .     A
C147   C149    1.394   .     A
C147   H175    1.079   .     S
C147   C156    1.398   .     A
C148   O56     1.375   1_655 S
C150   C152    1.403   .     A
C150   I182    2.135   .     S
C151   I181    2.135   .     S
C151   C153    1.403   .     A
C152   C154    1.409   .     A
C152   C157    1.419   .     A
C153   C158    1.419   .     A
C153   C156    1.409   .     A
C154   C754    1.394   .     S
C155   C160    1.391   .     A
C155   C158    1.412   .     A
C155   H176    1.082   .     S
C156   C755    1.394   1_554 S
C157   C159    1.412   .     A
C157   C752    1.417   .     S
C158   C751    1.417   1_554 S
C159   H177    1.082   .     S
C159   C161    1.391   .     A
C160   H167    1.082   .     S
C160   C748    1.394   1_554 S
C161   H173    1.082   .     S
C161   C750    1.394   .     S
C162   H178    1.081   .     S
C162   C4      1.400   1_655 S
C162   C560    1.383   1_545 S
C163   H179    1.081   .     S
C163   C332    1.383   .     S
C164   H180    1.083   .     S
C164   C360    1.383   .     S
Cu165  O187    1.964   .     S
Cu165  N185    2.034   .     S
Cu165  O193    1.965   .     S
Cu165  O194    1.980   .     S
Cu165  O197    1.980   .     S
Cu166  O192    1.965   .     S
Cu166  O196    1.980   .     S
Cu166  O195    1.980   .     S
Cu166  N186    2.034   .     S
Cu166  O191    1.964   .     S
Cu166  Cu33    2.706   1_655 S
H169   O198    0.991   .     S
H170   O188    0.991   .     S
H171   O189    0.989   .     S
H172   O190    0.989   .     S
O191   C12     1.300   1_655 S
O195   C10     1.307   1_655 S
O198   C17     1.375   1_655 S
C199   O258    1.300   .     A
C199   C268    1.452   .     S
C199   O319    1.300   .     S
C200   C202    1.401   .     A
C200   H234    1.083   .     S
C201   C230    1.401   .     A
C201   C276    1.452   .     S
C201   C295    1.400   .     S
C202   C331    1.452   1_455 S
C202   C360    1.400   1_455 S
C203   O255    1.372   .     S
C203   N252    1.365   .     A
C203   C205    1.429   .     A
C204   C206    1.429   .     A
C204   O256    1.372   .     S
C204   N251    1.365   .     A
C205   N251    1.381   .     A
C205   I249    2.142   .     S
C206   N252    1.381   .     A
C206   I250    2.142   .     S
C207   O262    1.310   .     A
C207   C209    1.486   .     S
C207   O326    1.307   .     S
C208   O263    1.310   .     A
C208   C211    1.486   .     S
C208   O393    1.307   1_455 S
C209   C216    1.414   .     A
C209   C214    1.422   .     A
C210   O259    1.300   .     A
C210   C333    1.452   1_455 S
C210   O389    1.300   1_455 S
C211   C215    1.422   .     A
C211   C217    1.414   .     A
C212   H240    1.079   .     S
C212   C220    1.398   .     A
C212   C214    1.394   .     A
C213   C215    1.394   .     A
C213   H241    1.079   .     S
C213   C222    1.398   .     A
C214   O320    1.375   .     S
C215   O396    1.375   1_455 S
C216   C218    1.403   .     A
C216   I248    2.135   .     S
C217   I247    2.135   .     S
C217   C219    1.403   .     A
C218   C220    1.409   .     A
C218   C223    1.419   .     A
C219   C224    1.419   .     A
C219   C222    1.409   .     A
C220   C820    1.394   .     S
C221   C226    1.391   .     A
C221   C224    1.412   .     A
C221   H242    1.082   .     S
C222   C821    1.394   1_554 S
C223   C225    1.412   .     A
C223   C818    1.417   .     S
C224   C817    1.417   1_554 S
C225   H243    1.082   .     S
C225   C227    1.391   .     A
C226   H233    1.082   .     S
C226   C814    1.394   1_554 S
C227   H239    1.082   .     S
C227   C816    1.394   .     S
C228   H244    1.081   .     S
C228   C268    1.400   .     S
C229   H245    1.081   .     S
C229   C398    1.383   .     S
C229   C333    1.400   1_455 S
C230   H246    1.083   .     S
C230   C426    1.383   .     S
Cu231  O253    1.964   .     S
Cu231  N251    2.034   .     S
Cu231  O259    1.965   .     S
Cu231  O260    1.980   .     S
Cu231  O263    1.980   .     S
Cu231  Cu364   2.706   1_455 S
Cu232  O258    1.965   .     S
Cu232  O262    1.980   .     S
Cu232  O261    1.980   .     S
Cu232  N252    2.034   .     S
Cu232  O257    1.964   .     S
Cu232  Cu297   2.706   .     S
H235   O264    0.991   .     S
H236   O254    0.991   .     S
H237   O255    0.989   .     S
H238   O256    0.989   .     S
O253   C331    1.300   1_455 S
O254   C346    1.375   1_455 S
O257   C276    1.300   .     S
O260   C339    1.307   1_455 S
O261   C274    1.307   .     S
O264   C281    1.375   .     S
C265   O324    1.300   .     A
C265   C334    1.452   .     S
C265   O385    1.300   .     S
C266   C268    1.401   .     A
C266   H300    1.083   .     S
C267   C296    1.401   .     A
C267   C342    1.452   .     S
C267   C361    1.400   .     S
C269   O321    1.372   .     S
C269   N318    1.365   .     A
C269   C271    1.429   .     A
C270   C272    1.429   .     A
C270   O322    1.372   .     S
C270   N317    1.365   .     A
C271   N317    1.381   .     A
C271   I315    2.142   .     S
C272   N318    1.381   .     A
C272   I316    2.142   .     S
C273   O328    1.310   .     A
C273   C275    1.486   .     S
C273   O392    1.307   .     S
C274   O329    1.310   .     A
C274   C277    1.486   .     S
C275   C282    1.414   .     A
C275   C280    1.422   .     A
C276   O325    1.300   .     A
C277   C281    1.422   .     A
C277   C283    1.414   .     A
C278   H306    1.079   .     S
C278   C286    1.398   .     A
C278   C280    1.394   .     A
C279   C281    1.394   .     A
C279   H307    1.079   .     S
C279   C288    1.398   .     A
C280   O386    1.375   .     S
C282   C284    1.403   .     A
C282   I314    2.135   .     S
C283   I313    2.135   .     S
C283   C285    1.403   .     A
C284   C286    1.409   .     A
C284   C289    1.419   .     A
C285   C290    1.419   .     A
C285   C288    1.409   .     A
C286   C886    1.394   .     S
C287   C292    1.391   .     A
C287   C290    1.412   .     A
C287   H308    1.082   .     S
C288   C887    1.394   1_554 S
C289   C291    1.412   .     A
C289   C884    1.417   .     S
C290   C883    1.417   1_554 S
C291   H309    1.082   .     S
C291   C293    1.391   .     A
C292   H299    1.082   .     S
C292   C880    1.394   1_554 S
C293   H305    1.082   .     S
C293   C882    1.394   .     S
C294   H310    1.081   .     S
C294   C334    1.400   .     S
C295   H311    1.081   .     S
C295   C464    1.383   .     S
C296   H312    1.083   .     S
C296   C492    1.383   .     S
Cu297  O319    1.964   .     S
Cu297  N317    2.034   .     S
Cu297  O325    1.965   .     S
Cu297  O326    1.980   .     S
Cu297  O329    1.980   .     S
Cu298  O324    1.965   .     S
Cu298  O328    1.980   .     S
Cu298  O327    1.980   .     S
Cu298  N318    2.034   .     S
Cu298  O323    1.964   .     S
Cu298  Cu363   2.706   .     S
H301   O330    0.991   .     S
H302   O320    0.991   .     S
H303   O321    0.989   .     S
H304   O322    0.989   .     S
O323   C342    1.300   .     S
O327   C340    1.307   .     S
O330   C347    1.375   .     S
C331   O390    1.300   .     A
C331   C202    1.452   1_655 S
C331   O253    1.300   1_655 S
C332   C334    1.401   .     A
C332   H366    1.083   .     S
C333   C362    1.401   .     A
C333   C210    1.452   1_655 S
C333   C229    1.400   1_655 S
C335   O387    1.372   .     S
C335   N384    1.365   .     A
C335   C337    1.429   .     A
C336   C338    1.429   .     A
C336   O388    1.372   .     S
C336   N383    1.365   .     A
C337   N383    1.381   .     A
C337   I381    2.142   .     S
C338   N384    1.381   .     A
C338   I382    2.142   .     S
C339   O394    1.310   .     A
C339   C341    1.486   .     S
C339   O260    1.307   1_655 S
C340   O395    1.310   .     A
C340   C343    1.486   .     S
C341   C348    1.414   .     A
C341   C346    1.422   .     A
C342   O391    1.300   .     A
C343   C347    1.422   .     A
C343   C349    1.414   .     A
C344   H372    1.079   .     S
C344   C352    1.398   .     A
C344   C346    1.394   .     A
C345   C347    1.394   .     A
C345   H373    1.079   .     S
C345   C354    1.398   .     A
C346   O254    1.375   1_655 S
C348   C350    1.403   .     A
C348   I380    2.135   .     S
C349   I379    2.135   .     S
C349   C351    1.403   .     A
C350   C352    1.409   .     A
C350   C355    1.419   .     A
C351   C356    1.419   .     A
C351   C354    1.409   .     A
C352   C952    1.394   .     S
C353   C358    1.391   .     A
C353   C356    1.412   .     A
C353   H374    1.082   .     S
C354   C953    1.394   1_554 S
C355   C357    1.412   .     A
C355   C950    1.417   .     S
C356   C949    1.417   1_554 S
C357   H375    1.082   .     S
C357   C359    1.391   .     A
C358   H365    1.082   .     S
C358   C946    1.394   1_554 S
C359   H371    1.082   .     S
C359   C948    1.394   .     S
C360   H376    1.081   .     S
C360   C202    1.400   1_655 S
C361   H377    1.081   .     S
C361   C530    1.383   .     S
C362   H378    1.083   .     S
C362   C558    1.383   .     S
Cu363  O385    1.964   .     S
Cu363  N383    2.034   .     S
Cu363  O391    1.965   .     S
Cu363  O392    1.980   .     S
Cu363  O395    1.980   .     S
Cu364  O390    1.965   .     S
Cu364  O394    1.980   .     S
Cu364  O393    1.980   .     S
Cu364  N384    2.034   .     S
Cu364  O389    1.964   .     S
Cu364  Cu231   2.706   1_655 S
H367   O396    0.991   .     S
H368   O386    0.991   .     S
H369   O387    0.989   .     S
H370   O388    0.989   .     S
O389   C210    1.300   1_655 S
O393   C208    1.307   1_655 S
O396   C215    1.375   1_655 S
C397   O456    1.300   .     A
C397   C466    1.452   .     S
C397   O517    1.300   .     S
C398   C400    1.401   .     A
C398   H432    1.083   .     S
C399   C428    1.401   .     A
C399   C474    1.452   .     S
C399   C493    1.400   .     S
C400   C529    1.452   1_455 S
C400   C558    1.400   1_455 S
C401   O453    1.372   .     S
C401   N450    1.365   .     A
C401   C403    1.429   .     A
C402   C404    1.429   .     A
C402   O454    1.372   .     S
C402   N449    1.365   .     A
C403   N449    1.381   .     A
C403   I447    2.142   .     S
C404   N450    1.381   .     A
C404   I448    2.142   .     S
C405   O460    1.310   .     A
C405   C407    1.486   .     S
C405   O524    1.307   .     S
C406   O461    1.310   .     A
C406   C409    1.486   .     S
C406   O591    1.307   1_455 S
C407   C414    1.414   .     A
C407   C412    1.422   .     A
C408   O457    1.300   .     A
C408   C531    1.452   1_455 S
C408   O587    1.300   1_455 S
C409   C413    1.422   .     A
C409   C415    1.414   .     A
C410   H438    1.079   .     S
C410   C418    1.398   .     A
C410   C412    1.394   .     A
C411   C413    1.394   .     A
C411   H439    1.079   .     S
C411   C420    1.398   .     A
C412   O518    1.375   .     S
C413   O594    1.375   1_455 S
C414   C416    1.403   .     A
C414   I446    2.135   .     S
C415   I445    2.135   .     S
C415   C417    1.403   .     A
C416   C418    1.409   .     A
C416   C421    1.419   .     A
C417   C422    1.419   .     A
C417   C420    1.409   .     A
C418   C1018   1.394   .     S
C419   C424    1.391   .     A
C419   C422    1.412   .     A
C419   H440    1.082   .     S
C420   C1019   1.394   1_554 S
C421   C423    1.412   .     A
C421   C1016   1.417   .     S
C422   C1015   1.417   1_554 S
C423   H441    1.082   .     S
C423   C425    1.391   .     A
C424   H431    1.082   .     S
C424   C1012   1.394   1_554 S
C425   H437    1.082   .     S
C425   C1014   1.394   .     S
C426   H442    1.081   .     S
C426   C466    1.400   .     S
C427   H443    1.081   .     S
C427   C2      1.383   1_565 S
C427   C531    1.400   1_455 S
C428   H444    1.083   .     S
C428   C30     1.383   1_565 S
Cu429  O451    1.964   .     S
Cu429  N449    2.034   .     S
Cu429  O457    1.965   .     S
Cu429  O458    1.980   .     S
Cu429  O461    1.980   .     S
Cu429  Cu562   2.706   1_455 S
Cu430  O456    1.965   .     S
Cu430  O460    1.980   .     S
Cu430  O459    1.980   .     S
Cu430  N450    2.034   .     S
Cu430  O455    1.964   .     S
Cu430  Cu495   2.706   .     S
H433   O462    0.991   .     S
H434   O452    0.991   .     S
H435   O453    0.989   .     S
H436   O454    0.989   .     S
O451   C529    1.300   1_455 S
O452   C544    1.375   1_455 S
O455   C474    1.300   .     S
O458   C537    1.307   1_455 S
O459   C472    1.307   .     S
O462   C479    1.375   .     S
C463   O522    1.300   .     A
C463   C532    1.452   .     S
C463   O583    1.300   .     S
C464   C466    1.401   .     A
C464   H498    1.083   .     S
C465   C494    1.401   .     A
C465   C540    1.452   .     S
C465   C559    1.400   .     S
C467   O519    1.372   .     S
C467   N516    1.365   .     A
C467   C469    1.429   .     A
C468   C470    1.429   .     A
C468   O520    1.372   .     S
C468   N515    1.365   .     A
C469   N515    1.381   .     A
C469   I513    2.142   .     S
C470   N516    1.381   .     A
C470   I514    2.142   .     S
C471   O526    1.310   .     A
C471   C473    1.486   .     S
C471   O590    1.307   .     S
C472   O527    1.310   .     A
C472   C475    1.486   .     S
C473   C480    1.414   .     A
C473   C478    1.422   .     A
C474   O523    1.300   .     A
C475   C479    1.422   .     A
C475   C481    1.414   .     A
C476   H504    1.079   .     S
C476   C484    1.398   .     A
C476   C478    1.394   .     A
C477   C479    1.394   .     A
C477   H505    1.079   .     S
C477   C486    1.398   .     A
C478   O584    1.375   .     S
C480   C482    1.403   .     A
C480   I512    2.135   .     S
C481   I511    2.135   .     S
C481   C483    1.403   .     A
C482   C484    1.409   .     A
C482   C487    1.419   .     A
C483   C488    1.419   .     A
C483   C486    1.409   .     A
C484   C1084   1.394   .     S
C485   C490    1.391   .     A
C485   C488    1.412   .     A
C485   H506    1.082   .     S
C486   C1085   1.394   1_554 S
C487   C489    1.412   .     A
C487   C1082   1.417   .     S
C488   C1081   1.417   1_554 S
C489   H507    1.082   .     S
C489   C491    1.391   .     A
C490   H497    1.082   .     S
C490   C1078   1.394   1_554 S
C491   H503    1.082   .     S
C491   C1080   1.394   .     S
C492   H508    1.081   .     S
C492   C532    1.400   .     S
C493   H509    1.081   .     S
C493   C68     1.383   1_565 S
C494   H510    1.083   .     S
C494   C96     1.383   1_565 S
Cu495  O517    1.964   .     S
Cu495  N515    2.034   .     S
Cu495  O523    1.965   .     S
Cu495  O524    1.980   .     S
Cu495  O527    1.980   .     S
Cu496  O522    1.965   .     S
Cu496  O526    1.980   .     S
Cu496  O525    1.980   .     S
Cu496  N516    2.034   .     S
Cu496  O521    1.964   .     S
Cu496  Cu561   2.706   .     S
H499   O528    0.991   .     S
H500   O518    0.991   .     S
H501   O519    0.989   .     S
H502   O520    0.989   .     S
O521   C540    1.300   .     S
O525   C538    1.307   .     S
O528   C545    1.375   .     S
C529   O588    1.300   .     A
C529   C400    1.452   1_655 S
C529   O451    1.300   1_655 S
C530   C532    1.401   .     A
C530   H564    1.083   .     S
C531   C560    1.401   .     A
C531   C408    1.452   1_655 S
C531   C427    1.400   1_655 S
C533   O585    1.372   .     S
C533   N582    1.365   .     A
C533   C535    1.429   .     A
C534   C536    1.429   .     A
C534   O586    1.372   .     S
C534   N581    1.365   .     A
C535   N581    1.381   .     A
C535   I579    2.142   .     S
C536   N582    1.381   .     A
C536   I580    2.142   .     S
C537   O592    1.310   .     A
C537   C539    1.486   .     S
C537   O458    1.307   1_655 S
C538   O593    1.310   .     A
C538   C541    1.486   .     S
C539   C546    1.414   .     A
C539   C544    1.422   .     A
C540   O589    1.300   .     A
C541   C545    1.422   .     A
C541   C547    1.414   .     A
C542   H570    1.079   .     S
C542   C550    1.398   .     A
C542   C544    1.394   .     A
C543   C545    1.394   .     A
C543   H571    1.079   .     S
C543   C552    1.398   .     A
C544   O452    1.375   1_655 S
C546   C548    1.403   .     A
C546   I578    2.135   .     S
C547   I577    2.135   .     S
C547   C549    1.403   .     A
C548   C550    1.409   .     A
C548   C553    1.419   .     A
C549   C554    1.419   .     A
C549   C552    1.409   .     A
C550   C1150   1.394   .     S
C551   C556    1.391   .     A
C551   C554    1.412   .     A
C551   H572    1.082   .     S
C552   C1151   1.394   1_554 S
C553   C555    1.412   .     A
C553   C1148   1.417   .     S
C554   C1147   1.417   1_554 S
C555   H573    1.082   .     S
C555   C557    1.391   .     A
C556   H563    1.082   .     S
C556   C1144   1.394   1_554 S
C557   H569    1.082   .     S
C557   C1146   1.394   .     S
C558   H574    1.081   .     S
C558   C400    1.400   1_655 S
C559   H575    1.081   .     S
C559   C134    1.383   1_565 S
C560   H576    1.083   .     S
C560   C162    1.383   1_565 S
Cu561  O583    1.964   .     S
Cu561  N581    2.034   .     S
Cu561  O589    1.965   .     S
Cu561  O590    1.980   .     S
Cu561  O593    1.980   .     S
Cu562  O588    1.965   .     S
Cu562  O592    1.980   .     S
Cu562  O591    1.980   .     S
Cu562  N582    2.034   .     S
Cu562  O587    1.964   .     S
Cu562  Cu429   2.706   1_655 S
H565   O594    0.991   .     S
H566   O584    0.991   .     S
H567   O585    0.989   .     S
H568   O586    0.989   .     S
O587   C408    1.300   1_655 S
O591   C406    1.307   1_655 S
O594   C413    1.375   1_655 S
C595   O654    1.300   .     A
C595   C664    1.452   .     S
C595   O715    1.300   .     S
C596   C598    1.401   .     A
C596   H630    1.083   .     S
C596   C1021   1.383   1_545 S
C597   C626    1.401   .     A
C597   C672    1.452   .     S
C597   C691    1.400   .     S
C598   C727    1.452   1_455 S
C598   C756    1.400   1_455 S
C599   O651    1.372   .     S
C599   N648    1.365   .     A
C599   C601    1.429   .     A
C600   C602    1.429   .     A
C600   O652    1.372   .     S
C600   N647    1.365   .     A
C601   N647    1.381   .     A
C601   I645    2.142   .     S
C602   N648    1.381   .     A
C602   I646    2.142   .     S
C603   O658    1.310   .     A
C603   C605    1.486   .     S
C603   O722    1.307   .     S
C604   O659    1.310   .     A
C604   C607    1.486   .     S
C604   O789    1.307   1_455 S
C605   C612    1.414   .     A
C605   C610    1.422   .     A
C606   O655    1.300   .     A
C606   C729    1.452   1_455 S
C606   O785    1.300   1_455 S
C607   C611    1.422   .     A
C607   C613    1.414   .     A
C608   H636    1.079   .     S
C608   C616    1.398   .     A
C608   C610    1.394   .     A
C609   C611    1.394   .     A
C609   H637    1.079   .     S
C609   C618    1.398   .     A
C610   O716    1.375   .     S
C611   O792    1.375   1_455 S
C612   C614    1.403   .     A
C612   I644    2.135   .     S
C613   I643    2.135   .     S
C613   C615    1.403   .     A
C614   C616    1.409   .     A
C614   C619    1.419   .     A
C615   C620    1.419   .     A
C615   C618    1.409   .     A
C616   C28     1.394   1_556 S
C617   C622    1.391   .     A
C617   C620    1.412   .     A
C617   H638    1.082   .     S
C619   C621    1.412   .     A
C619   C26     1.417   1_556 S
C621   H639    1.082   .     S
C621   C623    1.391   .     A
C622   H629    1.082   .     S
C623   H635    1.082   .     S
C623   C24     1.394   1_556 S
C624   H640    1.081   .     S
C624   C664    1.400   .     S
C624   C1022   1.383   1_545 S
C625   H641    1.081   .     S
C625   C794    1.383   .     S
C625   C729    1.400   1_455 S
C626   H642    1.083   .     S
C626   C822    1.383   .     S
Cu627  O649    1.964   .     S
Cu627  N647    2.034   .     S
Cu627  O655    1.965   .     S
Cu627  O656    1.980   .     S
Cu627  O659    1.980   .     S
Cu627  Cu760   2.706   1_455 S
Cu628  O654    1.965   .     S
Cu628  O658    1.980   .     S
Cu628  O657    1.980   .     S
Cu628  N648    2.034   .     S
Cu628  O653    1.964   .     S
Cu628  Cu693   2.706   .     S
H631   O660    0.991   .     S
H632   O650    0.991   .     S
H633   O651    0.989   .     S
H634   O652    0.989   .     S
O649   C727    1.300   1_455 S
O650   C742    1.375   1_455 S
O653   C672    1.300   .     S
O656   C735    1.307   1_455 S
O657   C670    1.307   .     S
O660   C677    1.375   .     S
C661   O720    1.300   .     A
C661   C730    1.452   .     S
C661   O781    1.300   .     S
C662   C664    1.401   .     A
C662   H696    1.083   .     S
C662   C1087   1.383   1_545 S
C663   C692    1.401   .     A
C663   C738    1.452   .     S
C663   C757    1.400   .     S
C665   O717    1.372   .     S
C665   N714    1.365   .     A
C665   C667    1.429   .     A
C666   C668    1.429   .     A
C666   O718    1.372   .     S
C666   N713    1.365   .     A
C667   N713    1.381   .     A
C667   I711    2.142   .     S
C668   N714    1.381   .     A
C668   I712    2.142   .     S
C669   O724    1.310   .     A
C669   C671    1.486   .     S
C669   O788    1.307   .     S
C670   O725    1.310   .     A
C670   C673    1.486   .     S
C671   C678    1.414   .     A
C671   C676    1.422   .     A
C672   O721    1.300   .     A
C673   C677    1.422   .     A
C673   C679    1.414   .     A
C674   H702    1.079   .     S
C674   C682    1.398   .     A
C674   C676    1.394   .     A
C675   C677    1.394   .     A
C675   H703    1.079   .     S
C675   C684    1.398   .     A
C676   O782    1.375   .     S
C678   C680    1.403   .     A
C678   I710    2.135   .     S
C679   I709    2.135   .     S
C679   C681    1.403   .     A
C680   C682    1.409   .     A
C680   C685    1.419   .     A
C681   C686    1.419   .     A
C681   C684    1.409   .     A
C682   C94     1.394   1_556 S
C683   C688    1.391   .     A
C683   C686    1.412   .     A
C683   H704    1.082   .     S
C685   C687    1.412   .     A
C685   C92     1.417   1_556 S
C687   H705    1.082   .     S
C687   C689    1.391   .     A
C688   H695    1.082   .     S
C689   H701    1.082   .     S
C689   C90     1.394   1_556 S
C690   H706    1.081   .     S
C690   C730    1.400   .     S
C690   C1088   1.383   1_545 S
C691   H707    1.081   .     S
C691   C860    1.383   .     S
C692   H708    1.083   .     S
C692   C888    1.383   .     S
Cu693  O715    1.964   .     S
Cu693  N713    2.034   .     S
Cu693  O721    1.965   .     S
Cu693  O722    1.980   .     S
Cu693  O725    1.980   .     S
Cu694  O720    1.965   .     S
Cu694  O724    1.980   .     S
Cu694  O723    1.980   .     S
Cu694  N714    2.034   .     S
Cu694  O719    1.964   .     S
Cu694  Cu759   2.706   .     S
H697   O726    0.991   .     S
H698   O716    0.991   .     S
H699   O717    0.989   .     S
H700   O718    0.989   .     S
O719   C738    1.300   .     S
O723   C736    1.307   .     S
O726   C743    1.375   .     S
C727   O786    1.300   .     A
C727   C598    1.452   1_655 S
C727   O649    1.300   1_655 S
C728   C730    1.401   .     A
C728   H762    1.083   .     S
C728   C1153   1.383   1_545 S
C729   C758    1.401   .     A
C729   C606    1.452   1_655 S
C729   C625    1.400   1_655 S
C731   O783    1.372   .     S
C731   N780    1.365   .     A
C731   C733    1.429   .     A
C732   C734    1.429   .     A
C732   O784    1.372   .     S
C732   N779    1.365   .     A
C733   N779    1.381   .     A
C733   I777    2.142   .     S
C734   N780    1.381   .     A
C734   I778    2.142   .     S
C735   O790    1.310   .     A
C735   C737    1.486   .     S
C735   O656    1.307   1_655 S
C736   O791    1.310   .     A
C736   C739    1.486   .     S
C737   C744    1.414   .     A
C737   C742    1.422   .     A
C738   O787    1.300   .     A
C739   C743    1.422   .     A
C739   C745    1.414   .     A
C740   H768    1.079   .     S
C740   C748    1.398   .     A
C740   C742    1.394   .     A
C741   C743    1.394   .     A
C741   H769    1.079   .     S
C741   C750    1.398   .     A
C742   O650    1.375   1_655 S
C744   C746    1.403   .     A
C744   I776    2.135   .     S
C745   I775    2.135   .     S
C745   C747    1.403   .     A
C746   C748    1.409   .     A
C746   C751    1.419   .     A
C747   C752    1.419   .     A
C747   C750    1.409   .     A
C748   C160    1.394   1_556 S
C749   C754    1.391   .     A
C749   C752    1.412   .     A
C749   H770    1.082   .     S
C751   C753    1.412   .     A
C751   C158    1.417   1_556 S
C753   H771    1.082   .     S
C753   C755    1.391   .     A
C754   H761    1.082   .     S
C755   H767    1.082   .     S
C755   C156    1.394   1_556 S
C756   H772    1.081   .     S
C756   C598    1.400   1_655 S
C756   C1154   1.383   1_545 S
C757   H773    1.081   .     S
C757   C926    1.383   .     S
C758   H774    1.083   .     S
C758   C954    1.383   .     S
Cu759  O781    1.964   .     S
Cu759  N779    2.034   .     S
Cu759  O787    1.965   .     S
Cu759  O788    1.980   .     S
Cu759  O791    1.980   .     S
Cu760  O786    1.965   .     S
Cu760  O790    1.980   .     S
Cu760  O789    1.980   .     S
Cu760  N780    2.034   .     S
Cu760  O785    1.964   .     S
Cu760  Cu627   2.706   1_655 S
H763   O792    0.991   .     S
H764   O782    0.991   .     S
H765   O783    0.989   .     S
H766   O784    0.989   .     S
O785   C606    1.300   1_655 S
O789   C604    1.307   1_655 S
O792   C611    1.375   1_655 S
C793   O852    1.300   .     A
C793   C862    1.452   .     S
C793   O913    1.300   .     S
C794   C796    1.401   .     A
C794   H828    1.083   .     S
C795   C824    1.401   .     A
C795   C870    1.452   .     S
C795   C889    1.400   .     S
C796   C925    1.452   1_455 S
C796   C954    1.400   1_455 S
C797   O849    1.372   .     S
C797   N846    1.365   .     A
C797   C799    1.429   .     A
C798   C800    1.429   .     A
C798   O850    1.372   .     S
C798   N845    1.365   .     A
C799   N845    1.381   .     A
C799   I843    2.142   .     S
C800   N846    1.381   .     A
C800   I844    2.142   .     S
C801   O856    1.310   .     A
C801   C803    1.486   .     S
C801   O920    1.307   .     S
C802   O857    1.310   .     A
C802   C805    1.486   .     S
C802   O987    1.307   1_455 S
C803   C810    1.414   .     A
C803   C808    1.422   .     A
C804   O853    1.300   .     A
C804   C927    1.452   1_455 S
C804   O983    1.300   1_455 S
C805   C809    1.422   .     A
C805   C811    1.414   .     A
C806   H834    1.079   .     S
C806   C814    1.398   .     A
C806   C808    1.394   .     A
C807   C809    1.394   .     A
C807   H835    1.079   .     S
C807   C816    1.398   .     A
C808   O914    1.375   .     S
C809   O990    1.375   1_455 S
C810   C812    1.403   .     A
C810   I842    2.135   .     S
C811   I841    2.135   .     S
C811   C813    1.403   .     A
C812   C814    1.409   .     A
C812   C817    1.419   .     A
C813   C818    1.419   .     A
C813   C816    1.409   .     A
C814   C226    1.394   1_556 S
C815   C820    1.391   .     A
C815   C818    1.412   .     A
C815   H836    1.082   .     S
C817   C819    1.412   .     A
C817   C224    1.417   1_556 S
C819   H837    1.082   .     S
C819   C821    1.391   .     A
C820   H827    1.082   .     S
C821   H833    1.082   .     S
C821   C222    1.394   1_556 S
C822   H838    1.081   .     S
C822   C862    1.400   .     S
C823   H839    1.081   .     S
C823   C992    1.383   .     S
C823   C927    1.400   1_455 S
C824   H840    1.083   .     S
C824   C1020   1.383   .     S
Cu825  O847    1.964   .     S
Cu825  N845    2.034   .     S
Cu825  O853    1.965   .     S
Cu825  O854    1.980   .     S
Cu825  O857    1.980   .     S
Cu825  Cu958   2.706   1_455 S
Cu826  O852    1.965   .     S
Cu826  O856    1.980   .     S
Cu826  O855    1.980   .     S
Cu826  N846    2.034   .     S
Cu826  O851    1.964   .     S
Cu826  Cu891   2.706   .     S
H829   O858    0.991   .     S
H830   O848    0.991   .     S
H831   O849    0.989   .     S
H832   O850    0.989   .     S
O847   C925    1.300   1_455 S
O848   C940    1.375   1_455 S
O851   C870    1.300   .     S
O854   C933    1.307   1_455 S
O855   C868    1.307   .     S
O858   C875    1.375   .     S
C859   O918    1.300   .     A
C859   C928    1.452   .     S
C859   O979    1.300   .     S
C860   C862    1.401   .     A
C860   H894    1.083   .     S
C861   C890    1.401   .     A
C861   C936    1.452   .     S
C861   C955    1.400   .     S
C863   O915    1.372   .     S
C863   N912    1.365   .     A
C863   C865    1.429   .     A
C864   C866    1.429   .     A
C864   O916    1.372   .     S
C864   N911    1.365   .     A
C865   N911    1.381   .     A
C865   I909    2.142   .     S
C866   N912    1.381   .     A
C866   I910    2.142   .     S
C867   O922    1.310   .     A
C867   C869    1.486   .     S
C867   O986    1.307   .     S
C868   O923    1.310   .     A
C868   C871    1.486   .     S
C869   C876    1.414   .     A
C869   C874    1.422   .     A
C870   O919    1.300   .     A
C871   C875    1.422   .     A
C871   C877    1.414   .     A
C872   H900    1.079   .     S
C872   C880    1.398   .     A
C872   C874    1.394   .     A
C873   C875    1.394   .     A
C873   H901    1.079   .     S
C873   C882    1.398   .     A
C874   O980    1.375   .     S
C876   C878    1.403   .     A
C876   I908    2.135   .     S
C877   I907    2.135   .     S
C877   C879    1.403   .     A
C878   C880    1.409   .     A
C878   C883    1.419   .     A
C879   C884    1.419   .     A
C879   C882    1.409   .     A
C880   C292    1.394   1_556 S
C881   C886    1.391   .     A
C881   C884    1.412   .     A
C881   H902    1.082   .     S
C883   C885    1.412   .     A
C883   C290    1.417   1_556 S
C885   H903    1.082   .     S
C885   C887    1.391   .     A
C886   H893    1.082   .     S
C887   H899    1.082   .     S
C887   C288    1.394   1_556 S
C888   H904    1.081   .     S
C888   C928    1.400   .     S
C889   H905    1.081   .     S
C889   C1058   1.383   .     S
C890   H906    1.083   .     S
C890   C1086   1.383   .     S
Cu891  O913    1.964   .     S
Cu891  N911    2.034   .     S
Cu891  O919    1.965   .     S
Cu891  O920    1.980   .     S
Cu891  O923    1.980   .     S
Cu892  O918    1.965   .     S
Cu892  O922    1.980   .     S
Cu892  O921    1.980   .     S
Cu892  N912    2.034   .     S
Cu892  O917    1.964   .     S
Cu892  Cu957   2.706   .     S
H895   O924    0.991   .     S
H896   O914    0.991   .     S
H897   O915    0.989   .     S
H898   O916    0.989   .     S
O917   C936    1.300   .     S
O921   C934    1.307   .     S
O924   C941    1.375   .     S
C925   O984    1.300   .     A
C925   C796    1.452   1_655 S
C925   O847    1.300   1_655 S
C926   C928    1.401   .     A
C926   H960    1.083   .     S
C927   C956    1.401   .     A
C927   C804    1.452   1_655 S
C927   C823    1.400   1_655 S
C929   O981    1.372   .     S
C929   N978    1.365   .     A
C929   C931    1.429   .     A
C930   C932    1.429   .     A
C930   O982    1.372   .     S
C930   N977    1.365   .     A
C931   N977    1.381   .     A
C931   I975    2.142   .     S
C932   N978    1.381   .     A
C932   I976    2.142   .     S
C933   O988    1.310   .     A
C933   C935    1.486   .     S
C933   O854    1.307   1_655 S
C934   O989    1.310   .     A
C934   C937    1.486   .     S
C935   C942    1.414   .     A
C935   C940    1.422   .     A
C936   O985    1.300   .     A
C937   C941    1.422   .     A
C937   C943    1.414   .     A
C938   H966    1.079   .     S
C938   C946    1.398   .     A
C938   C940    1.394   .     A
C939   C941    1.394   .     A
C939   H967    1.079   .     S
C939   C948    1.398   .     A
C940   O848    1.375   1_655 S
C942   C944    1.403   .     A
C942   I974    2.135   .     S
C943   I973    2.135   .     S
C943   C945    1.403   .     A
C944   C946    1.409   .     A
C944   C949    1.419   .     A
C945   C950    1.419   .     A
C945   C948    1.409   .     A
C946   C358    1.394   1_556 S
C947   C952    1.391   .     A
C947   C950    1.412   .     A
C947   H968    1.082   .     S
C949   C951    1.412   .     A
C949   C356    1.417   1_556 S
C951   H969    1.082   .     S
C951   C953    1.391   .     A
C952   H959    1.082   .     S
C953   H965    1.082   .     S
C953   C354    1.394   1_556 S
C954   H970    1.081   .     S
C954   C796    1.400   1_655 S
C955   H971    1.081   .     S
C955   C1124   1.383   .     S
C956   H972    1.083   .     S
C956   C1152   1.383   .     S
Cu957  O979    1.964   .     S
Cu957  N977    2.034   .     S
Cu957  O985    1.965   .     S
Cu957  O986    1.980   .     S
Cu957  O989    1.980   .     S
Cu958  O984    1.965   .     S
Cu958  O988    1.980   .     S
Cu958  O987    1.980   .     S
Cu958  N978    2.034   .     S
Cu958  O983    1.964   .     S
Cu958  Cu825   2.706   1_655 S
H961   O990    0.991   .     S
H962   O980    0.991   .     S
H963   O981    0.989   .     S
H964   O982    0.989   .     S
O983   C804    1.300   1_655 S
O987   C802    1.307   1_655 S
O990   C809    1.375   1_655 S
C991   O1050   1.300   .     A
C991   C1060   1.452   .     S
C991   O1111   1.300   .     S
C992   C994    1.401   .     A
C992   H1026   1.083   .     S
C993   C1022   1.401   .     A
C993   C1068   1.452   .     S
C993   C1087   1.400   .     S
C994   C1123   1.452   1_455 S
C994   C1152   1.400   1_455 S
C995   O1047   1.372   .     S
C995   N1044   1.365   .     A
C995   C997    1.429   .     A
C996   C998    1.429   .     A
C996   O1048   1.372   .     S
C996   N1043   1.365   .     A
C997   N1043   1.381   .     A
C997   I1041   2.142   .     S
C998   N1044   1.381   .     A
C998   I1042   2.142   .     S
C999   O1054   1.310   .     A
C999   C1001   1.486   .     S
C999   O1118   1.307   .     S
C1000  O1055   1.310   .     A
C1000  C1003   1.486   .     S
C1000  O1185   1.307   1_455 S
C1001  C1008   1.414   .     A
C1001  C1006   1.422   .     A
C1002  O1051   1.300   .     A
C1002  C1125   1.452   1_455 S
C1002  O1181   1.300   1_455 S
C1003  C1007   1.422   .     A
C1003  C1009   1.414   .     A
C1004  H1032   1.079   .     S
C1004  C1012   1.398   .     A
C1004  C1006   1.394   .     A
C1005  C1007   1.394   .     A
C1005  H1033   1.079   .     S
C1005  C1014   1.398   .     A
C1006  O1112   1.375   .     S
C1007  O1188   1.375   1_455 S
C1008  C1010   1.403   .     A
C1008  I1040   2.135   .     S
C1009  I1039   2.135   .     S
C1009  C1011   1.403   .     A
C1010  C1012   1.409   .     A
C1010  C1015   1.419   .     A
C1011  C1016   1.419   .     A
C1011  C1014   1.409   .     A
C1012  C424    1.394   1_556 S
C1013  C1018   1.391   .     A
C1013  C1016   1.412   .     A
C1013  H1034   1.082   .     S
C1015  C1017   1.412   .     A
C1015  C422    1.417   1_556 S
C1017  H1035   1.082   .     S
C1017  C1019   1.391   .     A
C1018  H1025   1.082   .     S
C1019  H1031   1.082   .     S
C1019  C420    1.394   1_556 S
C1020  H1036   1.081   .     S
C1020  C1060   1.400   .     S
C1021  H1037   1.081   .     S
C1021  C596    1.383   1_565 S
C1021  C1125   1.400   1_455 S
C1022  H1038   1.083   .     S
C1022  C624    1.383   1_565 S
Cu1023 O1045   1.964   .     S
Cu1023 N1043   2.034   .     S
Cu1023 O1051   1.965   .     S
Cu1023 O1052   1.980   .     S
Cu1023 O1055   1.980   .     S
Cu1023 Cu1156  2.706   1_455 S
Cu1024 O1050   1.965   .     S
Cu1024 O1054   1.980   .     S
Cu1024 O1053   1.980   .     S
Cu1024 N1044   2.034   .     S
Cu1024 O1049   1.964   .     S
Cu1024 Cu1089  2.706   .     S
H1027  O1056   0.991   .     S
H1028  O1046   0.991   .     S
H1029  O1047   0.989   .     S
H1030  O1048   0.989   .     S
O1045  C1123   1.300   1_455 S
O1046  C1138   1.375   1_455 S
O1049  C1068   1.300   .     S
O1052  C1131   1.307   1_455 S
O1053  C1066   1.307   .     S
O1056  C1073   1.375   .     S
C1057  O1116   1.300   .     A
C1057  C1126   1.452   .     S
C1057  O1177   1.300   .     S
C1058  C1060   1.401   .     A
C1058  H1092   1.083   .     S
C1059  C1088   1.401   .     A
C1059  C1134   1.452   .     S
C1059  C1153   1.400   .     S
C1061  O1113   1.372   .     S
C1061  N1110   1.365   .     A
C1061  C1063   1.429   .     A
C1062  C1064   1.429   .     A
C1062  O1114   1.372   .     S
C1062  N1109   1.365   .     A
C1063  N1109   1.381   .     A
C1063  I1107   2.142   .     S
C1064  N1110   1.381   .     A
C1064  I1108   2.142   .     S
C1065  O1120   1.310   .     A
C1065  C1067   1.486   .     S
C1065  O1184   1.307   .     S
C1066  O1121   1.310   .     A
C1066  C1069   1.486   .     S
C1067  C1074   1.414   .     A
C1067  C1072   1.422   .     A
C1068  O1117   1.300   .     A
C1069  C1073   1.422   .     A
C1069  C1075   1.414   .     A
C1070  H1098   1.079   .     S
C1070  C1078   1.398   .     A
C1070  C1072   1.394   .     A
C1071  C1073   1.394   .     A
C1071  H1099   1.079   .     S
C1071  C1080   1.398   .     A
C1072  O1178   1.375   .     S
C1074  C1076   1.403   .     A
C1074  I1106   2.135   .     S
C1075  I1105   2.135   .     S
C1075  C1077   1.403   .     A
C1076  C1078   1.409   .     A
C1076  C1081   1.419   .     A
C1077  C1082   1.419   .     A
C1077  C1080   1.409   .     A
C1078  C490    1.394   1_556 S
C1079  C1084   1.391   .     A
C1079  C1082   1.412   .     A
C1079  H1100   1.082   .     S
C1081  C1083   1.412   .     A
C1081  C488    1.417   1_556 S
C1083  H1101   1.082   .     S
C1083  C1085   1.391   .     A
C1084  H1091   1.082   .     S
C1085  H1097   1.082   .     S
C1085  C486    1.394   1_556 S
C1086  H1102   1.081   .     S
C1086  C1126   1.400   .     S
C1087  H1103   1.081   .     S
C1087  C662    1.383   1_565 S
C1088  H1104   1.083   .     S
C1088  C690    1.383   1_565 S
Cu1089 O1111   1.964   .     S
Cu1089 N1109   2.034   .     S
Cu1089 O1117   1.965   .     S
Cu1089 O1118   1.980   .     S
Cu1089 O1121   1.980   .     S
Cu1090 O1116   1.965   .     S
Cu1090 O1120   1.980   .     S
Cu1090 O1119   1.980   .     S
Cu1090 N1110   2.034   .     S
Cu1090 O1115   1.964   .     S
Cu1090 Cu1155  2.706   .     S
H1093  O1122   0.991   .     S
H1094  O1112   0.991   .     S
H1095  O1113   0.989   .     S
H1096  O1114   0.989   .     S
O1115  C1134   1.300   .     S
O1119  C1132   1.307   .     S
O1122  C1139   1.375   .     S
C1123  O1182   1.300   .     A
C1123  C994    1.452   1_655 S
C1123  O1045   1.300   1_655 S
C1124  C1126   1.401   .     A
C1124  H1158   1.083   .     S
C1125  C1154   1.401   .     A
C1125  C1002   1.452   1_655 S
C1125  C1021   1.400   1_655 S
C1127  O1179   1.372   .     S
C1127  N1176   1.365   .     A
C1127  C1129   1.429   .     A
C1128  C1130   1.429   .     A
C1128  O1180   1.372   .     S
C1128  N1175   1.365   .     A
C1129  N1175   1.381   .     A
C1129  I1173   2.142   .     S
C1130  N1176   1.381   .     A
C1130  I1174   2.142   .     S
C1131  O1186   1.310   .     A
C1131  C1133   1.486   .     S
C1131  O1052   1.307   1_655 S
C1132  O1187   1.310   .     A
C1132  C1135   1.486   .     S
C1133  C1140   1.414   .     A
C1133  C1138   1.422   .     A
C1134  O1183   1.300   .     A
C1135  C1139   1.422   .     A
C1135  C1141   1.414   .     A
C1136  H1164   1.079   .     S
C1136  C1144   1.398   .     A
C1136  C1138   1.394   .     A
C1137  C1139   1.394   .     A
C1137  H1165   1.079   .     S
C1137  C1146   1.398   .     A
C1138  O1046   1.375   1_655 S
C1140  C1142   1.403   .     A
C1140  I1172   2.135   .     S
C1141  I1171   2.135   .     S
C1141  C1143   1.403   .     A
C1142  C1144   1.409   .     A
C1142  C1147   1.419   .     A
C1143  C1148   1.419   .     A
C1143  C1146   1.409   .     A
C1144  C556    1.394   1_556 S
C1145  C1150   1.391   .     A
C1145  C1148   1.412   .     A
C1145  H1166   1.082   .     S
C1147  C1149   1.412   .     A
C1147  C554    1.417   1_556 S
C1149  H1167   1.082   .     S
C1149  C1151   1.391   .     A
C1150  H1157   1.082   .     S
C1151  H1163   1.082   .     S
C1151  C552    1.394   1_556 S
C1152  H1168   1.081   .     S
C1152  C994    1.400   1_655 S
C1153  H1169   1.081   .     S
C1153  C728    1.383   1_565 S
C1154  H1170   1.083   .     S
C1154  C756    1.383   1_565 S
Cu1155 O1177   1.964   .     S
Cu1155 N1175   2.034   .     S
Cu1155 O1183   1.965   .     S
Cu1155 O1184   1.980   .     S
Cu1155 O1187   1.980   .     S
Cu1156 O1182   1.965   .     S
Cu1156 O1186   1.980   .     S
Cu1156 O1185   1.980   .     S
Cu1156 N1176   2.034   .     S
Cu1156 O1181   1.964   .     S
Cu1156 Cu1023  2.706   1_655 S
H1159  O1188   0.991   .     S
H1160  O1178   0.991   .     S
H1161  O1179   0.989   .     S
H1162  O1180   0.989   .     S
O1181  C1002   1.300   1_655 S
O1185  C1000   1.307   1_655 S
O1188  C1007   1.375   1_655 S
