data_str_m2_o1_o17_pcu_sym.210
_audit_creation_date              2020-01-03
_audit_creation_method            'Materials Studio'
_symmetry_space_group_name_H-M    'P1'
_symmetry_Int_Tables_number       1
_symmetry_cell_setting            triclinic
loop_
_symmetry_equiv_pos_as_xyz
  x,y,z
_cell_length_a                    32.4552
_cell_length_b                    28.5506
_cell_length_c                    30.0337
_cell_angle_alpha                 90.1713
_cell_angle_beta                  90.0313
_cell_angle_gamma                 90.1147
loop_
_atom_site_label
_atom_site_type_symbol
_atom_site_fract_x
_atom_site_fract_y
_atom_site_fract_z
_atom_site_U_iso_or_equiv
_atom_site_adp_type
_atom_site_occupancy
C1     C     0.08736   0.16664   0.24994   0.00000  Uiso   1.00
C2     C     0.24598   0.16669   0.24999   0.00000  Uiso   1.00
C3     C     0.11490   0.22805   0.02383   0.00000  Uiso   1.00
C4     C     0.22147   0.10840   0.47621   0.00000  Uiso   1.00
C5     C     0.02122   0.12407   0.24941   0.00000  Uiso   1.00
C6     C     0.31212   0.20925   0.25031   0.00000  Uiso   1.00
C7     C     0.31195   0.12410   0.24945   0.00000  Uiso   1.00
C8     C     0.02138   0.20922   0.25027   0.00000  Uiso   1.00
C9     C     0.29059   0.16670   0.24992   0.00000  Uiso   1.00
C10    C     0.04275   0.16663   0.24986   0.00000  Uiso   1.00
C11    C     0.14090   0.02466   0.22252   0.00000  Uiso   1.00
C12    C     0.19241   0.30867   0.27749   0.00000  Uiso   1.00
C13    C     0.19241   0.02495   0.27750   0.00000  Uiso   1.00
C14    C     0.14090   0.30838   0.22252   0.00000  Uiso   1.00
C15    C     0.16671   0.16661   0.16439   0.00000  Uiso   1.00
C16    C     0.16664   0.16675   0.33562   0.00000  Uiso   1.00
C17    C     0.19304   0.13668   0.40678   0.00000  Uiso   1.00
C18    C     0.14132   0.19751   0.09324   0.00000  Uiso   1.00
C19    C     0.16693   0.16708   0.38388   0.00000  Uiso   1.00
C20    C     0.16700   0.16665   0.11613   0.00000  Uiso   1.00
C21    C     0.14158   0.19838   0.40693   0.00000  Uiso   1.00
C22    C     0.19350   0.13659   0.09310   0.00000  Uiso   1.00
C23    C     0.14163   0.19921   0.45348   0.00000  Uiso   1.00
C24    C     0.19517   0.13773   0.04657   0.00000  Uiso   1.00
C25    C     0.16827   0.16856   0.47667   0.00000  Uiso   1.00
C26    C     0.16838   0.16821   0.02336   0.00000  Uiso   1.00
C27    C     0.19442   0.13775   0.45314   0.00000  Uiso   1.00
C28    C     0.14140   0.19808   0.04688   0.00000  Uiso   1.00
C29    C     0.11551   0.22977   0.47736   0.00000  Uiso   1.00
C30    C     0.22303   0.10922   0.02269   0.00000  Uiso   1.00
Cu31   Cu    0.16667   0.21355   0.25000   0.00000  Uiso   1.00
Cu32   Cu    0.16667   0.11978   0.25000   0.00000  Uiso   1.00
H33    H     0.21283   0.11292   0.38839   0.00000  Uiso   1.00
H34    H     0.12087   0.22054   0.11162   0.00000  Uiso   1.00
H35    H     0.12141   0.22137   0.38833   0.00000  Uiso   1.00
H36    H     0.21329   0.11317   0.11168   0.00000  Uiso   1.00
H37    H     0.09371   0.25040   0.04190   0.00000  Uiso   1.00
H38    H     0.24172   0.08492   0.45815   0.00000  Uiso   1.00
H39    H     0.03718   0.09079   0.24903   0.00000  Uiso   1.00
H40    H     0.29615   0.24254   0.25068   0.00000  Uiso   1.00
H41    H     0.29586   0.09083   0.24911   0.00000  Uiso   1.00
H42    H     0.03748   0.24250   0.25060   0.00000  Uiso   1.00
H43    H     0.12026   0.04325   0.20052   0.00000  Uiso   1.00
H44    H     0.21304   0.29008   0.29951   0.00000  Uiso   1.00
H45    H     0.21304   0.04377   0.29952   0.00000  Uiso   1.00
H46    H     0.12027   0.28956   0.20051   0.00000  Uiso   1.00
N47    N     0.16667   0.28402   0.25000   0.00000  Uiso   1.00
N48    N     0.16667   0.04931   0.25000   0.00000  Uiso   1.00
O49    O     0.10655   0.20625   0.25000   0.00000  Uiso   1.00
O50    O     0.22679   0.12709   0.25001   0.00000  Uiso   1.00
O51    O     0.22679   0.20625   0.25001   0.00000  Uiso   1.00
O52    O     0.10655   0.12709   0.25000   0.00000  Uiso   1.00
O53    O     0.16666   0.20627   0.18513   0.00000  Uiso   1.00
O54    O     0.16668   0.12707   0.31487   0.00000  Uiso   1.00
O55    O     0.16668   0.20627   0.31487   0.00000  Uiso   1.00
O56    O     0.16666   0.12707   0.18513   0.00000  Uiso   1.00
O57    O     0.08811   0.25897   0.45565   0.00000  Uiso   1.00
C58    C     0.10785   0.30175   0.44488   0.00000  Uiso   1.00
H59    H     0.09363   0.31491   0.41368   0.00000  Uiso   1.00
H60    H     0.14146   0.29784   0.43779   0.00000  Uiso   1.00
C61    C     0.10104   0.00487   0.48173   0.00000  Uiso   1.00
H62    H     0.06756   0.00809   0.48887   0.00000  Uiso   1.00
H63    H     0.11697   0.32691   0.01260   0.00000  Uiso   1.00
C64    C     0.11795   0.05263   0.46823   0.00000  Uiso   1.00
H65    H     0.15108   0.04964   0.45963   0.00000  Uiso   1.00
H66    H     0.11468   0.07767   0.49636   0.00000  Uiso   1.00
H67    H     0.10081   0.06644   0.43908   0.00000  Uiso   1.00
O68    O     0.25046   0.07996   0.04431   0.00000  Uiso   1.00
C69    C     0.28628   0.10550   0.05646   0.00000  Uiso   1.00
H70    H     0.29916   0.08891   0.08684   0.00000  Uiso   1.00
H71    H     0.27985   0.14275   0.06553   0.00000  Uiso   1.00
C72    C     0.31882   0.10317   0.01948   0.00000  Uiso   1.00
H73    H     0.32483   0.06597   0.01065   0.00000  Uiso   1.00
H74    H     0.30728   0.12146   0.48939   0.00000  Uiso   1.00
C75    C     0.02584   0.12625   0.03399   0.00000  Uiso   1.00
H76    H     0.02058   0.16350   0.04309   0.00000  Uiso   1.00
H77    H     0.04831   0.12497   0.00616   0.00000  Uiso   1.00
H78    H     0.03913   0.10751   0.06298   0.00000  Uiso   1.00
C79    C     0.42069   0.16664   0.24994   0.00000  Uiso   1.00
C80    C     0.57931   0.16669   0.24999   0.00000  Uiso   1.00
C81    C     0.44824   0.22805   0.02383   0.00000  Uiso   1.00
C82    C     0.55481   0.10840   0.47621   0.00000  Uiso   1.00
C83    C     0.35455   0.12407   0.24941   0.00000  Uiso   1.00
C84    C     0.64545   0.20925   0.25031   0.00000  Uiso   1.00
C85    C     0.64529   0.12410   0.24945   0.00000  Uiso   1.00
C86    C     0.35471   0.20922   0.25027   0.00000  Uiso   1.00
C87    C     0.62392   0.16670   0.24992   0.00000  Uiso   1.00
C88    C     0.37608   0.16663   0.24986   0.00000  Uiso   1.00
C89    C     0.47424   0.02466   0.22252   0.00000  Uiso   1.00
C90    C     0.52575   0.30867   0.27749   0.00000  Uiso   1.00
C91    C     0.52575   0.02495   0.27750   0.00000  Uiso   1.00
C92    C     0.47424   0.30838   0.22252   0.00000  Uiso   1.00
C93    C     0.50004   0.16661   0.16439   0.00000  Uiso   1.00
C94    C     0.49998   0.16675   0.33562   0.00000  Uiso   1.00
C95    C     0.52637   0.13668   0.40678   0.00000  Uiso   1.00
C96    C     0.47465   0.19751   0.09324   0.00000  Uiso   1.00
C97    C     0.50026   0.16708   0.38388   0.00000  Uiso   1.00
C98    C     0.50033   0.16665   0.11613   0.00000  Uiso   1.00
C99    C     0.47491   0.19838   0.40693   0.00000  Uiso   1.00
C100   C     0.52683   0.13659   0.09310   0.00000  Uiso   1.00
C101   C     0.47496   0.19921   0.45348   0.00000  Uiso   1.00
C102   C     0.52850   0.13773   0.04657   0.00000  Uiso   1.00
C103   C     0.50160   0.16856   0.47667   0.00000  Uiso   1.00
C104   C     0.50171   0.16821   0.02336   0.00000  Uiso   1.00
C105   C     0.52775   0.13775   0.45314   0.00000  Uiso   1.00
C106   C     0.47473   0.19808   0.04688   0.00000  Uiso   1.00
C107   C     0.44884   0.22977   0.47736   0.00000  Uiso   1.00
C108   C     0.55637   0.10922   0.02269   0.00000  Uiso   1.00
Cu109  Cu    0.50000   0.21355   0.25000   0.00000  Uiso   1.00
Cu110  Cu    0.50000   0.11978   0.25000   0.00000  Uiso   1.00
H111   H     0.54616   0.11292   0.38839   0.00000  Uiso   1.00
H112   H     0.45420   0.22054   0.11162   0.00000  Uiso   1.00
H113   H     0.45474   0.22137   0.38833   0.00000  Uiso   1.00
H114   H     0.54662   0.11317   0.11168   0.00000  Uiso   1.00
H115   H     0.42704   0.25040   0.04190   0.00000  Uiso   1.00
H116   H     0.57505   0.08492   0.45815   0.00000  Uiso   1.00
H117   H     0.37052   0.09079   0.24903   0.00000  Uiso   1.00
H118   H     0.62949   0.24254   0.25068   0.00000  Uiso   1.00
H119   H     0.62919   0.09083   0.24911   0.00000  Uiso   1.00
H120   H     0.37081   0.24250   0.25060   0.00000  Uiso   1.00
H121   H     0.45360   0.04325   0.20052   0.00000  Uiso   1.00
H122   H     0.54637   0.29008   0.29951   0.00000  Uiso   1.00
H123   H     0.54637   0.04377   0.29952   0.00000  Uiso   1.00
H124   H     0.45360   0.28956   0.20051   0.00000  Uiso   1.00
N125   N     0.50000   0.28402   0.25000   0.00000  Uiso   1.00
N126   N     0.50000   0.04931   0.25000   0.00000  Uiso   1.00
O127   O     0.43988   0.20625   0.25000   0.00000  Uiso   1.00
O128   O     0.56012   0.12709   0.25001   0.00000  Uiso   1.00
O129   O     0.56012   0.20625   0.25001   0.00000  Uiso   1.00
O130   O     0.43988   0.12709   0.25000   0.00000  Uiso   1.00
O131   O     0.49999   0.20627   0.18513   0.00000  Uiso   1.00
O132   O     0.50001   0.12707   0.31487   0.00000  Uiso   1.00
O133   O     0.50001   0.20627   0.31487   0.00000  Uiso   1.00
O134   O     0.49999   0.12707   0.18513   0.00000  Uiso   1.00
O135   O     0.42144   0.25897   0.45565   0.00000  Uiso   1.00
C136   C     0.44118   0.30175   0.44488   0.00000  Uiso   1.00
H137   H     0.42696   0.31491   0.41368   0.00000  Uiso   1.00
H138   H     0.47480   0.29784   0.43779   0.00000  Uiso   1.00
C139   C     0.43438   0.00487   0.48173   0.00000  Uiso   1.00
H140   H     0.40090   0.00809   0.48887   0.00000  Uiso   1.00
H141   H     0.45031   0.32691   0.01260   0.00000  Uiso   1.00
C142   C     0.45128   0.05263   0.46823   0.00000  Uiso   1.00
H143   H     0.48442   0.04964   0.45963   0.00000  Uiso   1.00
H144   H     0.44802   0.07767   0.49636   0.00000  Uiso   1.00
H145   H     0.43415   0.06644   0.43908   0.00000  Uiso   1.00
O146   O     0.58379   0.07996   0.04431   0.00000  Uiso   1.00
C147   C     0.61961   0.10550   0.05646   0.00000  Uiso   1.00
H148   H     0.63250   0.08891   0.08684   0.00000  Uiso   1.00
H149   H     0.61319   0.14275   0.06553   0.00000  Uiso   1.00
C150   C     0.65215   0.10317   0.01948   0.00000  Uiso   1.00
H151   H     0.65816   0.06597   0.01065   0.00000  Uiso   1.00
H152   H     0.64061   0.12146   0.48939   0.00000  Uiso   1.00
C153   C     0.35917   0.12625   0.03399   0.00000  Uiso   1.00
H154   H     0.35391   0.16350   0.04309   0.00000  Uiso   1.00
H155   H     0.38165   0.12497   0.00616   0.00000  Uiso   1.00
H156   H     0.37247   0.10751   0.06298   0.00000  Uiso   1.00
C157   C     0.75402   0.16664   0.24994   0.00000  Uiso   1.00
C158   C     0.91264   0.16669   0.24999   0.00000  Uiso   1.00
C159   C     0.78157   0.22805   0.02383   0.00000  Uiso   1.00
C160   C     0.88814   0.10840   0.47621   0.00000  Uiso   1.00
C161   C     0.68788   0.12407   0.24941   0.00000  Uiso   1.00
C162   C     0.97878   0.20925   0.25031   0.00000  Uiso   1.00
C163   C     0.97862   0.12410   0.24945   0.00000  Uiso   1.00
C164   C     0.68805   0.20922   0.25027   0.00000  Uiso   1.00
C165   C     0.95725   0.16670   0.24992   0.00000  Uiso   1.00
C166   C     0.70941   0.16663   0.24986   0.00000  Uiso   1.00
C167   C     0.80757   0.02466   0.22252   0.00000  Uiso   1.00
C168   C     0.85908   0.30867   0.27749   0.00000  Uiso   1.00
C169   C     0.85908   0.02495   0.27750   0.00000  Uiso   1.00
C170   C     0.80757   0.30838   0.22252   0.00000  Uiso   1.00
C171   C     0.83338   0.16661   0.16439   0.00000  Uiso   1.00
C172   C     0.83331   0.16675   0.33562   0.00000  Uiso   1.00
C173   C     0.85971   0.13668   0.40678   0.00000  Uiso   1.00
C174   C     0.80798   0.19751   0.09324   0.00000  Uiso   1.00
C175   C     0.83360   0.16708   0.38388   0.00000  Uiso   1.00
C176   C     0.83367   0.16665   0.11613   0.00000  Uiso   1.00
C177   C     0.80825   0.19838   0.40693   0.00000  Uiso   1.00
C178   C     0.86016   0.13659   0.09310   0.00000  Uiso   1.00
C179   C     0.80829   0.19921   0.45348   0.00000  Uiso   1.00
C180   C     0.86183   0.13773   0.04657   0.00000  Uiso   1.00
C181   C     0.83494   0.16856   0.47667   0.00000  Uiso   1.00
C182   C     0.83504   0.16821   0.02336   0.00000  Uiso   1.00
C183   C     0.86108   0.13775   0.45314   0.00000  Uiso   1.00
C184   C     0.80807   0.19808   0.04688   0.00000  Uiso   1.00
C185   C     0.78218   0.22977   0.47736   0.00000  Uiso   1.00
C186   C     0.88970   0.10922   0.02269   0.00000  Uiso   1.00
Cu187  Cu    0.83333   0.21355   0.25000   0.00000  Uiso   1.00
Cu188  Cu    0.83333   0.11978   0.25000   0.00000  Uiso   1.00
H189   H     0.87949   0.11292   0.38839   0.00000  Uiso   1.00
H190   H     0.78754   0.22054   0.11162   0.00000  Uiso   1.00
H191   H     0.78807   0.22137   0.38833   0.00000  Uiso   1.00
H192   H     0.87996   0.11317   0.11168   0.00000  Uiso   1.00
H193   H     0.76038   0.25040   0.04190   0.00000  Uiso   1.00
H194   H     0.90838   0.08492   0.45815   0.00000  Uiso   1.00
H195   H     0.70385   0.09079   0.24903   0.00000  Uiso   1.00
H196   H     0.96282   0.24254   0.25068   0.00000  Uiso   1.00
H197   H     0.96252   0.09083   0.24911   0.00000  Uiso   1.00
H198   H     0.70414   0.24250   0.25060   0.00000  Uiso   1.00
H199   H     0.78693   0.04325   0.20052   0.00000  Uiso   1.00
H200   H     0.87971   0.29008   0.29951   0.00000  Uiso   1.00
H201   H     0.87970   0.04377   0.29952   0.00000  Uiso   1.00
H202   H     0.78694   0.28956   0.20051   0.00000  Uiso   1.00
N203   N     0.83333   0.28402   0.25000   0.00000  Uiso   1.00
N204   N     0.83333   0.04931   0.25000   0.00000  Uiso   1.00
O205   O     0.77321   0.20625   0.25000   0.00000  Uiso   1.00
O206   O     0.89345   0.12709   0.25001   0.00000  Uiso   1.00
O207   O     0.89345   0.20625   0.25001   0.00000  Uiso   1.00
O208   O     0.77321   0.12709   0.25000   0.00000  Uiso   1.00
O209   O     0.83332   0.20627   0.18513   0.00000  Uiso   1.00
O210   O     0.83334   0.12707   0.31487   0.00000  Uiso   1.00
O211   O     0.83334   0.20627   0.31487   0.00000  Uiso   1.00
O212   O     0.83332   0.12707   0.18513   0.00000  Uiso   1.00
O213   O     0.75477   0.25897   0.45565   0.00000  Uiso   1.00
C214   C     0.77451   0.30175   0.44488   0.00000  Uiso   1.00
H215   H     0.76029   0.31491   0.41368   0.00000  Uiso   1.00
H216   H     0.80813   0.29784   0.43779   0.00000  Uiso   1.00
C217   C     0.76771   0.00487   0.48173   0.00000  Uiso   1.00
H218   H     0.73423   0.00809   0.48887   0.00000  Uiso   1.00
H219   H     0.78364   0.32691   0.01260   0.00000  Uiso   1.00
C220   C     0.78462   0.05263   0.46823   0.00000  Uiso   1.00
H221   H     0.81775   0.04964   0.45963   0.00000  Uiso   1.00
H222   H     0.78135   0.07767   0.49636   0.00000  Uiso   1.00
H223   H     0.76748   0.06644   0.43908   0.00000  Uiso   1.00
O224   O     0.91713   0.07996   0.04431   0.00000  Uiso   1.00
C225   C     0.95295   0.10550   0.05646   0.00000  Uiso   1.00
H226   H     0.96583   0.08891   0.08684   0.00000  Uiso   1.00
H227   H     0.94652   0.14275   0.06553   0.00000  Uiso   1.00
C228   C     0.98549   0.10317   0.01948   0.00000  Uiso   1.00
H229   H     0.99149   0.06597   0.01065   0.00000  Uiso   1.00
H230   H     0.97394   0.12146   0.48939   0.00000  Uiso   1.00
C231   C     0.69250   0.12625   0.03399   0.00000  Uiso   1.00
H232   H     0.68724   0.16350   0.04309   0.00000  Uiso   1.00
H233   H     0.71498   0.12497   0.00616   0.00000  Uiso   1.00
H234   H     0.70580   0.10751   0.06298   0.00000  Uiso   1.00
C235   C     0.08736   0.49997   0.24994   0.00000  Uiso   1.00
C236   C     0.24598   0.50003   0.24999   0.00000  Uiso   1.00
C237   C     0.11490   0.56139   0.02383   0.00000  Uiso   1.00
C238   C     0.22147   0.44173   0.47621   0.00000  Uiso   1.00
C239   C     0.02122   0.45741   0.24941   0.00000  Uiso   1.00
C240   C     0.31212   0.54259   0.25031   0.00000  Uiso   1.00
C241   C     0.31195   0.45744   0.24945   0.00000  Uiso   1.00
C242   C     0.02138   0.54256   0.25027   0.00000  Uiso   1.00
C243   C     0.29059   0.50003   0.24992   0.00000  Uiso   1.00
C244   C     0.04275   0.49997   0.24986   0.00000  Uiso   1.00
C245   C     0.14090   0.35800   0.22252   0.00000  Uiso   1.00
C246   C     0.19241   0.64200   0.27749   0.00000  Uiso   1.00
C247   C     0.19241   0.35829   0.27750   0.00000  Uiso   1.00
C248   C     0.14090   0.64171   0.22252   0.00000  Uiso   1.00
C249   C     0.16671   0.49995   0.16439   0.00000  Uiso   1.00
C250   C     0.16664   0.50008   0.33562   0.00000  Uiso   1.00
C251   C     0.19304   0.47001   0.40678   0.00000  Uiso   1.00
C252   C     0.14132   0.53084   0.09324   0.00000  Uiso   1.00
C253   C     0.16693   0.50041   0.38388   0.00000  Uiso   1.00
C254   C     0.16700   0.49999   0.11613   0.00000  Uiso   1.00
C255   C     0.14158   0.53171   0.40693   0.00000  Uiso   1.00
C256   C     0.19350   0.46993   0.09310   0.00000  Uiso   1.00
C257   C     0.14163   0.53255   0.45348   0.00000  Uiso   1.00
C258   C     0.19517   0.47106   0.04657   0.00000  Uiso   1.00
C259   C     0.16827   0.50189   0.47667   0.00000  Uiso   1.00
C260   C     0.16838   0.50154   0.02336   0.00000  Uiso   1.00
C261   C     0.19442   0.47108   0.45314   0.00000  Uiso   1.00
C262   C     0.14140   0.53141   0.04688   0.00000  Uiso   1.00
C263   C     0.11551   0.56311   0.47736   0.00000  Uiso   1.00
C264   C     0.22303   0.44255   0.02269   0.00000  Uiso   1.00
Cu265  Cu    0.16667   0.54689   0.25000   0.00000  Uiso   1.00
Cu266  Cu    0.16667   0.45311   0.25000   0.00000  Uiso   1.00
H267   H     0.21283   0.44626   0.38839   0.00000  Uiso   1.00
H268   H     0.12087   0.55387   0.11162   0.00000  Uiso   1.00
H269   H     0.12141   0.55471   0.38833   0.00000  Uiso   1.00
H270   H     0.21329   0.44650   0.11168   0.00000  Uiso   1.00
H271   H     0.09371   0.58374   0.04190   0.00000  Uiso   1.00
H272   H     0.24172   0.41825   0.45815   0.00000  Uiso   1.00
H273   H     0.03718   0.42412   0.24903   0.00000  Uiso   1.00
H274   H     0.29615   0.57587   0.25068   0.00000  Uiso   1.00
H275   H     0.29586   0.42416   0.24911   0.00000  Uiso   1.00
H276   H     0.03748   0.57583   0.25060   0.00000  Uiso   1.00
H277   H     0.12026   0.37659   0.20052   0.00000  Uiso   1.00
H278   H     0.21304   0.62341   0.29951   0.00000  Uiso   1.00
H279   H     0.21304   0.37711   0.29952   0.00000  Uiso   1.00
H280   H     0.12027   0.62289   0.20051   0.00000  Uiso   1.00
N281   N     0.16667   0.61736   0.25000   0.00000  Uiso   1.00
N282   N     0.16667   0.38264   0.25000   0.00000  Uiso   1.00
O283   O     0.10655   0.53958   0.25000   0.00000  Uiso   1.00
O284   O     0.22679   0.46042   0.25001   0.00000  Uiso   1.00
O285   O     0.22679   0.53958   0.25001   0.00000  Uiso   1.00
O286   O     0.10655   0.46042   0.25000   0.00000  Uiso   1.00
O287   O     0.16666   0.53960   0.18513   0.00000  Uiso   1.00
O288   O     0.16668   0.46040   0.31487   0.00000  Uiso   1.00
O289   O     0.16668   0.53960   0.31487   0.00000  Uiso   1.00
O290   O     0.16666   0.46040   0.18513   0.00000  Uiso   1.00
O291   O     0.08811   0.59230   0.45565   0.00000  Uiso   1.00
C292   C     0.10785   0.63508   0.44488   0.00000  Uiso   1.00
H293   H     0.09363   0.64824   0.41368   0.00000  Uiso   1.00
H294   H     0.14146   0.63118   0.43779   0.00000  Uiso   1.00
C295   C     0.10104   0.33820   0.48173   0.00000  Uiso   1.00
H296   H     0.06756   0.34142   0.48887   0.00000  Uiso   1.00
H297   H     0.11697   0.66024   0.01260   0.00000  Uiso   1.00
C298   C     0.11795   0.38597   0.46823   0.00000  Uiso   1.00
H299   H     0.15108   0.38297   0.45963   0.00000  Uiso   1.00
H300   H     0.11468   0.41100   0.49636   0.00000  Uiso   1.00
H301   H     0.10081   0.39978   0.43908   0.00000  Uiso   1.00
O302   O     0.25046   0.41330   0.04431   0.00000  Uiso   1.00
C303   C     0.28628   0.43883   0.05646   0.00000  Uiso   1.00
H304   H     0.29916   0.42224   0.08684   0.00000  Uiso   1.00
H305   H     0.27985   0.47608   0.06553   0.00000  Uiso   1.00
C306   C     0.31882   0.43650   0.01948   0.00000  Uiso   1.00
H307   H     0.32483   0.39930   0.01065   0.00000  Uiso   1.00
H308   H     0.30728   0.45479   0.48939   0.00000  Uiso   1.00
C309   C     0.02584   0.45958   0.03399   0.00000  Uiso   1.00
H310   H     0.02058   0.49683   0.04309   0.00000  Uiso   1.00
H311   H     0.04831   0.45830   0.00616   0.00000  Uiso   1.00
H312   H     0.03913   0.44084   0.06298   0.00000  Uiso   1.00
C313   C     0.42069   0.49997   0.24994   0.00000  Uiso   1.00
C314   C     0.57931   0.50003   0.24999   0.00000  Uiso   1.00
C315   C     0.44824   0.56139   0.02383   0.00000  Uiso   1.00
C316   C     0.55481   0.44173   0.47621   0.00000  Uiso   1.00
C317   C     0.35455   0.45741   0.24941   0.00000  Uiso   1.00
C318   C     0.64545   0.54259   0.25031   0.00000  Uiso   1.00
C319   C     0.64529   0.45744   0.24945   0.00000  Uiso   1.00
C320   C     0.35471   0.54256   0.25027   0.00000  Uiso   1.00
C321   C     0.62392   0.50003   0.24992   0.00000  Uiso   1.00
C322   C     0.37608   0.49997   0.24986   0.00000  Uiso   1.00
C323   C     0.47424   0.35800   0.22252   0.00000  Uiso   1.00
C324   C     0.52575   0.64200   0.27749   0.00000  Uiso   1.00
C325   C     0.52575   0.35829   0.27750   0.00000  Uiso   1.00
C326   C     0.47424   0.64171   0.22252   0.00000  Uiso   1.00
C327   C     0.50004   0.49995   0.16439   0.00000  Uiso   1.00
C328   C     0.49998   0.50008   0.33562   0.00000  Uiso   1.00
C329   C     0.52637   0.47001   0.40678   0.00000  Uiso   1.00
C330   C     0.47465   0.53084   0.09324   0.00000  Uiso   1.00
C331   C     0.50026   0.50041   0.38388   0.00000  Uiso   1.00
C332   C     0.50033   0.49999   0.11613   0.00000  Uiso   1.00
C333   C     0.47491   0.53171   0.40693   0.00000  Uiso   1.00
C334   C     0.52683   0.46993   0.09310   0.00000  Uiso   1.00
C335   C     0.47496   0.53255   0.45348   0.00000  Uiso   1.00
C336   C     0.52850   0.47106   0.04657   0.00000  Uiso   1.00
C337   C     0.50160   0.50189   0.47667   0.00000  Uiso   1.00
C338   C     0.50171   0.50154   0.02336   0.00000  Uiso   1.00
C339   C     0.52775   0.47108   0.45314   0.00000  Uiso   1.00
C340   C     0.47473   0.53141   0.04688   0.00000  Uiso   1.00
C341   C     0.44884   0.56311   0.47736   0.00000  Uiso   1.00
C342   C     0.55637   0.44255   0.02269   0.00000  Uiso   1.00
Cu343  Cu    0.50000   0.54689   0.25000   0.00000  Uiso   1.00
Cu344  Cu    0.50000   0.45311   0.25000   0.00000  Uiso   1.00
H345   H     0.54616   0.44626   0.38839   0.00000  Uiso   1.00
H346   H     0.45420   0.55387   0.11162   0.00000  Uiso   1.00
H347   H     0.45474   0.55471   0.38833   0.00000  Uiso   1.00
H348   H     0.54662   0.44650   0.11168   0.00000  Uiso   1.00
H349   H     0.42704   0.58374   0.04190   0.00000  Uiso   1.00
H350   H     0.57505   0.41825   0.45815   0.00000  Uiso   1.00
H351   H     0.37052   0.42412   0.24903   0.00000  Uiso   1.00
H352   H     0.62949   0.57587   0.25068   0.00000  Uiso   1.00
H353   H     0.62919   0.42416   0.24911   0.00000  Uiso   1.00
H354   H     0.37081   0.57583   0.25060   0.00000  Uiso   1.00
H355   H     0.45360   0.37659   0.20052   0.00000  Uiso   1.00
H356   H     0.54637   0.62341   0.29951   0.00000  Uiso   1.00
H357   H     0.54637   0.37711   0.29952   0.00000  Uiso   1.00
H358   H     0.45360   0.62289   0.20051   0.00000  Uiso   1.00
N359   N     0.50000   0.61736   0.25000   0.00000  Uiso   1.00
N360   N     0.50000   0.38264   0.25000   0.00000  Uiso   1.00
O361   O     0.43988   0.53958   0.25000   0.00000  Uiso   1.00
O362   O     0.56012   0.46042   0.25001   0.00000  Uiso   1.00
O363   O     0.56012   0.53958   0.25001   0.00000  Uiso   1.00
O364   O     0.43988   0.46042   0.25000   0.00000  Uiso   1.00
O365   O     0.49999   0.53960   0.18513   0.00000  Uiso   1.00
O366   O     0.50001   0.46040   0.31487   0.00000  Uiso   1.00
O367   O     0.50001   0.53960   0.31487   0.00000  Uiso   1.00
O368   O     0.49999   0.46040   0.18513   0.00000  Uiso   1.00
O369   O     0.42144   0.59230   0.45565   0.00000  Uiso   1.00
C370   C     0.44118   0.63508   0.44488   0.00000  Uiso   1.00
H371   H     0.42696   0.64824   0.41368   0.00000  Uiso   1.00
H372   H     0.47480   0.63118   0.43779   0.00000  Uiso   1.00
C373   C     0.43438   0.33820   0.48173   0.00000  Uiso   1.00
H374   H     0.40090   0.34142   0.48887   0.00000  Uiso   1.00
H375   H     0.45031   0.66024   0.01260   0.00000  Uiso   1.00
C376   C     0.45128   0.38597   0.46823   0.00000  Uiso   1.00
H377   H     0.48442   0.38297   0.45963   0.00000  Uiso   1.00
H378   H     0.44802   0.41100   0.49636   0.00000  Uiso   1.00
H379   H     0.43415   0.39978   0.43908   0.00000  Uiso   1.00
O380   O     0.58379   0.41330   0.04431   0.00000  Uiso   1.00
C381   C     0.61961   0.43883   0.05646   0.00000  Uiso   1.00
H382   H     0.63250   0.42224   0.08684   0.00000  Uiso   1.00
H383   H     0.61319   0.47608   0.06553   0.00000  Uiso   1.00
C384   C     0.65215   0.43650   0.01948   0.00000  Uiso   1.00
H385   H     0.65816   0.39930   0.01065   0.00000  Uiso   1.00
H386   H     0.64061   0.45479   0.48939   0.00000  Uiso   1.00
C387   C     0.35917   0.45958   0.03399   0.00000  Uiso   1.00
H388   H     0.35391   0.49683   0.04309   0.00000  Uiso   1.00
H389   H     0.38165   0.45830   0.00616   0.00000  Uiso   1.00
H390   H     0.37247   0.44084   0.06298   0.00000  Uiso   1.00
C391   C     0.75402   0.49997   0.24994   0.00000  Uiso   1.00
C392   C     0.91264   0.50003   0.24999   0.00000  Uiso   1.00
C393   C     0.78157   0.56139   0.02383   0.00000  Uiso   1.00
C394   C     0.88814   0.44173   0.47621   0.00000  Uiso   1.00
C395   C     0.68788   0.45741   0.24941   0.00000  Uiso   1.00
C396   C     0.97878   0.54259   0.25031   0.00000  Uiso   1.00
C397   C     0.97862   0.45744   0.24945   0.00000  Uiso   1.00
C398   C     0.68805   0.54256   0.25027   0.00000  Uiso   1.00
C399   C     0.95725   0.50003   0.24992   0.00000  Uiso   1.00
C400   C     0.70941   0.49997   0.24986   0.00000  Uiso   1.00
C401   C     0.80757   0.35800   0.22252   0.00000  Uiso   1.00
C402   C     0.85908   0.64200   0.27749   0.00000  Uiso   1.00
C403   C     0.85908   0.35829   0.27750   0.00000  Uiso   1.00
C404   C     0.80757   0.64171   0.22252   0.00000  Uiso   1.00
C405   C     0.83338   0.49995   0.16439   0.00000  Uiso   1.00
C406   C     0.83331   0.50008   0.33562   0.00000  Uiso   1.00
C407   C     0.85971   0.47001   0.40678   0.00000  Uiso   1.00
C408   C     0.80798   0.53084   0.09324   0.00000  Uiso   1.00
C409   C     0.83360   0.50041   0.38388   0.00000  Uiso   1.00
C410   C     0.83367   0.49999   0.11613   0.00000  Uiso   1.00
C411   C     0.80825   0.53171   0.40693   0.00000  Uiso   1.00
C412   C     0.86016   0.46993   0.09310   0.00000  Uiso   1.00
C413   C     0.80829   0.53255   0.45348   0.00000  Uiso   1.00
C414   C     0.86183   0.47106   0.04657   0.00000  Uiso   1.00
C415   C     0.83494   0.50189   0.47667   0.00000  Uiso   1.00
C416   C     0.83504   0.50154   0.02336   0.00000  Uiso   1.00
C417   C     0.86108   0.47108   0.45314   0.00000  Uiso   1.00
C418   C     0.80807   0.53141   0.04688   0.00000  Uiso   1.00
C419   C     0.78218   0.56311   0.47736   0.00000  Uiso   1.00
C420   C     0.88970   0.44255   0.02269   0.00000  Uiso   1.00
Cu421  Cu    0.83333   0.54689   0.25000   0.00000  Uiso   1.00
Cu422  Cu    0.83333   0.45311   0.25000   0.00000  Uiso   1.00
H423   H     0.87949   0.44626   0.38839   0.00000  Uiso   1.00
H424   H     0.78754   0.55387   0.11162   0.00000  Uiso   1.00
H425   H     0.78807   0.55471   0.38833   0.00000  Uiso   1.00
H426   H     0.87996   0.44650   0.11168   0.00000  Uiso   1.00
H427   H     0.76038   0.58374   0.04190   0.00000  Uiso   1.00
H428   H     0.90838   0.41825   0.45815   0.00000  Uiso   1.00
H429   H     0.70385   0.42412   0.24903   0.00000  Uiso   1.00
H430   H     0.96282   0.57587   0.25068   0.00000  Uiso   1.00
H431   H     0.96252   0.42416   0.24911   0.00000  Uiso   1.00
H432   H     0.70414   0.57583   0.25060   0.00000  Uiso   1.00
H433   H     0.78693   0.37659   0.20052   0.00000  Uiso   1.00
H434   H     0.87971   0.62341   0.29951   0.00000  Uiso   1.00
H435   H     0.87970   0.37711   0.29952   0.00000  Uiso   1.00
H436   H     0.78694   0.62289   0.20051   0.00000  Uiso   1.00
N437   N     0.83333   0.61736   0.25000   0.00000  Uiso   1.00
N438   N     0.83333   0.38264   0.25000   0.00000  Uiso   1.00
O439   O     0.77321   0.53958   0.25000   0.00000  Uiso   1.00
O440   O     0.89345   0.46042   0.25001   0.00000  Uiso   1.00
O441   O     0.89345   0.53958   0.25001   0.00000  Uiso   1.00
O442   O     0.77321   0.46042   0.25000   0.00000  Uiso   1.00
O443   O     0.83332   0.53960   0.18513   0.00000  Uiso   1.00
O444   O     0.83334   0.46040   0.31487   0.00000  Uiso   1.00
O445   O     0.83334   0.53960   0.31487   0.00000  Uiso   1.00
O446   O     0.83332   0.46040   0.18513   0.00000  Uiso   1.00
O447   O     0.75477   0.59230   0.45565   0.00000  Uiso   1.00
C448   C     0.77451   0.63508   0.44488   0.00000  Uiso   1.00
H449   H     0.76029   0.64824   0.41368   0.00000  Uiso   1.00
H450   H     0.80813   0.63118   0.43779   0.00000  Uiso   1.00
C451   C     0.76771   0.33820   0.48173   0.00000  Uiso   1.00
H452   H     0.73423   0.34142   0.48887   0.00000  Uiso   1.00
H453   H     0.78364   0.66024   0.01260   0.00000  Uiso   1.00
C454   C     0.78462   0.38597   0.46823   0.00000  Uiso   1.00
H455   H     0.81775   0.38297   0.45963   0.00000  Uiso   1.00
H456   H     0.78135   0.41100   0.49636   0.00000  Uiso   1.00
H457   H     0.76748   0.39978   0.43908   0.00000  Uiso   1.00
O458   O     0.91713   0.41330   0.04431   0.00000  Uiso   1.00
C459   C     0.95295   0.43883   0.05646   0.00000  Uiso   1.00
H460   H     0.96583   0.42224   0.08684   0.00000  Uiso   1.00
H461   H     0.94652   0.47608   0.06553   0.00000  Uiso   1.00
C462   C     0.98549   0.43650   0.01948   0.00000  Uiso   1.00
H463   H     0.99149   0.39930   0.01065   0.00000  Uiso   1.00
H464   H     0.97394   0.45479   0.48939   0.00000  Uiso   1.00
C465   C     0.69250   0.45958   0.03399   0.00000  Uiso   1.00
H466   H     0.68724   0.49683   0.04309   0.00000  Uiso   1.00
H467   H     0.71498   0.45830   0.00616   0.00000  Uiso   1.00
H468   H     0.70580   0.44084   0.06298   0.00000  Uiso   1.00
C469   C     0.08736   0.83331   0.24994   0.00000  Uiso   1.00
C470   C     0.24598   0.83336   0.24999   0.00000  Uiso   1.00
C471   C     0.11490   0.89472   0.02383   0.00000  Uiso   1.00
C472   C     0.22147   0.77507   0.47621   0.00000  Uiso   1.00
C473   C     0.02122   0.79074   0.24941   0.00000  Uiso   1.00
C474   C     0.31212   0.87592   0.25031   0.00000  Uiso   1.00
C475   C     0.31195   0.79077   0.24945   0.00000  Uiso   1.00
C476   C     0.02138   0.87589   0.25027   0.00000  Uiso   1.00
C477   C     0.29059   0.83336   0.24992   0.00000  Uiso   1.00
C478   C     0.04275   0.83330   0.24986   0.00000  Uiso   1.00
C479   C     0.14090   0.69133   0.22252   0.00000  Uiso   1.00
C480   C     0.19241   0.97534   0.27749   0.00000  Uiso   1.00
C481   C     0.19241   0.69162   0.27750   0.00000  Uiso   1.00
C482   C     0.14090   0.97505   0.22252   0.00000  Uiso   1.00
C483   C     0.16671   0.83328   0.16439   0.00000  Uiso   1.00
C484   C     0.16664   0.83341   0.33562   0.00000  Uiso   1.00
C485   C     0.19304   0.80335   0.40678   0.00000  Uiso   1.00
C486   C     0.14132   0.86418   0.09324   0.00000  Uiso   1.00
C487   C     0.16693   0.83374   0.38388   0.00000  Uiso   1.00
C488   C     0.16700   0.83332   0.11613   0.00000  Uiso   1.00
C489   C     0.14158   0.86505   0.40693   0.00000  Uiso   1.00
C490   C     0.19350   0.80326   0.09310   0.00000  Uiso   1.00
C491   C     0.14163   0.86588   0.45348   0.00000  Uiso   1.00
C492   C     0.19517   0.80440   0.04657   0.00000  Uiso   1.00
C493   C     0.16827   0.83523   0.47667   0.00000  Uiso   1.00
C494   C     0.16838   0.83487   0.02336   0.00000  Uiso   1.00
C495   C     0.19442   0.80442   0.45314   0.00000  Uiso   1.00
C496   C     0.14140   0.86474   0.04688   0.00000  Uiso   1.00
C497   C     0.11551   0.89644   0.47736   0.00000  Uiso   1.00
C498   C     0.22303   0.77588   0.02269   0.00000  Uiso   1.00
Cu499  Cu    0.16667   0.88022   0.25000   0.00000  Uiso   1.00
Cu500  Cu    0.16667   0.78645   0.25000   0.00000  Uiso   1.00
H501   H     0.21283   0.77959   0.38839   0.00000  Uiso   1.00
H502   H     0.12087   0.88721   0.11162   0.00000  Uiso   1.00
H503   H     0.12141   0.88804   0.38833   0.00000  Uiso   1.00
H504   H     0.21329   0.77983   0.11168   0.00000  Uiso   1.00
H505   H     0.09371   0.91707   0.04190   0.00000  Uiso   1.00
H506   H     0.24172   0.75159   0.45815   0.00000  Uiso   1.00
H507   H     0.03718   0.75746   0.24903   0.00000  Uiso   1.00
H508   H     0.29615   0.90920   0.25068   0.00000  Uiso   1.00
H509   H     0.29586   0.75749   0.24911   0.00000  Uiso   1.00
H510   H     0.03748   0.90917   0.25060   0.00000  Uiso   1.00
H511   H     0.12026   0.70992   0.20052   0.00000  Uiso   1.00
H512   H     0.21304   0.95675   0.29951   0.00000  Uiso   1.00
H513   H     0.21304   0.71044   0.29952   0.00000  Uiso   1.00
H514   H     0.12027   0.95623   0.20051   0.00000  Uiso   1.00
N515   N     0.16667   0.95069   0.25000   0.00000  Uiso   1.00
N516   N     0.16667   0.71598   0.25000   0.00000  Uiso   1.00
O517   O     0.10655   0.87291   0.25000   0.00000  Uiso   1.00
O518   O     0.22679   0.79375   0.25001   0.00000  Uiso   1.00
O519   O     0.22679   0.87291   0.25001   0.00000  Uiso   1.00
O520   O     0.10655   0.79375   0.25000   0.00000  Uiso   1.00
O521   O     0.16666   0.87293   0.18513   0.00000  Uiso   1.00
O522   O     0.16668   0.79373   0.31487   0.00000  Uiso   1.00
O523   O     0.16668   0.87293   0.31487   0.00000  Uiso   1.00
O524   O     0.16666   0.79373   0.18513   0.00000  Uiso   1.00
O525   O     0.08811   0.92563   0.45565   0.00000  Uiso   1.00
C526   C     0.10785   0.96841   0.44488   0.00000  Uiso   1.00
H527   H     0.09363   0.98157   0.41368   0.00000  Uiso   1.00
H528   H     0.14146   0.96451   0.43779   0.00000  Uiso   1.00
C529   C     0.10104   0.67154   0.48173   0.00000  Uiso   1.00
H530   H     0.06756   0.67475   0.48887   0.00000  Uiso   1.00
H531   H     0.11697   0.99358   0.01260   0.00000  Uiso   1.00
C532   C     0.11795   0.71930   0.46823   0.00000  Uiso   1.00
H533   H     0.15108   0.71631   0.45963   0.00000  Uiso   1.00
H534   H     0.11468   0.74434   0.49636   0.00000  Uiso   1.00
H535   H     0.10081   0.73311   0.43908   0.00000  Uiso   1.00
O536   O     0.25046   0.74663   0.04431   0.00000  Uiso   1.00
C537   C     0.28628   0.77217   0.05646   0.00000  Uiso   1.00
H538   H     0.29916   0.75558   0.08684   0.00000  Uiso   1.00
H539   H     0.27985   0.80941   0.06553   0.00000  Uiso   1.00
C540   C     0.31882   0.76984   0.01948   0.00000  Uiso   1.00
H541   H     0.32483   0.73264   0.01065   0.00000  Uiso   1.00
H542   H     0.30728   0.78812   0.48939   0.00000  Uiso   1.00
C543   C     0.02584   0.79291   0.03399   0.00000  Uiso   1.00
H544   H     0.02058   0.83017   0.04309   0.00000  Uiso   1.00
H545   H     0.04831   0.79164   0.00616   0.00000  Uiso   1.00
H546   H     0.03913   0.77418   0.06298   0.00000  Uiso   1.00
C547   C     0.42069   0.83331   0.24994   0.00000  Uiso   1.00
C548   C     0.57931   0.83336   0.24999   0.00000  Uiso   1.00
C549   C     0.44824   0.89472   0.02383   0.00000  Uiso   1.00
C550   C     0.55481   0.77507   0.47621   0.00000  Uiso   1.00
C551   C     0.35455   0.79074   0.24941   0.00000  Uiso   1.00
C552   C     0.64545   0.87592   0.25031   0.00000  Uiso   1.00
C553   C     0.64529   0.79077   0.24945   0.00000  Uiso   1.00
C554   C     0.35471   0.87589   0.25027   0.00000  Uiso   1.00
C555   C     0.62392   0.83336   0.24992   0.00000  Uiso   1.00
C556   C     0.37608   0.83330   0.24986   0.00000  Uiso   1.00
C557   C     0.47424   0.69133   0.22252   0.00000  Uiso   1.00
C558   C     0.52575   0.97534   0.27749   0.00000  Uiso   1.00
C559   C     0.52575   0.69162   0.27750   0.00000  Uiso   1.00
C560   C     0.47424   0.97505   0.22252   0.00000  Uiso   1.00
C561   C     0.50004   0.83328   0.16439   0.00000  Uiso   1.00
C562   C     0.49998   0.83341   0.33562   0.00000  Uiso   1.00
C563   C     0.52637   0.80335   0.40678   0.00000  Uiso   1.00
C564   C     0.47465   0.86418   0.09324   0.00000  Uiso   1.00
C565   C     0.50026   0.83374   0.38388   0.00000  Uiso   1.00
C566   C     0.50033   0.83332   0.11613   0.00000  Uiso   1.00
C567   C     0.47491   0.86505   0.40693   0.00000  Uiso   1.00
C568   C     0.52683   0.80326   0.09310   0.00000  Uiso   1.00
C569   C     0.47496   0.86588   0.45348   0.00000  Uiso   1.00
C570   C     0.52850   0.80440   0.04657   0.00000  Uiso   1.00
C571   C     0.50160   0.83523   0.47667   0.00000  Uiso   1.00
C572   C     0.50171   0.83487   0.02336   0.00000  Uiso   1.00
C573   C     0.52775   0.80442   0.45314   0.00000  Uiso   1.00
C574   C     0.47473   0.86474   0.04688   0.00000  Uiso   1.00
C575   C     0.44884   0.89644   0.47736   0.00000  Uiso   1.00
C576   C     0.55637   0.77588   0.02269   0.00000  Uiso   1.00
Cu577  Cu    0.50000   0.88022   0.25000   0.00000  Uiso   1.00
Cu578  Cu    0.50000   0.78645   0.25000   0.00000  Uiso   1.00
H579   H     0.54616   0.77959   0.38839   0.00000  Uiso   1.00
H580   H     0.45420   0.88721   0.11162   0.00000  Uiso   1.00
H581   H     0.45474   0.88804   0.38833   0.00000  Uiso   1.00
H582   H     0.54662   0.77983   0.11168   0.00000  Uiso   1.00
H583   H     0.42704   0.91707   0.04190   0.00000  Uiso   1.00
H584   H     0.57505   0.75159   0.45815   0.00000  Uiso   1.00
H585   H     0.37052   0.75746   0.24903   0.00000  Uiso   1.00
H586   H     0.62949   0.90920   0.25068   0.00000  Uiso   1.00
H587   H     0.62919   0.75749   0.24911   0.00000  Uiso   1.00
H588   H     0.37081   0.90917   0.25060   0.00000  Uiso   1.00
H589   H     0.45360   0.70992   0.20052   0.00000  Uiso   1.00
H590   H     0.54637   0.95675   0.29951   0.00000  Uiso   1.00
H591   H     0.54637   0.71044   0.29952   0.00000  Uiso   1.00
H592   H     0.45360   0.95623   0.20051   0.00000  Uiso   1.00
N593   N     0.50000   0.95069   0.25000   0.00000  Uiso   1.00
N594   N     0.50000   0.71598   0.25000   0.00000  Uiso   1.00
O595   O     0.43988   0.87291   0.25000   0.00000  Uiso   1.00
O596   O     0.56012   0.79375   0.25001   0.00000  Uiso   1.00
O597   O     0.56012   0.87291   0.25001   0.00000  Uiso   1.00
O598   O     0.43988   0.79375   0.25000   0.00000  Uiso   1.00
O599   O     0.49999   0.87293   0.18513   0.00000  Uiso   1.00
O600   O     0.50001   0.79373   0.31487   0.00000  Uiso   1.00
O601   O     0.50001   0.87293   0.31487   0.00000  Uiso   1.00
O602   O     0.49999   0.79373   0.18513   0.00000  Uiso   1.00
O603   O     0.42144   0.92563   0.45565   0.00000  Uiso   1.00
C604   C     0.44118   0.96841   0.44488   0.00000  Uiso   1.00
H605   H     0.42696   0.98157   0.41368   0.00000  Uiso   1.00
H606   H     0.47480   0.96451   0.43779   0.00000  Uiso   1.00
C607   C     0.43438   0.67154   0.48173   0.00000  Uiso   1.00
H608   H     0.40090   0.67475   0.48887   0.00000  Uiso   1.00
H609   H     0.45031   0.99358   0.01260   0.00000  Uiso   1.00
C610   C     0.45128   0.71930   0.46823   0.00000  Uiso   1.00
H611   H     0.48442   0.71631   0.45963   0.00000  Uiso   1.00
H612   H     0.44802   0.74434   0.49636   0.00000  Uiso   1.00
H613   H     0.43415   0.73311   0.43908   0.00000  Uiso   1.00
O614   O     0.58379   0.74663   0.04431   0.00000  Uiso   1.00
C615   C     0.61961   0.77217   0.05646   0.00000  Uiso   1.00
H616   H     0.63250   0.75558   0.08684   0.00000  Uiso   1.00
H617   H     0.61319   0.80941   0.06553   0.00000  Uiso   1.00
C618   C     0.65215   0.76984   0.01948   0.00000  Uiso   1.00
H619   H     0.65816   0.73264   0.01065   0.00000  Uiso   1.00
H620   H     0.64061   0.78812   0.48939   0.00000  Uiso   1.00
C621   C     0.35917   0.79291   0.03399   0.00000  Uiso   1.00
H622   H     0.35391   0.83017   0.04309   0.00000  Uiso   1.00
H623   H     0.38165   0.79164   0.00616   0.00000  Uiso   1.00
H624   H     0.37247   0.77418   0.06298   0.00000  Uiso   1.00
C625   C     0.75402   0.83331   0.24994   0.00000  Uiso   1.00
C626   C     0.91264   0.83336   0.24999   0.00000  Uiso   1.00
C627   C     0.78157   0.89472   0.02383   0.00000  Uiso   1.00
C628   C     0.88814   0.77507   0.47621   0.00000  Uiso   1.00
C629   C     0.68788   0.79074   0.24941   0.00000  Uiso   1.00
C630   C     0.97878   0.87592   0.25031   0.00000  Uiso   1.00
C631   C     0.97862   0.79077   0.24945   0.00000  Uiso   1.00
C632   C     0.68805   0.87589   0.25027   0.00000  Uiso   1.00
C633   C     0.95725   0.83336   0.24992   0.00000  Uiso   1.00
C634   C     0.70941   0.83330   0.24986   0.00000  Uiso   1.00
C635   C     0.80757   0.69133   0.22252   0.00000  Uiso   1.00
C636   C     0.85908   0.97534   0.27749   0.00000  Uiso   1.00
C637   C     0.85908   0.69162   0.27750   0.00000  Uiso   1.00
C638   C     0.80757   0.97505   0.22252   0.00000  Uiso   1.00
C639   C     0.83338   0.83328   0.16439   0.00000  Uiso   1.00
C640   C     0.83331   0.83341   0.33562   0.00000  Uiso   1.00
C641   C     0.85971   0.80335   0.40678   0.00000  Uiso   1.00
C642   C     0.80798   0.86418   0.09324   0.00000  Uiso   1.00
C643   C     0.83360   0.83374   0.38388   0.00000  Uiso   1.00
C644   C     0.83367   0.83332   0.11613   0.00000  Uiso   1.00
C645   C     0.80825   0.86505   0.40693   0.00000  Uiso   1.00
C646   C     0.86016   0.80326   0.09310   0.00000  Uiso   1.00
C647   C     0.80829   0.86588   0.45348   0.00000  Uiso   1.00
C648   C     0.86183   0.80440   0.04657   0.00000  Uiso   1.00
C649   C     0.83494   0.83523   0.47667   0.00000  Uiso   1.00
C650   C     0.83504   0.83487   0.02336   0.00000  Uiso   1.00
C651   C     0.86108   0.80442   0.45314   0.00000  Uiso   1.00
C652   C     0.80807   0.86474   0.04688   0.00000  Uiso   1.00
C653   C     0.78218   0.89644   0.47736   0.00000  Uiso   1.00
C654   C     0.88970   0.77588   0.02269   0.00000  Uiso   1.00
Cu655  Cu    0.83333   0.88022   0.25000   0.00000  Uiso   1.00
Cu656  Cu    0.83333   0.78645   0.25000   0.00000  Uiso   1.00
H657   H     0.87949   0.77959   0.38839   0.00000  Uiso   1.00
H658   H     0.78754   0.88721   0.11162   0.00000  Uiso   1.00
H659   H     0.78807   0.88804   0.38833   0.00000  Uiso   1.00
H660   H     0.87996   0.77983   0.11168   0.00000  Uiso   1.00
H661   H     0.76038   0.91707   0.04190   0.00000  Uiso   1.00
H662   H     0.90838   0.75159   0.45815   0.00000  Uiso   1.00
H663   H     0.70385   0.75746   0.24903   0.00000  Uiso   1.00
H664   H     0.96282   0.90920   0.25068   0.00000  Uiso   1.00
H665   H     0.96252   0.75749   0.24911   0.00000  Uiso   1.00
H666   H     0.70414   0.90917   0.25060   0.00000  Uiso   1.00
H667   H     0.78693   0.70992   0.20052   0.00000  Uiso   1.00
H668   H     0.87971   0.95675   0.29951   0.00000  Uiso   1.00
H669   H     0.87970   0.71044   0.29952   0.00000  Uiso   1.00
H670   H     0.78694   0.95623   0.20051   0.00000  Uiso   1.00
N671   N     0.83333   0.95069   0.25000   0.00000  Uiso   1.00
N672   N     0.83333   0.71598   0.25000   0.00000  Uiso   1.00
O673   O     0.77321   0.87291   0.25000   0.00000  Uiso   1.00
O674   O     0.89345   0.79375   0.25001   0.00000  Uiso   1.00
O675   O     0.89345   0.87291   0.25001   0.00000  Uiso   1.00
O676   O     0.77321   0.79375   0.25000   0.00000  Uiso   1.00
O677   O     0.83332   0.87293   0.18513   0.00000  Uiso   1.00
O678   O     0.83334   0.79373   0.31487   0.00000  Uiso   1.00
O679   O     0.83334   0.87293   0.31487   0.00000  Uiso   1.00
O680   O     0.83332   0.79373   0.18513   0.00000  Uiso   1.00
O681   O     0.75477   0.92563   0.45565   0.00000  Uiso   1.00
C682   C     0.77451   0.96841   0.44488   0.00000  Uiso   1.00
H683   H     0.76029   0.98157   0.41368   0.00000  Uiso   1.00
H684   H     0.80813   0.96451   0.43779   0.00000  Uiso   1.00
C685   C     0.76771   0.67154   0.48173   0.00000  Uiso   1.00
H686   H     0.73423   0.67475   0.48887   0.00000  Uiso   1.00
H687   H     0.78364   0.99358   0.01260   0.00000  Uiso   1.00
C688   C     0.78462   0.71930   0.46823   0.00000  Uiso   1.00
H689   H     0.81775   0.71631   0.45963   0.00000  Uiso   1.00
H690   H     0.78135   0.74434   0.49636   0.00000  Uiso   1.00
H691   H     0.76748   0.73311   0.43908   0.00000  Uiso   1.00
O692   O     0.91713   0.74663   0.04431   0.00000  Uiso   1.00
C693   C     0.95295   0.77217   0.05646   0.00000  Uiso   1.00
H694   H     0.96583   0.75558   0.08684   0.00000  Uiso   1.00
H695   H     0.94652   0.80941   0.06553   0.00000  Uiso   1.00
C696   C     0.98549   0.76984   0.01948   0.00000  Uiso   1.00
H697   H     0.99149   0.73264   0.01065   0.00000  Uiso   1.00
H698   H     0.97394   0.78812   0.48939   0.00000  Uiso   1.00
C699   C     0.69250   0.79291   0.03399   0.00000  Uiso   1.00
H700   H     0.68724   0.83017   0.04309   0.00000  Uiso   1.00
H701   H     0.71498   0.79164   0.00616   0.00000  Uiso   1.00
H702   H     0.70580   0.77418   0.06298   0.00000  Uiso   1.00
C703   C     0.08736   0.16664   0.74994   0.00000  Uiso   1.00
C704   C     0.24598   0.16669   0.74999   0.00000  Uiso   1.00
C705   C     0.11490   0.22805   0.52383   0.00000  Uiso   1.00
C706   C     0.22147   0.10840   0.97621   0.00000  Uiso   1.00
C707   C     0.02122   0.12407   0.74941   0.00000  Uiso   1.00
C708   C     0.31212   0.20925   0.75031   0.00000  Uiso   1.00
C709   C     0.31195   0.12410   0.74945   0.00000  Uiso   1.00
C710   C     0.02138   0.20922   0.75027   0.00000  Uiso   1.00
C711   C     0.29059   0.16670   0.74992   0.00000  Uiso   1.00
C712   C     0.04275   0.16663   0.74986   0.00000  Uiso   1.00
C713   C     0.14090   0.02466   0.72252   0.00000  Uiso   1.00
C714   C     0.19241   0.30867   0.77749   0.00000  Uiso   1.00
C715   C     0.19241   0.02495   0.77750   0.00000  Uiso   1.00
C716   C     0.14090   0.30838   0.72252   0.00000  Uiso   1.00
C717   C     0.16671   0.16661   0.66439   0.00000  Uiso   1.00
C718   C     0.16664   0.16675   0.83562   0.00000  Uiso   1.00
C719   C     0.19304   0.13668   0.90678   0.00000  Uiso   1.00
C720   C     0.14132   0.19751   0.59324   0.00000  Uiso   1.00
C721   C     0.16693   0.16708   0.88388   0.00000  Uiso   1.00
C722   C     0.16700   0.16665   0.61613   0.00000  Uiso   1.00
C723   C     0.14158   0.19838   0.90693   0.00000  Uiso   1.00
C724   C     0.19350   0.13659   0.59310   0.00000  Uiso   1.00
C725   C     0.14163   0.19921   0.95348   0.00000  Uiso   1.00
C726   C     0.19517   0.13773   0.54657   0.00000  Uiso   1.00
C727   C     0.16827   0.16856   0.97667   0.00000  Uiso   1.00
C728   C     0.16838   0.16821   0.52336   0.00000  Uiso   1.00
C729   C     0.19442   0.13775   0.95314   0.00000  Uiso   1.00
C730   C     0.14140   0.19808   0.54688   0.00000  Uiso   1.00
C731   C     0.11551   0.22977   0.97736   0.00000  Uiso   1.00
C732   C     0.22303   0.10922   0.52269   0.00000  Uiso   1.00
Cu733  Cu    0.16667   0.21355   0.75000   0.00000  Uiso   1.00
Cu734  Cu    0.16667   0.11978   0.75000   0.00000  Uiso   1.00
H735   H     0.21283   0.11292   0.88839   0.00000  Uiso   1.00
H736   H     0.12087   0.22054   0.61162   0.00000  Uiso   1.00
H737   H     0.12141   0.22137   0.88833   0.00000  Uiso   1.00
H738   H     0.21329   0.11317   0.61168   0.00000  Uiso   1.00
H739   H     0.09371   0.25040   0.54190   0.00000  Uiso   1.00
H740   H     0.24172   0.08492   0.95815   0.00000  Uiso   1.00
H741   H     0.03718   0.09079   0.74903   0.00000  Uiso   1.00
H742   H     0.29615   0.24254   0.75068   0.00000  Uiso   1.00
H743   H     0.29586   0.09083   0.74911   0.00000  Uiso   1.00
H744   H     0.03748   0.24250   0.75060   0.00000  Uiso   1.00
H745   H     0.12026   0.04325   0.70052   0.00000  Uiso   1.00
H746   H     0.21304   0.29008   0.79951   0.00000  Uiso   1.00
H747   H     0.21304   0.04377   0.79952   0.00000  Uiso   1.00
H748   H     0.12027   0.28956   0.70051   0.00000  Uiso   1.00
N749   N     0.16667   0.28402   0.75000   0.00000  Uiso   1.00
N750   N     0.16667   0.04931   0.75000   0.00000  Uiso   1.00
O751   O     0.10655   0.20625   0.75000   0.00000  Uiso   1.00
O752   O     0.22679   0.12709   0.75001   0.00000  Uiso   1.00
O753   O     0.22679   0.20625   0.75001   0.00000  Uiso   1.00
O754   O     0.10655   0.12709   0.75000   0.00000  Uiso   1.00
O755   O     0.16666   0.20627   0.68513   0.00000  Uiso   1.00
O756   O     0.16668   0.12707   0.81487   0.00000  Uiso   1.00
O757   O     0.16668   0.20627   0.81487   0.00000  Uiso   1.00
O758   O     0.16666   0.12707   0.68513   0.00000  Uiso   1.00
O759   O     0.08811   0.25897   0.95565   0.00000  Uiso   1.00
C760   C     0.10785   0.30175   0.94488   0.00000  Uiso   1.00
H761   H     0.09363   0.31491   0.91368   0.00000  Uiso   1.00
H762   H     0.14146   0.29784   0.93779   0.00000  Uiso   1.00
C763   C     0.10104   0.00487   0.98173   0.00000  Uiso   1.00
H764   H     0.06756   0.00809   0.98887   0.00000  Uiso   1.00
H765   H     0.11697   0.32691   0.51260   0.00000  Uiso   1.00
C766   C     0.11795   0.05263   0.96823   0.00000  Uiso   1.00
H767   H     0.15108   0.04964   0.95963   0.00000  Uiso   1.00
H768   H     0.11468   0.07767   0.99636   0.00000  Uiso   1.00
H769   H     0.10081   0.06644   0.93908   0.00000  Uiso   1.00
O770   O     0.25046   0.07996   0.54431   0.00000  Uiso   1.00
C771   C     0.28628   0.10550   0.55646   0.00000  Uiso   1.00
H772   H     0.29916   0.08891   0.58684   0.00000  Uiso   1.00
H773   H     0.27985   0.14275   0.56553   0.00000  Uiso   1.00
C774   C     0.31882   0.10317   0.51948   0.00000  Uiso   1.00
H775   H     0.32483   0.06597   0.51065   0.00000  Uiso   1.00
H776   H     0.30728   0.12146   0.98939   0.00000  Uiso   1.00
C777   C     0.02584   0.12625   0.53399   0.00000  Uiso   1.00
H778   H     0.02058   0.16350   0.54309   0.00000  Uiso   1.00
H779   H     0.04831   0.12497   0.50616   0.00000  Uiso   1.00
H780   H     0.03913   0.10751   0.56298   0.00000  Uiso   1.00
C781   C     0.42069   0.16664   0.74994   0.00000  Uiso   1.00
C782   C     0.57931   0.16669   0.74999   0.00000  Uiso   1.00
C783   C     0.44824   0.22805   0.52383   0.00000  Uiso   1.00
C784   C     0.55481   0.10840   0.97621   0.00000  Uiso   1.00
C785   C     0.35455   0.12407   0.74941   0.00000  Uiso   1.00
C786   C     0.64545   0.20925   0.75031   0.00000  Uiso   1.00
C787   C     0.64529   0.12410   0.74945   0.00000  Uiso   1.00
C788   C     0.35471   0.20922   0.75027   0.00000  Uiso   1.00
C789   C     0.62392   0.16670   0.74992   0.00000  Uiso   1.00
C790   C     0.37608   0.16663   0.74986   0.00000  Uiso   1.00
C791   C     0.47424   0.02466   0.72252   0.00000  Uiso   1.00
C792   C     0.52575   0.30867   0.77749   0.00000  Uiso   1.00
C793   C     0.52575   0.02495   0.77750   0.00000  Uiso   1.00
C794   C     0.47424   0.30838   0.72252   0.00000  Uiso   1.00
C795   C     0.50004   0.16661   0.66439   0.00000  Uiso   1.00
C796   C     0.49998   0.16675   0.83562   0.00000  Uiso   1.00
C797   C     0.52637   0.13668   0.90678   0.00000  Uiso   1.00
C798   C     0.47465   0.19751   0.59324   0.00000  Uiso   1.00
C799   C     0.50026   0.16708   0.88388   0.00000  Uiso   1.00
C800   C     0.50033   0.16665   0.61613   0.00000  Uiso   1.00
C801   C     0.47491   0.19838   0.90693   0.00000  Uiso   1.00
C802   C     0.52683   0.13659   0.59310   0.00000  Uiso   1.00
C803   C     0.47496   0.19921   0.95348   0.00000  Uiso   1.00
C804   C     0.52850   0.13773   0.54657   0.00000  Uiso   1.00
C805   C     0.50160   0.16856   0.97667   0.00000  Uiso   1.00
C806   C     0.50171   0.16821   0.52336   0.00000  Uiso   1.00
C807   C     0.52775   0.13775   0.95314   0.00000  Uiso   1.00
C808   C     0.47473   0.19808   0.54688   0.00000  Uiso   1.00
C809   C     0.44884   0.22977   0.97736   0.00000  Uiso   1.00
C810   C     0.55637   0.10922   0.52269   0.00000  Uiso   1.00
Cu811  Cu    0.50000   0.21355   0.75000   0.00000  Uiso   1.00
Cu812  Cu    0.50000   0.11978   0.75000   0.00000  Uiso   1.00
H813   H     0.54616   0.11292   0.88839   0.00000  Uiso   1.00
H814   H     0.45420   0.22054   0.61162   0.00000  Uiso   1.00
H815   H     0.45474   0.22137   0.88833   0.00000  Uiso   1.00
H816   H     0.54662   0.11317   0.61168   0.00000  Uiso   1.00
H817   H     0.42704   0.25040   0.54190   0.00000  Uiso   1.00
H818   H     0.57505   0.08492   0.95815   0.00000  Uiso   1.00
H819   H     0.37052   0.09079   0.74903   0.00000  Uiso   1.00
H820   H     0.62949   0.24254   0.75068   0.00000  Uiso   1.00
H821   H     0.62919   0.09083   0.74911   0.00000  Uiso   1.00
H822   H     0.37081   0.24250   0.75060   0.00000  Uiso   1.00
H823   H     0.45360   0.04325   0.70052   0.00000  Uiso   1.00
H824   H     0.54637   0.29008   0.79951   0.00000  Uiso   1.00
H825   H     0.54637   0.04377   0.79952   0.00000  Uiso   1.00
H826   H     0.45360   0.28956   0.70051   0.00000  Uiso   1.00
N827   N     0.50000   0.28402   0.75000   0.00000  Uiso   1.00
N828   N     0.50000   0.04931   0.75000   0.00000  Uiso   1.00
O829   O     0.43988   0.20625   0.75000   0.00000  Uiso   1.00
O830   O     0.56012   0.12709   0.75001   0.00000  Uiso   1.00
O831   O     0.56012   0.20625   0.75001   0.00000  Uiso   1.00
O832   O     0.43988   0.12709   0.75000   0.00000  Uiso   1.00
O833   O     0.49999   0.20627   0.68513   0.00000  Uiso   1.00
O834   O     0.50001   0.12707   0.81487   0.00000  Uiso   1.00
O835   O     0.50001   0.20627   0.81487   0.00000  Uiso   1.00
O836   O     0.49999   0.12707   0.68513   0.00000  Uiso   1.00
O837   O     0.42144   0.25897   0.95565   0.00000  Uiso   1.00
C838   C     0.44118   0.30175   0.94488   0.00000  Uiso   1.00
H839   H     0.42696   0.31491   0.91368   0.00000  Uiso   1.00
H840   H     0.47480   0.29784   0.93779   0.00000  Uiso   1.00
C841   C     0.43438   0.00487   0.98173   0.00000  Uiso   1.00
H842   H     0.40090   0.00809   0.98887   0.00000  Uiso   1.00
H843   H     0.45031   0.32691   0.51260   0.00000  Uiso   1.00
C844   C     0.45128   0.05263   0.96823   0.00000  Uiso   1.00
H845   H     0.48442   0.04964   0.95963   0.00000  Uiso   1.00
H846   H     0.44802   0.07767   0.99636   0.00000  Uiso   1.00
H847   H     0.43415   0.06644   0.93908   0.00000  Uiso   1.00
O848   O     0.58379   0.07996   0.54431   0.00000  Uiso   1.00
C849   C     0.61961   0.10550   0.55646   0.00000  Uiso   1.00
H850   H     0.63250   0.08891   0.58684   0.00000  Uiso   1.00
H851   H     0.61319   0.14275   0.56553   0.00000  Uiso   1.00
C852   C     0.65215   0.10317   0.51948   0.00000  Uiso   1.00
H853   H     0.65816   0.06597   0.51065   0.00000  Uiso   1.00
H854   H     0.64061   0.12146   0.98939   0.00000  Uiso   1.00
C855   C     0.35917   0.12625   0.53399   0.00000  Uiso   1.00
H856   H     0.35391   0.16350   0.54309   0.00000  Uiso   1.00
H857   H     0.38165   0.12497   0.50616   0.00000  Uiso   1.00
H858   H     0.37247   0.10751   0.56298   0.00000  Uiso   1.00
C859   C     0.75402   0.16664   0.74994   0.00000  Uiso   1.00
C860   C     0.91264   0.16669   0.74999   0.00000  Uiso   1.00
C861   C     0.78157   0.22805   0.52383   0.00000  Uiso   1.00
C862   C     0.88814   0.10840   0.97621   0.00000  Uiso   1.00
C863   C     0.68788   0.12407   0.74941   0.00000  Uiso   1.00
C864   C     0.97878   0.20925   0.75031   0.00000  Uiso   1.00
C865   C     0.97862   0.12410   0.74945   0.00000  Uiso   1.00
C866   C     0.68805   0.20922   0.75027   0.00000  Uiso   1.00
C867   C     0.95725   0.16670   0.74992   0.00000  Uiso   1.00
C868   C     0.70941   0.16663   0.74986   0.00000  Uiso   1.00
C869   C     0.80757   0.02466   0.72252   0.00000  Uiso   1.00
C870   C     0.85908   0.30867   0.77749   0.00000  Uiso   1.00
C871   C     0.85908   0.02495   0.77750   0.00000  Uiso   1.00
C872   C     0.80757   0.30838   0.72252   0.00000  Uiso   1.00
C873   C     0.83338   0.16661   0.66439   0.00000  Uiso   1.00
C874   C     0.83331   0.16675   0.83562   0.00000  Uiso   1.00
C875   C     0.85971   0.13668   0.90678   0.00000  Uiso   1.00
C876   C     0.80798   0.19751   0.59324   0.00000  Uiso   1.00
C877   C     0.83360   0.16708   0.88388   0.00000  Uiso   1.00
C878   C     0.83367   0.16665   0.61613   0.00000  Uiso   1.00
C879   C     0.80825   0.19838   0.90693   0.00000  Uiso   1.00
C880   C     0.86016   0.13659   0.59310   0.00000  Uiso   1.00
C881   C     0.80829   0.19921   0.95348   0.00000  Uiso   1.00
C882   C     0.86183   0.13773   0.54657   0.00000  Uiso   1.00
C883   C     0.83494   0.16856   0.97667   0.00000  Uiso   1.00
C884   C     0.83504   0.16821   0.52336   0.00000  Uiso   1.00
C885   C     0.86108   0.13775   0.95314   0.00000  Uiso   1.00
C886   C     0.80807   0.19808   0.54688   0.00000  Uiso   1.00
C887   C     0.78218   0.22977   0.97736   0.00000  Uiso   1.00
C888   C     0.88970   0.10922   0.52269   0.00000  Uiso   1.00
Cu889  Cu    0.83333   0.21355   0.75000   0.00000  Uiso   1.00
Cu890  Cu    0.83333   0.11978   0.75000   0.00000  Uiso   1.00
H891   H     0.87949   0.11292   0.88839   0.00000  Uiso   1.00
H892   H     0.78754   0.22054   0.61162   0.00000  Uiso   1.00
H893   H     0.78807   0.22137   0.88833   0.00000  Uiso   1.00
H894   H     0.87996   0.11317   0.61168   0.00000  Uiso   1.00
H895   H     0.76038   0.25040   0.54190   0.00000  Uiso   1.00
H896   H     0.90838   0.08492   0.95815   0.00000  Uiso   1.00
H897   H     0.70385   0.09079   0.74903   0.00000  Uiso   1.00
H898   H     0.96282   0.24254   0.75068   0.00000  Uiso   1.00
H899   H     0.96252   0.09083   0.74911   0.00000  Uiso   1.00
H900   H     0.70414   0.24250   0.75060   0.00000  Uiso   1.00
H901   H     0.78693   0.04325   0.70052   0.00000  Uiso   1.00
H902   H     0.87971   0.29008   0.79951   0.00000  Uiso   1.00
H903   H     0.87970   0.04377   0.79952   0.00000  Uiso   1.00
H904   H     0.78694   0.28956   0.70051   0.00000  Uiso   1.00
N905   N     0.83333   0.28402   0.75000   0.00000  Uiso   1.00
N906   N     0.83333   0.04931   0.75000   0.00000  Uiso   1.00
O907   O     0.77321   0.20625   0.75000   0.00000  Uiso   1.00
O908   O     0.89345   0.12709   0.75001   0.00000  Uiso   1.00
O909   O     0.89345   0.20625   0.75001   0.00000  Uiso   1.00
O910   O     0.77321   0.12709   0.75000   0.00000  Uiso   1.00
O911   O     0.83332   0.20627   0.68513   0.00000  Uiso   1.00
O912   O     0.83334   0.12707   0.81487   0.00000  Uiso   1.00
O913   O     0.83334   0.20627   0.81487   0.00000  Uiso   1.00
O914   O     0.83332   0.12707   0.68513   0.00000  Uiso   1.00
O915   O     0.75477   0.25897   0.95565   0.00000  Uiso   1.00
C916   C     0.77451   0.30175   0.94488   0.00000  Uiso   1.00
H917   H     0.76029   0.31491   0.91368   0.00000  Uiso   1.00
H918   H     0.80813   0.29784   0.93779   0.00000  Uiso   1.00
C919   C     0.76771   0.00487   0.98173   0.00000  Uiso   1.00
H920   H     0.73423   0.00809   0.98887   0.00000  Uiso   1.00
H921   H     0.78364   0.32691   0.51260   0.00000  Uiso   1.00
C922   C     0.78462   0.05263   0.96823   0.00000  Uiso   1.00
H923   H     0.81775   0.04964   0.95963   0.00000  Uiso   1.00
H924   H     0.78135   0.07767   0.99636   0.00000  Uiso   1.00
H925   H     0.76748   0.06644   0.93908   0.00000  Uiso   1.00
O926   O     0.91713   0.07996   0.54431   0.00000  Uiso   1.00
C927   C     0.95295   0.10550   0.55646   0.00000  Uiso   1.00
H928   H     0.96583   0.08891   0.58684   0.00000  Uiso   1.00
H929   H     0.94652   0.14275   0.56553   0.00000  Uiso   1.00
C930   C     0.98549   0.10317   0.51948   0.00000  Uiso   1.00
H931   H     0.99149   0.06597   0.51065   0.00000  Uiso   1.00
H932   H     0.97394   0.12146   0.98939   0.00000  Uiso   1.00
C933   C     0.69250   0.12625   0.53399   0.00000  Uiso   1.00
H934   H     0.68724   0.16350   0.54309   0.00000  Uiso   1.00
H935   H     0.71498   0.12497   0.50616   0.00000  Uiso   1.00
H936   H     0.70580   0.10751   0.56298   0.00000  Uiso   1.00
C937   C     0.08736   0.49997   0.74994   0.00000  Uiso   1.00
C938   C     0.24598   0.50003   0.74999   0.00000  Uiso   1.00
C939   C     0.11490   0.56139   0.52383   0.00000  Uiso   1.00
C940   C     0.22147   0.44173   0.97621   0.00000  Uiso   1.00
C941   C     0.02122   0.45741   0.74941   0.00000  Uiso   1.00
C942   C     0.31212   0.54259   0.75031   0.00000  Uiso   1.00
C943   C     0.31195   0.45744   0.74945   0.00000  Uiso   1.00
C944   C     0.02138   0.54256   0.75027   0.00000  Uiso   1.00
C945   C     0.29059   0.50003   0.74992   0.00000  Uiso   1.00
C946   C     0.04275   0.49997   0.74986   0.00000  Uiso   1.00
C947   C     0.14090   0.35800   0.72252   0.00000  Uiso   1.00
C948   C     0.19241   0.64200   0.77749   0.00000  Uiso   1.00
C949   C     0.19241   0.35829   0.77750   0.00000  Uiso   1.00
C950   C     0.14090   0.64171   0.72252   0.00000  Uiso   1.00
C951   C     0.16671   0.49995   0.66439   0.00000  Uiso   1.00
C952   C     0.16664   0.50008   0.83562   0.00000  Uiso   1.00
C953   C     0.19304   0.47001   0.90678   0.00000  Uiso   1.00
C954   C     0.14132   0.53084   0.59324   0.00000  Uiso   1.00
C955   C     0.16693   0.50041   0.88388   0.00000  Uiso   1.00
C956   C     0.16700   0.49999   0.61613   0.00000  Uiso   1.00
C957   C     0.14158   0.53171   0.90693   0.00000  Uiso   1.00
C958   C     0.19350   0.46993   0.59310   0.00000  Uiso   1.00
C959   C     0.14163   0.53255   0.95348   0.00000  Uiso   1.00
C960   C     0.19517   0.47106   0.54657   0.00000  Uiso   1.00
C961   C     0.16827   0.50189   0.97667   0.00000  Uiso   1.00
C962   C     0.16838   0.50154   0.52336   0.00000  Uiso   1.00
C963   C     0.19442   0.47108   0.95314   0.00000  Uiso   1.00
C964   C     0.14140   0.53141   0.54688   0.00000  Uiso   1.00
C965   C     0.11551   0.56311   0.97736   0.00000  Uiso   1.00
C966   C     0.22303   0.44255   0.52269   0.00000  Uiso   1.00
Cu967  Cu    0.16667   0.54689   0.75000   0.00000  Uiso   1.00
Cu968  Cu    0.16667   0.45311   0.75000   0.00000  Uiso   1.00
H969   H     0.21283   0.44626   0.88839   0.00000  Uiso   1.00
H970   H     0.12087   0.55387   0.61162   0.00000  Uiso   1.00
H971   H     0.12141   0.55471   0.88833   0.00000  Uiso   1.00
H972   H     0.21329   0.44650   0.61168   0.00000  Uiso   1.00
H973   H     0.09371   0.58374   0.54190   0.00000  Uiso   1.00
H974   H     0.24172   0.41825   0.95815   0.00000  Uiso   1.00
H975   H     0.03718   0.42412   0.74903   0.00000  Uiso   1.00
H976   H     0.29615   0.57587   0.75068   0.00000  Uiso   1.00
H977   H     0.29586   0.42416   0.74911   0.00000  Uiso   1.00
H978   H     0.03748   0.57583   0.75060   0.00000  Uiso   1.00
H979   H     0.12026   0.37659   0.70052   0.00000  Uiso   1.00
H980   H     0.21304   0.62341   0.79951   0.00000  Uiso   1.00
H981   H     0.21304   0.37711   0.79952   0.00000  Uiso   1.00
H982   H     0.12027   0.62289   0.70051   0.00000  Uiso   1.00
N983   N     0.16667   0.61736   0.75000   0.00000  Uiso   1.00
N984   N     0.16667   0.38264   0.75000   0.00000  Uiso   1.00
O985   O     0.10655   0.53958   0.75000   0.00000  Uiso   1.00
O986   O     0.22679   0.46042   0.75001   0.00000  Uiso   1.00
O987   O     0.22679   0.53958   0.75001   0.00000  Uiso   1.00
O988   O     0.10655   0.46042   0.75000   0.00000  Uiso   1.00
O989   O     0.16666   0.53960   0.68513   0.00000  Uiso   1.00
O990   O     0.16668   0.46040   0.81487   0.00000  Uiso   1.00
O991   O     0.16668   0.53960   0.81487   0.00000  Uiso   1.00
O992   O     0.16666   0.46040   0.68513   0.00000  Uiso   1.00
O993   O     0.08811   0.59230   0.95565   0.00000  Uiso   1.00
C994   C     0.10785   0.63508   0.94488   0.00000  Uiso   1.00
H995   H     0.09363   0.64824   0.91368   0.00000  Uiso   1.00
H996   H     0.14146   0.63118   0.93779   0.00000  Uiso   1.00
C997   C     0.10104   0.33820   0.98173   0.00000  Uiso   1.00
H998   H     0.06756   0.34142   0.98887   0.00000  Uiso   1.00
H999   H     0.11697   0.66024   0.51260   0.00000  Uiso   1.00
C1000  C     0.11795   0.38597   0.96823   0.00000  Uiso   1.00
H1001  H     0.15108   0.38297   0.95963   0.00000  Uiso   1.00
H1002  H     0.11468   0.41100   0.99636   0.00000  Uiso   1.00
H1003  H     0.10081   0.39978   0.93908   0.00000  Uiso   1.00
O1004  O     0.25046   0.41330   0.54431   0.00000  Uiso   1.00
C1005  C     0.28628   0.43883   0.55646   0.00000  Uiso   1.00
H1006  H     0.29916   0.42224   0.58684   0.00000  Uiso   1.00
H1007  H     0.27985   0.47608   0.56553   0.00000  Uiso   1.00
C1008  C     0.31882   0.43650   0.51948   0.00000  Uiso   1.00
H1009  H     0.32483   0.39930   0.51065   0.00000  Uiso   1.00
H1010  H     0.30728   0.45479   0.98939   0.00000  Uiso   1.00
C1011  C     0.02584   0.45958   0.53399   0.00000  Uiso   1.00
H1012  H     0.02058   0.49683   0.54309   0.00000  Uiso   1.00
H1013  H     0.04831   0.45830   0.50616   0.00000  Uiso   1.00
H1014  H     0.03913   0.44084   0.56298   0.00000  Uiso   1.00
C1015  C     0.42069   0.49997   0.74994   0.00000  Uiso   1.00
C1016  C     0.57931   0.50003   0.74999   0.00000  Uiso   1.00
C1017  C     0.44824   0.56139   0.52383   0.00000  Uiso   1.00
C1018  C     0.55481   0.44173   0.97621   0.00000  Uiso   1.00
C1019  C     0.35455   0.45741   0.74941   0.00000  Uiso   1.00
C1020  C     0.64545   0.54259   0.75031   0.00000  Uiso   1.00
C1021  C     0.64529   0.45744   0.74945   0.00000  Uiso   1.00
C1022  C     0.35471   0.54256   0.75027   0.00000  Uiso   1.00
C1023  C     0.62392   0.50003   0.74992   0.00000  Uiso   1.00
C1024  C     0.37608   0.49997   0.74986   0.00000  Uiso   1.00
C1025  C     0.47424   0.35800   0.72252   0.00000  Uiso   1.00
C1026  C     0.52575   0.64200   0.77749   0.00000  Uiso   1.00
C1027  C     0.52575   0.35829   0.77750   0.00000  Uiso   1.00
C1028  C     0.47424   0.64171   0.72252   0.00000  Uiso   1.00
C1029  C     0.50004   0.49995   0.66439   0.00000  Uiso   1.00
C1030  C     0.49998   0.50008   0.83562   0.00000  Uiso   1.00
C1031  C     0.52637   0.47001   0.90678   0.00000  Uiso   1.00
C1032  C     0.47465   0.53084   0.59324   0.00000  Uiso   1.00
C1033  C     0.50026   0.50041   0.88388   0.00000  Uiso   1.00
C1034  C     0.50033   0.49999   0.61613   0.00000  Uiso   1.00
C1035  C     0.47491   0.53171   0.90693   0.00000  Uiso   1.00
C1036  C     0.52683   0.46993   0.59310   0.00000  Uiso   1.00
C1037  C     0.47496   0.53255   0.95348   0.00000  Uiso   1.00
C1038  C     0.52850   0.47106   0.54657   0.00000  Uiso   1.00
C1039  C     0.50160   0.50189   0.97667   0.00000  Uiso   1.00
C1040  C     0.50171   0.50154   0.52336   0.00000  Uiso   1.00
C1041  C     0.52775   0.47108   0.95314   0.00000  Uiso   1.00
C1042  C     0.47473   0.53141   0.54688   0.00000  Uiso   1.00
C1043  C     0.44884   0.56311   0.97736   0.00000  Uiso   1.00
C1044  C     0.55637   0.44255   0.52269   0.00000  Uiso   1.00
Cu1045 Cu    0.50000   0.54689   0.75000   0.00000  Uiso   1.00
Cu1046 Cu    0.50000   0.45311   0.75000   0.00000  Uiso   1.00
H1047  H     0.54616   0.44626   0.88839   0.00000  Uiso   1.00
H1048  H     0.45420   0.55387   0.61162   0.00000  Uiso   1.00
H1049  H     0.45474   0.55471   0.88833   0.00000  Uiso   1.00
H1050  H     0.54662   0.44650   0.61168   0.00000  Uiso   1.00
H1051  H     0.42704   0.58374   0.54190   0.00000  Uiso   1.00
H1052  H     0.57505   0.41825   0.95815   0.00000  Uiso   1.00
H1053  H     0.37052   0.42412   0.74903   0.00000  Uiso   1.00
H1054  H     0.62949   0.57587   0.75068   0.00000  Uiso   1.00
H1055  H     0.62919   0.42416   0.74911   0.00000  Uiso   1.00
H1056  H     0.37081   0.57583   0.75060   0.00000  Uiso   1.00
H1057  H     0.45360   0.37659   0.70052   0.00000  Uiso   1.00
H1058  H     0.54637   0.62341   0.79951   0.00000  Uiso   1.00
H1059  H     0.54637   0.37711   0.79952   0.00000  Uiso   1.00
H1060  H     0.45360   0.62289   0.70051   0.00000  Uiso   1.00
N1061  N     0.50000   0.61736   0.75000   0.00000  Uiso   1.00
N1062  N     0.50000   0.38264   0.75000   0.00000  Uiso   1.00
O1063  O     0.43988   0.53958   0.75000   0.00000  Uiso   1.00
O1064  O     0.56012   0.46042   0.75001   0.00000  Uiso   1.00
O1065  O     0.56012   0.53958   0.75001   0.00000  Uiso   1.00
O1066  O     0.43988   0.46042   0.75000   0.00000  Uiso   1.00
O1067  O     0.49999   0.53960   0.68513   0.00000  Uiso   1.00
O1068  O     0.50001   0.46040   0.81487   0.00000  Uiso   1.00
O1069  O     0.50001   0.53960   0.81487   0.00000  Uiso   1.00
O1070  O     0.49999   0.46040   0.68513   0.00000  Uiso   1.00
O1071  O     0.42144   0.59230   0.95565   0.00000  Uiso   1.00
C1072  C     0.44118   0.63508   0.94488   0.00000  Uiso   1.00
H1073  H     0.42696   0.64824   0.91368   0.00000  Uiso   1.00
H1074  H     0.47480   0.63118   0.93779   0.00000  Uiso   1.00
C1075  C     0.43438   0.33820   0.98173   0.00000  Uiso   1.00
H1076  H     0.40090   0.34142   0.98887   0.00000  Uiso   1.00
H1077  H     0.45031   0.66024   0.51260   0.00000  Uiso   1.00
C1078  C     0.45128   0.38597   0.96823   0.00000  Uiso   1.00
H1079  H     0.48442   0.38297   0.95963   0.00000  Uiso   1.00
H1080  H     0.44802   0.41100   0.99636   0.00000  Uiso   1.00
H1081  H     0.43415   0.39978   0.93908   0.00000  Uiso   1.00
O1082  O     0.58379   0.41330   0.54431   0.00000  Uiso   1.00
C1083  C     0.61961   0.43883   0.55646   0.00000  Uiso   1.00
H1084  H     0.63250   0.42224   0.58684   0.00000  Uiso   1.00
H1085  H     0.61319   0.47608   0.56553   0.00000  Uiso   1.00
C1086  C     0.65215   0.43650   0.51948   0.00000  Uiso   1.00
H1087  H     0.65816   0.39930   0.51065   0.00000  Uiso   1.00
H1088  H     0.64061   0.45479   0.98939   0.00000  Uiso   1.00
C1089  C     0.35917   0.45958   0.53399   0.00000  Uiso   1.00
H1090  H     0.35391   0.49683   0.54309   0.00000  Uiso   1.00
H1091  H     0.38165   0.45830   0.50616   0.00000  Uiso   1.00
H1092  H     0.37247   0.44084   0.56298   0.00000  Uiso   1.00
C1093  C     0.75402   0.49997   0.74994   0.00000  Uiso   1.00
C1094  C     0.91264   0.50003   0.74999   0.00000  Uiso   1.00
C1095  C     0.78157   0.56139   0.52383   0.00000  Uiso   1.00
C1096  C     0.88814   0.44173   0.97621   0.00000  Uiso   1.00
C1097  C     0.68788   0.45741   0.74941   0.00000  Uiso   1.00
C1098  C     0.97878   0.54259   0.75031   0.00000  Uiso   1.00
C1099  C     0.97862   0.45744   0.74945   0.00000  Uiso   1.00
C1100  C     0.68805   0.54256   0.75027   0.00000  Uiso   1.00
C1101  C     0.95725   0.50003   0.74992   0.00000  Uiso   1.00
C1102  C     0.70941   0.49997   0.74986   0.00000  Uiso   1.00
C1103  C     0.80757   0.35800   0.72252   0.00000  Uiso   1.00
C1104  C     0.85908   0.64200   0.77749   0.00000  Uiso   1.00
C1105  C     0.85908   0.35829   0.77750   0.00000  Uiso   1.00
C1106  C     0.80757   0.64171   0.72252   0.00000  Uiso   1.00
C1107  C     0.83338   0.49995   0.66439   0.00000  Uiso   1.00
C1108  C     0.83331   0.50008   0.83562   0.00000  Uiso   1.00
C1109  C     0.85971   0.47001   0.90678   0.00000  Uiso   1.00
C1110  C     0.80798   0.53084   0.59324   0.00000  Uiso   1.00
C1111  C     0.83360   0.50041   0.88388   0.00000  Uiso   1.00
C1112  C     0.83367   0.49999   0.61613   0.00000  Uiso   1.00
C1113  C     0.80825   0.53171   0.90693   0.00000  Uiso   1.00
C1114  C     0.86016   0.46993   0.59310   0.00000  Uiso   1.00
C1115  C     0.80829   0.53255   0.95348   0.00000  Uiso   1.00
C1116  C     0.86183   0.47106   0.54657   0.00000  Uiso   1.00
C1117  C     0.83494   0.50189   0.97667   0.00000  Uiso   1.00
C1118  C     0.83504   0.50154   0.52336   0.00000  Uiso   1.00
C1119  C     0.86108   0.47108   0.95314   0.00000  Uiso   1.00
C1120  C     0.80807   0.53141   0.54688   0.00000  Uiso   1.00
C1121  C     0.78218   0.56311   0.97736   0.00000  Uiso   1.00
C1122  C     0.88970   0.44255   0.52269   0.00000  Uiso   1.00
Cu1123 Cu    0.83333   0.54689   0.75000   0.00000  Uiso   1.00
Cu1124 Cu    0.83333   0.45311   0.75000   0.00000  Uiso   1.00
H1125  H     0.87949   0.44626   0.88839   0.00000  Uiso   1.00
H1126  H     0.78754   0.55387   0.61162   0.00000  Uiso   1.00
H1127  H     0.78807   0.55471   0.88833   0.00000  Uiso   1.00
H1128  H     0.87996   0.44650   0.61168   0.00000  Uiso   1.00
H1129  H     0.76038   0.58374   0.54190   0.00000  Uiso   1.00
H1130  H     0.90838   0.41825   0.95815   0.00000  Uiso   1.00
H1131  H     0.70385   0.42412   0.74903   0.00000  Uiso   1.00
H1132  H     0.96282   0.57587   0.75068   0.00000  Uiso   1.00
H1133  H     0.96252   0.42416   0.74911   0.00000  Uiso   1.00
H1134  H     0.70414   0.57583   0.75060   0.00000  Uiso   1.00
H1135  H     0.78693   0.37659   0.70052   0.00000  Uiso   1.00
H1136  H     0.87971   0.62341   0.79951   0.00000  Uiso   1.00
H1137  H     0.87970   0.37711   0.79952   0.00000  Uiso   1.00
H1138  H     0.78694   0.62289   0.70051   0.00000  Uiso   1.00
N1139  N     0.83333   0.61736   0.75000   0.00000  Uiso   1.00
N1140  N     0.83333   0.38264   0.75000   0.00000  Uiso   1.00
O1141  O     0.77321   0.53958   0.75000   0.00000  Uiso   1.00
O1142  O     0.89345   0.46042   0.75001   0.00000  Uiso   1.00
O1143  O     0.89345   0.53958   0.75001   0.00000  Uiso   1.00
O1144  O     0.77321   0.46042   0.75000   0.00000  Uiso   1.00
O1145  O     0.83332   0.53960   0.68513   0.00000  Uiso   1.00
O1146  O     0.83334   0.46040   0.81487   0.00000  Uiso   1.00
O1147  O     0.83334   0.53960   0.81487   0.00000  Uiso   1.00
O1148  O     0.83332   0.46040   0.68513   0.00000  Uiso   1.00
O1149  O     0.75477   0.59230   0.95565   0.00000  Uiso   1.00
C1150  C     0.77451   0.63508   0.94488   0.00000  Uiso   1.00
H1151  H     0.76029   0.64824   0.91368   0.00000  Uiso   1.00
H1152  H     0.80813   0.63118   0.93779   0.00000  Uiso   1.00
C1153  C     0.76771   0.33820   0.98173   0.00000  Uiso   1.00
H1154  H     0.73423   0.34142   0.98887   0.00000  Uiso   1.00
H1155  H     0.78364   0.66024   0.51260   0.00000  Uiso   1.00
C1156  C     0.78462   0.38597   0.96823   0.00000  Uiso   1.00
H1157  H     0.81775   0.38297   0.95963   0.00000  Uiso   1.00
H1158  H     0.78135   0.41100   0.99636   0.00000  Uiso   1.00
H1159  H     0.76748   0.39978   0.93908   0.00000  Uiso   1.00
O1160  O     0.91713   0.41330   0.54431   0.00000  Uiso   1.00
C1161  C     0.95295   0.43883   0.55646   0.00000  Uiso   1.00
H1162  H     0.96583   0.42224   0.58684   0.00000  Uiso   1.00
H1163  H     0.94652   0.47608   0.56553   0.00000  Uiso   1.00
C1164  C     0.98549   0.43650   0.51948   0.00000  Uiso   1.00
H1165  H     0.99149   0.39930   0.51065   0.00000  Uiso   1.00
H1166  H     0.97394   0.45479   0.98939   0.00000  Uiso   1.00
C1167  C     0.69250   0.45958   0.53399   0.00000  Uiso   1.00
H1168  H     0.68724   0.49683   0.54309   0.00000  Uiso   1.00
H1169  H     0.71498   0.45830   0.50616   0.00000  Uiso   1.00
H1170  H     0.70580   0.44084   0.56298   0.00000  Uiso   1.00
C1171  C     0.08736   0.83331   0.74994   0.00000  Uiso   1.00
C1172  C     0.24598   0.83336   0.74999   0.00000  Uiso   1.00
C1173  C     0.11490   0.89472   0.52383   0.00000  Uiso   1.00
C1174  C     0.22147   0.77507   0.97621   0.00000  Uiso   1.00
C1175  C     0.02122   0.79074   0.74941   0.00000  Uiso   1.00
C1176  C     0.31212   0.87592   0.75031   0.00000  Uiso   1.00
C1177  C     0.31195   0.79077   0.74945   0.00000  Uiso   1.00
C1178  C     0.02138   0.87589   0.75027   0.00000  Uiso   1.00
C1179  C     0.29059   0.83336   0.74992   0.00000  Uiso   1.00
C1180  C     0.04275   0.83330   0.74986   0.00000  Uiso   1.00
C1181  C     0.14090   0.69133   0.72252   0.00000  Uiso   1.00
C1182  C     0.19241   0.97534   0.77749   0.00000  Uiso   1.00
C1183  C     0.19241   0.69162   0.77750   0.00000  Uiso   1.00
C1184  C     0.14090   0.97505   0.72252   0.00000  Uiso   1.00
C1185  C     0.16671   0.83328   0.66439   0.00000  Uiso   1.00
C1186  C     0.16664   0.83341   0.83562   0.00000  Uiso   1.00
C1187  C     0.19304   0.80335   0.90678   0.00000  Uiso   1.00
C1188  C     0.14132   0.86418   0.59324   0.00000  Uiso   1.00
C1189  C     0.16693   0.83374   0.88388   0.00000  Uiso   1.00
C1190  C     0.16700   0.83332   0.61613   0.00000  Uiso   1.00
C1191  C     0.14158   0.86505   0.90693   0.00000  Uiso   1.00
C1192  C     0.19350   0.80326   0.59310   0.00000  Uiso   1.00
C1193  C     0.14163   0.86588   0.95348   0.00000  Uiso   1.00
C1194  C     0.19517   0.80440   0.54657   0.00000  Uiso   1.00
C1195  C     0.16827   0.83523   0.97667   0.00000  Uiso   1.00
C1196  C     0.16838   0.83487   0.52336   0.00000  Uiso   1.00
C1197  C     0.19442   0.80442   0.95314   0.00000  Uiso   1.00
C1198  C     0.14140   0.86474   0.54688   0.00000  Uiso   1.00
C1199  C     0.11551   0.89644   0.97736   0.00000  Uiso   1.00
C1200  C     0.22303   0.77588   0.52269   0.00000  Uiso   1.00
Cu1201 Cu    0.16667   0.88022   0.75000   0.00000  Uiso   1.00
Cu1202 Cu    0.16667   0.78645   0.75000   0.00000  Uiso   1.00
H1203  H     0.21283   0.77959   0.88839   0.00000  Uiso   1.00
H1204  H     0.12087   0.88721   0.61162   0.00000  Uiso   1.00
H1205  H     0.12141   0.88804   0.88833   0.00000  Uiso   1.00
H1206  H     0.21329   0.77983   0.61168   0.00000  Uiso   1.00
H1207  H     0.09371   0.91707   0.54190   0.00000  Uiso   1.00
H1208  H     0.24172   0.75159   0.95815   0.00000  Uiso   1.00
H1209  H     0.03718   0.75746   0.74903   0.00000  Uiso   1.00
H1210  H     0.29615   0.90920   0.75068   0.00000  Uiso   1.00
H1211  H     0.29586   0.75749   0.74911   0.00000  Uiso   1.00
H1212  H     0.03748   0.90917   0.75060   0.00000  Uiso   1.00
H1213  H     0.12026   0.70992   0.70052   0.00000  Uiso   1.00
H1214  H     0.21304   0.95675   0.79951   0.00000  Uiso   1.00
H1215  H     0.21304   0.71044   0.79952   0.00000  Uiso   1.00
H1216  H     0.12027   0.95623   0.70051   0.00000  Uiso   1.00
N1217  N     0.16667   0.95069   0.75000   0.00000  Uiso   1.00
N1218  N     0.16667   0.71598   0.75000   0.00000  Uiso   1.00
O1219  O     0.10655   0.87291   0.75000   0.00000  Uiso   1.00
O1220  O     0.22679   0.79375   0.75001   0.00000  Uiso   1.00
O1221  O     0.22679   0.87291   0.75001   0.00000  Uiso   1.00
O1222  O     0.10655   0.79375   0.75000   0.00000  Uiso   1.00
O1223  O     0.16666   0.87293   0.68513   0.00000  Uiso   1.00
O1224  O     0.16668   0.79373   0.81487   0.00000  Uiso   1.00
O1225  O     0.16668   0.87293   0.81487   0.00000  Uiso   1.00
O1226  O     0.16666   0.79373   0.68513   0.00000  Uiso   1.00
O1227  O     0.08811   0.92563   0.95565   0.00000  Uiso   1.00
C1228  C     0.10785   0.96841   0.94488   0.00000  Uiso   1.00
H1229  H     0.09363   0.98157   0.91368   0.00000  Uiso   1.00
H1230  H     0.14146   0.96451   0.93779   0.00000  Uiso   1.00
C1231  C     0.10104   0.67154   0.98173   0.00000  Uiso   1.00
H1232  H     0.06756   0.67475   0.98887   0.00000  Uiso   1.00
H1233  H     0.11697   0.99358   0.51260   0.00000  Uiso   1.00
C1234  C     0.11795   0.71930   0.96823   0.00000  Uiso   1.00
H1235  H     0.15108   0.71631   0.95963   0.00000  Uiso   1.00
H1236  H     0.11468   0.74434   0.99636   0.00000  Uiso   1.00
H1237  H     0.10081   0.73311   0.93908   0.00000  Uiso   1.00
O1238  O     0.25046   0.74663   0.54431   0.00000  Uiso   1.00
C1239  C     0.28628   0.77217   0.55646   0.00000  Uiso   1.00
H1240  H     0.29916   0.75558   0.58684   0.00000  Uiso   1.00
H1241  H     0.27985   0.80941   0.56553   0.00000  Uiso   1.00
C1242  C     0.31882   0.76984   0.51948   0.00000  Uiso   1.00
H1243  H     0.32483   0.73264   0.51065   0.00000  Uiso   1.00
H1244  H     0.30728   0.78812   0.98939   0.00000  Uiso   1.00
C1245  C     0.02584   0.79291   0.53399   0.00000  Uiso   1.00
H1246  H     0.02058   0.83017   0.54309   0.00000  Uiso   1.00
H1247  H     0.04831   0.79164   0.50616   0.00000  Uiso   1.00
H1248  H     0.03913   0.77418   0.56298   0.00000  Uiso   1.00
C1249  C     0.42069   0.83331   0.74994   0.00000  Uiso   1.00
C1250  C     0.57931   0.83336   0.74999   0.00000  Uiso   1.00
C1251  C     0.44824   0.89472   0.52383   0.00000  Uiso   1.00
C1252  C     0.55481   0.77507   0.97621   0.00000  Uiso   1.00
C1253  C     0.35455   0.79074   0.74941   0.00000  Uiso   1.00
C1254  C     0.64545   0.87592   0.75031   0.00000  Uiso   1.00
C1255  C     0.64529   0.79077   0.74945   0.00000  Uiso   1.00
C1256  C     0.35471   0.87589   0.75027   0.00000  Uiso   1.00
C1257  C     0.62392   0.83336   0.74992   0.00000  Uiso   1.00
C1258  C     0.37608   0.83330   0.74986   0.00000  Uiso   1.00
C1259  C     0.47424   0.69133   0.72252   0.00000  Uiso   1.00
C1260  C     0.52575   0.97534   0.77749   0.00000  Uiso   1.00
C1261  C     0.52575   0.69162   0.77750   0.00000  Uiso   1.00
C1262  C     0.47424   0.97505   0.72252   0.00000  Uiso   1.00
C1263  C     0.50004   0.83328   0.66439   0.00000  Uiso   1.00
C1264  C     0.49998   0.83341   0.83562   0.00000  Uiso   1.00
C1265  C     0.52637   0.80335   0.90678   0.00000  Uiso   1.00
C1266  C     0.47465   0.86418   0.59324   0.00000  Uiso   1.00
C1267  C     0.50026   0.83374   0.88388   0.00000  Uiso   1.00
C1268  C     0.50033   0.83332   0.61613   0.00000  Uiso   1.00
C1269  C     0.47491   0.86505   0.90693   0.00000  Uiso   1.00
C1270  C     0.52683   0.80326   0.59310   0.00000  Uiso   1.00
C1271  C     0.47496   0.86588   0.95348   0.00000  Uiso   1.00
C1272  C     0.52850   0.80440   0.54657   0.00000  Uiso   1.00
C1273  C     0.50160   0.83523   0.97667   0.00000  Uiso   1.00
C1274  C     0.50171   0.83487   0.52336   0.00000  Uiso   1.00
C1275  C     0.52775   0.80442   0.95314   0.00000  Uiso   1.00
C1276  C     0.47473   0.86474   0.54688   0.00000  Uiso   1.00
C1277  C     0.44884   0.89644   0.97736   0.00000  Uiso   1.00
C1278  C     0.55637   0.77588   0.52269   0.00000  Uiso   1.00
Cu1279 Cu    0.50000   0.88022   0.75000   0.00000  Uiso   1.00
Cu1280 Cu    0.50000   0.78645   0.75000   0.00000  Uiso   1.00
H1281  H     0.54616   0.77959   0.88839   0.00000  Uiso   1.00
H1282  H     0.45420   0.88721   0.61162   0.00000  Uiso   1.00
H1283  H     0.45474   0.88804   0.88833   0.00000  Uiso   1.00
H1284  H     0.54662   0.77983   0.61168   0.00000  Uiso   1.00
H1285  H     0.42704   0.91707   0.54190   0.00000  Uiso   1.00
H1286  H     0.57505   0.75159   0.95815   0.00000  Uiso   1.00
H1287  H     0.37052   0.75746   0.74903   0.00000  Uiso   1.00
H1288  H     0.62949   0.90920   0.75068   0.00000  Uiso   1.00
H1289  H     0.62919   0.75749   0.74911   0.00000  Uiso   1.00
H1290  H     0.37081   0.90917   0.75060   0.00000  Uiso   1.00
H1291  H     0.45360   0.70992   0.70052   0.00000  Uiso   1.00
H1292  H     0.54637   0.95675   0.79951   0.00000  Uiso   1.00
H1293  H     0.54637   0.71044   0.79952   0.00000  Uiso   1.00
H1294  H     0.45360   0.95623   0.70051   0.00000  Uiso   1.00
N1295  N     0.50000   0.95069   0.75000   0.00000  Uiso   1.00
N1296  N     0.50000   0.71598   0.75000   0.00000  Uiso   1.00
O1297  O     0.43988   0.87291   0.75000   0.00000  Uiso   1.00
O1298  O     0.56012   0.79375   0.75001   0.00000  Uiso   1.00
O1299  O     0.56012   0.87291   0.75001   0.00000  Uiso   1.00
O1300  O     0.43988   0.79375   0.75000   0.00000  Uiso   1.00
O1301  O     0.49999   0.87293   0.68513   0.00000  Uiso   1.00
O1302  O     0.50001   0.79373   0.81487   0.00000  Uiso   1.00
O1303  O     0.50001   0.87293   0.81487   0.00000  Uiso   1.00
O1304  O     0.49999   0.79373   0.68513   0.00000  Uiso   1.00
O1305  O     0.42144   0.92563   0.95565   0.00000  Uiso   1.00
C1306  C     0.44118   0.96841   0.94488   0.00000  Uiso   1.00
H1307  H     0.42696   0.98157   0.91368   0.00000  Uiso   1.00
H1308  H     0.47480   0.96451   0.93779   0.00000  Uiso   1.00
C1309  C     0.43438   0.67154   0.98173   0.00000  Uiso   1.00
H1310  H     0.40090   0.67475   0.98887   0.00000  Uiso   1.00
H1311  H     0.45031   0.99358   0.51260   0.00000  Uiso   1.00
C1312  C     0.45128   0.71930   0.96823   0.00000  Uiso   1.00
H1313  H     0.48442   0.71631   0.95963   0.00000  Uiso   1.00
H1314  H     0.44802   0.74434   0.99636   0.00000  Uiso   1.00
H1315  H     0.43415   0.73311   0.93908   0.00000  Uiso   1.00
O1316  O     0.58379   0.74663   0.54431   0.00000  Uiso   1.00
C1317  C     0.61961   0.77217   0.55646   0.00000  Uiso   1.00
H1318  H     0.63250   0.75558   0.58684   0.00000  Uiso   1.00
H1319  H     0.61319   0.80941   0.56553   0.00000  Uiso   1.00
C1320  C     0.65215   0.76984   0.51948   0.00000  Uiso   1.00
H1321  H     0.65816   0.73264   0.51065   0.00000  Uiso   1.00
H1322  H     0.64061   0.78812   0.98939   0.00000  Uiso   1.00
C1323  C     0.35917   0.79291   0.53399   0.00000  Uiso   1.00
H1324  H     0.35391   0.83017   0.54309   0.00000  Uiso   1.00
H1325  H     0.38165   0.79164   0.50616   0.00000  Uiso   1.00
H1326  H     0.37247   0.77418   0.56298   0.00000  Uiso   1.00
C1327  C     0.75402   0.83331   0.74994   0.00000  Uiso   1.00
C1328  C     0.91264   0.83336   0.74999   0.00000  Uiso   1.00
C1329  C     0.78157   0.89472   0.52383   0.00000  Uiso   1.00
C1330  C     0.88814   0.77507   0.97621   0.00000  Uiso   1.00
C1331  C     0.68788   0.79074   0.74941   0.00000  Uiso   1.00
C1332  C     0.97878   0.87592   0.75031   0.00000  Uiso   1.00
C1333  C     0.97862   0.79077   0.74945   0.00000  Uiso   1.00
C1334  C     0.68805   0.87589   0.75027   0.00000  Uiso   1.00
C1335  C     0.95725   0.83336   0.74992   0.00000  Uiso   1.00
C1336  C     0.70941   0.83330   0.74986   0.00000  Uiso   1.00
C1337  C     0.80757   0.69133   0.72252   0.00000  Uiso   1.00
C1338  C     0.85908   0.97534   0.77749   0.00000  Uiso   1.00
C1339  C     0.85908   0.69162   0.77750   0.00000  Uiso   1.00
C1340  C     0.80757   0.97505   0.72252   0.00000  Uiso   1.00
C1341  C     0.83338   0.83328   0.66439   0.00000  Uiso   1.00
C1342  C     0.83331   0.83341   0.83562   0.00000  Uiso   1.00
C1343  C     0.85971   0.80335   0.90678   0.00000  Uiso   1.00
C1344  C     0.80798   0.86418   0.59324   0.00000  Uiso   1.00
C1345  C     0.83360   0.83374   0.88388   0.00000  Uiso   1.00
C1346  C     0.83367   0.83332   0.61613   0.00000  Uiso   1.00
C1347  C     0.80825   0.86505   0.90693   0.00000  Uiso   1.00
C1348  C     0.86016   0.80326   0.59310   0.00000  Uiso   1.00
C1349  C     0.80829   0.86588   0.95348   0.00000  Uiso   1.00
C1350  C     0.86183   0.80440   0.54657   0.00000  Uiso   1.00
C1351  C     0.83494   0.83523   0.97667   0.00000  Uiso   1.00
C1352  C     0.83504   0.83487   0.52336   0.00000  Uiso   1.00
C1353  C     0.86108   0.80442   0.95314   0.00000  Uiso   1.00
C1354  C     0.80807   0.86474   0.54688   0.00000  Uiso   1.00
C1355  C     0.78218   0.89644   0.97736   0.00000  Uiso   1.00
C1356  C     0.88970   0.77588   0.52269   0.00000  Uiso   1.00
Cu1357 Cu    0.83333   0.88022   0.75000   0.00000  Uiso   1.00
Cu1358 Cu    0.83333   0.78645   0.75000   0.00000  Uiso   1.00
H1359  H     0.87949   0.77959   0.88839   0.00000  Uiso   1.00
H1360  H     0.78754   0.88721   0.61162   0.00000  Uiso   1.00
H1361  H     0.78807   0.88804   0.88833   0.00000  Uiso   1.00
H1362  H     0.87996   0.77983   0.61168   0.00000  Uiso   1.00
H1363  H     0.76038   0.91707   0.54190   0.00000  Uiso   1.00
H1364  H     0.90838   0.75159   0.95815   0.00000  Uiso   1.00
H1365  H     0.70385   0.75746   0.74903   0.00000  Uiso   1.00
H1366  H     0.96282   0.90920   0.75068   0.00000  Uiso   1.00
H1367  H     0.96252   0.75749   0.74911   0.00000  Uiso   1.00
H1368  H     0.70414   0.90917   0.75060   0.00000  Uiso   1.00
H1369  H     0.78693   0.70992   0.70052   0.00000  Uiso   1.00
H1370  H     0.87971   0.95675   0.79951   0.00000  Uiso   1.00
H1371  H     0.87970   0.71044   0.79952   0.00000  Uiso   1.00
H1372  H     0.78694   0.95623   0.70051   0.00000  Uiso   1.00
N1373  N     0.83333   0.95069   0.75000   0.00000  Uiso   1.00
N1374  N     0.83333   0.71598   0.75000   0.00000  Uiso   1.00
O1375  O     0.77321   0.87291   0.75000   0.00000  Uiso   1.00
O1376  O     0.89345   0.79375   0.75001   0.00000  Uiso   1.00
O1377  O     0.89345   0.87291   0.75001   0.00000  Uiso   1.00
O1378  O     0.77321   0.79375   0.75000   0.00000  Uiso   1.00
O1379  O     0.83332   0.87293   0.68513   0.00000  Uiso   1.00
O1380  O     0.83334   0.79373   0.81487   0.00000  Uiso   1.00
O1381  O     0.83334   0.87293   0.81487   0.00000  Uiso   1.00
O1382  O     0.83332   0.79373   0.68513   0.00000  Uiso   1.00
O1383  O     0.75477   0.92563   0.95565   0.00000  Uiso   1.00
C1384  C     0.77451   0.96841   0.94488   0.00000  Uiso   1.00
H1385  H     0.76029   0.98157   0.91368   0.00000  Uiso   1.00
H1386  H     0.80813   0.96451   0.93779   0.00000  Uiso   1.00
C1387  C     0.76771   0.67154   0.98173   0.00000  Uiso   1.00
H1388  H     0.73423   0.67475   0.98887   0.00000  Uiso   1.00
H1389  H     0.78364   0.99358   0.51260   0.00000  Uiso   1.00
C1390  C     0.78462   0.71930   0.96823   0.00000  Uiso   1.00
H1391  H     0.81775   0.71631   0.95963   0.00000  Uiso   1.00
H1392  H     0.78135   0.74434   0.99636   0.00000  Uiso   1.00
H1393  H     0.76748   0.73311   0.93908   0.00000  Uiso   1.00
O1394  O     0.91713   0.74663   0.54431   0.00000  Uiso   1.00
C1395  C     0.95295   0.77217   0.55646   0.00000  Uiso   1.00
H1396  H     0.96583   0.75558   0.58684   0.00000  Uiso   1.00
H1397  H     0.94652   0.80941   0.56553   0.00000  Uiso   1.00
C1398  C     0.98549   0.76984   0.51948   0.00000  Uiso   1.00
H1399  H     0.99149   0.73264   0.51065   0.00000  Uiso   1.00
H1400  H     0.97394   0.78812   0.98939   0.00000  Uiso   1.00
C1401  C     0.69250   0.79291   0.53399   0.00000  Uiso   1.00
H1402  H     0.68724   0.83017   0.54309   0.00000  Uiso   1.00
H1403  H     0.71498   0.79164   0.50616   0.00000  Uiso   1.00
H1404  H     0.70580   0.77418   0.56298   0.00000  Uiso   1.00
loop_
_geom_bond_atom_site_label_1
_geom_bond_atom_site_label_2
_geom_bond_distance
_geom_bond_site_symmetry_2
_ccdc_geom_bond_type
C1     C10     1.448   .     S
C1     O52     1.291   .     A
C1     O49     1.290   .     A
C2     O50     1.290   .     A
C2     O51     1.291   .     A
C2     C9      1.448   .     S
C3     C28     1.399   .     A
C3     H37     1.084   .     S
C3     C731    1.397   1_554 S
C4     C27     1.400   .     A
C4     H38     1.084   .     S
C4     C732    1.397   .     S
C5     H39     1.083   .     S
C5     C10     1.401   .     A
C5     C163    1.382   1_455 S
C6     C9      1.400   .     A
C6     H40     1.083   .     S
C6     C86     1.382   .     S
C7     H41     1.083   .     S
C7     C9      1.401   .     A
C7     C83     1.382   .     S
C8     H42     1.083   .     S
C8     C10     1.401   .     A
C8     C162    1.382   1_455 S
C11    H43     1.082   .     S
C11    N48     1.367   .     A
C11    C482    1.417   1_545 S
C12    N47     1.367   .     A
C12    H44     1.082   .     S
C12    C247    1.417   .     S
C13    N48     1.367   .     A
C13    H45     1.082   .     S
C13    C480    1.417   1_545 S
C14    H46     1.082   .     S
C14    N47     1.367   .     A
C14    C245    1.417   .     S
C15    O53     1.291   .     A
C15    C20     1.449   .     S
C15    O56     1.291   .     A
C16    O54     1.291   .     A
C16    O55     1.291   .     A
C16    C19     1.450   .     S
C17    H33     1.085   .     S
C17    C27     1.393   .     A
C17    C19     1.396   .     A
C18    C20     1.396   .     A
C18    C28     1.392   .     A
C18    H34     1.085   .     S
C19    C21     1.398   .     A
C20    C22     1.398   .     A
C21    C23     1.398   .     A
C21    H35     1.084   .     S
C22    H36     1.084   .     S
C22    C24     1.399   .     A
C23    C29     1.412   .     A
C23    C25     1.416   .     A
C24    C26     1.416   .     A
C24    C30     1.412   .     A
C25    C27     1.412   .     A
C25    C728    1.403   .     S
C26    C28     1.412   .     A
C26    C727    1.403   1_554 S
C29    O57     1.384   .     S
C29    C705    1.397   .     S
C30    O68     1.385   .     S
C30    C706    1.397   1_554 S
Cu31   N47     2.012   .     S
Cu31   O49     1.962   .     S
Cu31   O51     1.963   .     S
Cu31   Cu32    2.677   .     S
Cu31   O53     1.959   .     S
Cu31   O55     1.960   .     S
Cu32   O52     1.963   .     S
Cu32   N48     2.012   .     S
Cu32   O54     1.959   .     S
Cu32   O50     1.962   .     S
Cu32   O56     1.960   .     S
O57    C58     1.416   .     S
C58    H60     1.117   .     S
C58    H59     1.111   .     S
C58    C295    1.533   .     S
C61    C64     1.525   .     S
C61    H62     1.112   .     S
C61    C526    1.533   1_545 S
C61    H1233   1.110   1_545 S
H63    C997    1.110   1_554 S
C64    H67     1.111   .     S
C64    H66     1.110   .     S
C64    H65     1.110   .     S
O68    C69     1.418   .     S
C69    H71     1.117   .     S
C69    H70     1.111   .     S
C69    C72     1.534   .     S
C72    H73     1.112   .     S
C72    H776    1.110   1_554 S
C72    C153    1.527   .     S
H74    C774    1.110   .     S
C75    H78     1.111   .     S
C75    H76     1.111   .     S
C75    H77     1.110   .     S
C75    C228    1.527   1_455 S
C79    C88     1.448   .     S
C79    O130    1.291   .     A
C79    O127    1.290   .     A
C80    O128    1.290   .     A
C80    O129    1.291   .     A
C80    C87     1.448   .     S
C81    C106    1.399   .     A
C81    H115    1.084   .     S
C81    C809    1.397   1_554 S
C82    C105    1.400   .     A
C82    H116    1.084   .     S
C82    C810    1.397   .     S
C83    H117    1.083   .     S
C83    C88     1.401   .     A
C84    C87     1.400   .     A
C84    H118    1.083   .     S
C84    C164    1.382   .     S
C85    H119    1.083   .     S
C85    C87     1.401   .     A
C85    C161    1.382   .     S
C86    H120    1.083   .     S
C86    C88     1.401   .     A
C89    H121    1.082   .     S
C89    N126    1.367   .     A
C89    C560    1.417   1_545 S
C90    N125    1.367   .     A
C90    H122    1.082   .     S
C90    C325    1.417   .     S
C91    N126    1.367   .     A
C91    H123    1.082   .     S
C91    C558    1.417   1_545 S
C92    H124    1.082   .     S
C92    N125    1.367   .     A
C92    C323    1.417   .     S
C93    O131    1.291   .     A
C93    C98     1.449   .     S
C93    O134    1.291   .     A
C94    O132    1.291   .     A
C94    O133    1.291   .     A
C94    C97     1.450   .     S
C95    H111    1.085   .     S
C95    C105    1.393   .     A
C95    C97     1.396   .     A
C96    C98     1.396   .     A
C96    C106    1.392   .     A
C96    H112    1.085   .     S
C97    C99     1.398   .     A
C98    C100    1.398   .     A
C99    C101    1.398   .     A
C99    H113    1.084   .     S
C100   H114    1.084   .     S
C100   C102    1.399   .     A
C101   C107    1.412   .     A
C101   C103    1.416   .     A
C102   C104    1.416   .     A
C102   C108    1.412   .     A
C103   C105    1.412   .     A
C103   C806    1.403   .     S
C104   C106    1.412   .     A
C104   C805    1.403   1_554 S
C107   O135    1.384   .     S
C107   C783    1.397   .     S
C108   O146    1.385   .     S
C108   C784    1.397   1_554 S
Cu109  N125    2.012   .     S
Cu109  O127    1.962   .     S
Cu109  O129    1.963   .     S
Cu109  Cu110   2.677   .     S
Cu109  O131    1.959   .     S
Cu109  O133    1.960   .     S
Cu110  O130    1.963   .     S
Cu110  N126    2.012   .     S
Cu110  O132    1.959   .     S
Cu110  O128    1.962   .     S
Cu110  O134    1.960   .     S
O135   C136    1.416   .     S
C136   H138    1.117   .     S
C136   H137    1.111   .     S
C136   C373    1.533   .     S
C139   C142    1.525   .     S
C139   H140    1.112   .     S
C139   C604    1.533   1_545 S
C139   H1311   1.110   1_545 S
H141   C1075   1.110   1_554 S
C142   H145    1.111   .     S
C142   H144    1.110   .     S
C142   H143    1.110   .     S
O146   C147    1.418   .     S
C147   H149    1.117   .     S
C147   H148    1.111   .     S
C147   C150    1.534   .     S
C150   H151    1.112   .     S
C150   H854    1.110   1_554 S
C150   C231    1.527   .     S
H152   C852    1.110   .     S
C153   H156    1.111   .     S
C153   H154    1.111   .     S
C153   H155    1.110   .     S
C157   C166    1.448   .     S
C157   O208    1.291   .     A
C157   O205    1.290   .     A
C158   O206    1.290   .     A
C158   O207    1.291   .     A
C158   C165    1.448   .     S
C159   C184    1.399   .     A
C159   H193    1.084   .     S
C159   C887    1.397   1_554 S
C160   C183    1.400   .     A
C160   H194    1.084   .     S
C160   C888    1.397   .     S
C161   H195    1.083   .     S
C161   C166    1.401   .     A
C162   C165    1.400   .     A
C162   H196    1.083   .     S
C162   C8      1.382   1_655 S
C163   H197    1.083   .     S
C163   C165    1.401   .     A
C163   C5      1.382   1_655 S
C164   H198    1.083   .     S
C164   C166    1.401   .     A
C167   H199    1.082   .     S
C167   N204    1.367   .     A
C167   C638    1.417   1_545 S
C168   N203    1.367   .     A
C168   H200    1.082   .     S
C168   C403    1.417   .     S
C169   N204    1.367   .     A
C169   H201    1.082   .     S
C169   C636    1.417   1_545 S
C170   H202    1.082   .     S
C170   N203    1.367   .     A
C170   C401    1.417   .     S
C171   O209    1.291   .     A
C171   C176    1.449   .     S
C171   O212    1.291   .     A
C172   O210    1.291   .     A
C172   O211    1.291   .     A
C172   C175    1.450   .     S
C173   H189    1.085   .     S
C173   C183    1.393   .     A
C173   C175    1.396   .     A
C174   C176    1.396   .     A
C174   C184    1.392   .     A
C174   H190    1.085   .     S
C175   C177    1.398   .     A
C176   C178    1.398   .     A
C177   C179    1.398   .     A
C177   H191    1.084   .     S
C178   H192    1.084   .     S
C178   C180    1.399   .     A
C179   C185    1.412   .     A
C179   C181    1.416   .     A
C180   C182    1.416   .     A
C180   C186    1.412   .     A
C181   C183    1.412   .     A
C181   C884    1.403   .     S
C182   C184    1.412   .     A
C182   C883    1.403   1_554 S
C185   O213    1.384   .     S
C185   C861    1.397   .     S
C186   O224    1.385   .     S
C186   C862    1.397   1_554 S
Cu187  N203    2.012   .     S
Cu187  O205    1.962   .     S
Cu187  O207    1.963   .     S
Cu187  Cu188   2.677   .     S
Cu187  O209    1.959   .     S
Cu187  O211    1.960   .     S
Cu188  O208    1.963   .     S
Cu188  N204    2.012   .     S
Cu188  O210    1.959   .     S
Cu188  O206    1.962   .     S
Cu188  O212    1.960   .     S
O213   C214    1.416   .     S
C214   H216    1.117   .     S
C214   H215    1.111   .     S
C214   C451    1.533   .     S
C217   C220    1.525   .     S
C217   H218    1.112   .     S
C217   C682    1.533   1_545 S
C217   H1389   1.110   1_545 S
H219   C1153   1.110   1_554 S
C220   H223    1.111   .     S
C220   H222    1.110   .     S
C220   H221    1.110   .     S
O224   C225    1.418   .     S
C225   H227    1.117   .     S
C225   H226    1.111   .     S
C225   C228    1.534   .     S
C228   H229    1.112   .     S
C228   H932    1.110   1_554 S
C228   C75     1.527   1_655 S
H230   C930    1.110   .     S
C231   H234    1.111   .     S
C231   H232    1.111   .     S
C231   H233    1.110   .     S
C235   C244    1.448   .     S
C235   O286    1.291   .     A
C235   O283    1.290   .     A
C236   O284    1.290   .     A
C236   O285    1.291   .     A
C236   C243    1.448   .     S
C237   C262    1.399   .     A
C237   H271    1.084   .     S
C237   C965    1.397   1_554 S
C238   C261    1.400   .     A
C238   H272    1.084   .     S
C238   C966    1.397   .     S
C239   H273    1.083   .     S
C239   C244    1.401   .     A
C239   C397    1.382   1_455 S
C240   C243    1.400   .     A
C240   H274    1.083   .     S
C240   C320    1.382   .     S
C241   H275    1.083   .     S
C241   C243    1.401   .     A
C241   C317    1.382   .     S
C242   H276    1.083   .     S
C242   C244    1.401   .     A
C242   C396    1.382   1_455 S
C245   H277    1.082   .     S
C245   N282    1.367   .     A
C246   N281    1.367   .     A
C246   H278    1.082   .     S
C246   C481    1.417   .     S
C247   N282    1.367   .     A
C247   H279    1.082   .     S
C248   H280    1.082   .     S
C248   N281    1.367   .     A
C248   C479    1.417   .     S
C249   O287    1.291   .     A
C249   C254    1.449   .     S
C249   O290    1.291   .     A
C250   O288    1.291   .     A
C250   O289    1.291   .     A
C250   C253    1.450   .     S
C251   H267    1.085   .     S
C251   C261    1.393   .     A
C251   C253    1.396   .     A
C252   C254    1.396   .     A
C252   C262    1.392   .     A
C252   H268    1.085   .     S
C253   C255    1.398   .     A
C254   C256    1.398   .     A
C255   C257    1.398   .     A
C255   H269    1.084   .     S
C256   H270    1.084   .     S
C256   C258    1.399   .     A
C257   C263    1.412   .     A
C257   C259    1.416   .     A
C258   C260    1.416   .     A
C258   C264    1.412   .     A
C259   C261    1.412   .     A
C259   C962    1.403   .     S
C260   C262    1.412   .     A
C260   C961    1.403   1_554 S
C263   O291    1.384   .     S
C263   C939    1.397   .     S
C264   O302    1.385   .     S
C264   C940    1.397   1_554 S
Cu265  N281    2.012   .     S
Cu265  O283    1.962   .     S
Cu265  O285    1.963   .     S
Cu265  Cu266   2.677   .     S
Cu265  O287    1.959   .     S
Cu265  O289    1.960   .     S
Cu266  O286    1.963   .     S
Cu266  N282    2.012   .     S
Cu266  O288    1.959   .     S
Cu266  O284    1.962   .     S
Cu266  O290    1.960   .     S
O291   C292    1.416   .     S
C292   H294    1.117   .     S
C292   H293    1.111   .     S
C292   C529    1.533   .     S
C295   C298    1.525   .     S
C295   H296    1.112   .     S
C295   H765    1.110   .     S
H297   C1231   1.110   1_554 S
C298   H301    1.111   .     S
C298   H300    1.110   .     S
C298   H299    1.110   .     S
O302   C303    1.418   .     S
C303   H305    1.117   .     S
C303   H304    1.111   .     S
C303   C306    1.534   .     S
C306   H307    1.112   .     S
C306   H1010   1.110   1_554 S
C306   C387    1.527   .     S
H308   C1008   1.110   .     S
C309   H312    1.111   .     S
C309   H310    1.111   .     S
C309   H311    1.110   .     S
C309   C462    1.527   1_455 S
C313   C322    1.448   .     S
C313   O364    1.291   .     A
C313   O361    1.290   .     A
C314   O362    1.290   .     A
C314   O363    1.291   .     A
C314   C321    1.448   .     S
C315   C340    1.399   .     A
C315   H349    1.084   .     S
C315   C1043   1.397   1_554 S
C316   C339    1.400   .     A
C316   H350    1.084   .     S
C316   C1044   1.397   .     S
C317   H351    1.083   .     S
C317   C322    1.401   .     A
C318   C321    1.400   .     A
C318   H352    1.083   .     S
C318   C398    1.382   .     S
C319   H353    1.083   .     S
C319   C321    1.401   .     A
C319   C395    1.382   .     S
C320   H354    1.083   .     S
C320   C322    1.401   .     A
C323   H355    1.082   .     S
C323   N360    1.367   .     A
C324   N359    1.367   .     A
C324   H356    1.082   .     S
C324   C559    1.417   .     S
C325   N360    1.367   .     A
C325   H357    1.082   .     S
C326   H358    1.082   .     S
C326   N359    1.367   .     A
C326   C557    1.417   .     S
C327   O365    1.291   .     A
C327   C332    1.449   .     S
C327   O368    1.291   .     A
C328   O366    1.291   .     A
C328   O367    1.291   .     A
C328   C331    1.450   .     S
C329   H345    1.085   .     S
C329   C339    1.393   .     A
C329   C331    1.396   .     A
C330   C332    1.396   .     A
C330   C340    1.392   .     A
C330   H346    1.085   .     S
C331   C333    1.398   .     A
C332   C334    1.398   .     A
C333   C335    1.398   .     A
C333   H347    1.084   .     S
C334   H348    1.084   .     S
C334   C336    1.399   .     A
C335   C341    1.412   .     A
C335   C337    1.416   .     A
C336   C338    1.416   .     A
C336   C342    1.412   .     A
C337   C339    1.412   .     A
C337   C1040   1.403   .     S
C338   C340    1.412   .     A
C338   C1039   1.403   1_554 S
C341   O369    1.384   .     S
C341   C1017   1.397   .     S
C342   O380    1.385   .     S
C342   C1018   1.397   1_554 S
Cu343  N359    2.012   .     S
Cu343  O361    1.962   .     S
Cu343  O363    1.963   .     S
Cu343  Cu344   2.677   .     S
Cu343  O365    1.959   .     S
Cu343  O367    1.960   .     S
Cu344  O364    1.963   .     S
Cu344  N360    2.012   .     S
Cu344  O366    1.959   .     S
Cu344  O362    1.962   .     S
Cu344  O368    1.960   .     S
O369   C370    1.416   .     S
C370   H372    1.117   .     S
C370   H371    1.111   .     S
C370   C607    1.533   .     S
C373   C376    1.525   .     S
C373   H374    1.112   .     S
C373   H843    1.110   .     S
H375   C1309   1.110   1_554 S
C376   H379    1.111   .     S
C376   H378    1.110   .     S
C376   H377    1.110   .     S
O380   C381    1.418   .     S
C381   H383    1.117   .     S
C381   H382    1.111   .     S
C381   C384    1.534   .     S
C384   H385    1.112   .     S
C384   H1088   1.110   1_554 S
C384   C465    1.527   .     S
H386   C1086   1.110   .     S
C387   H390    1.111   .     S
C387   H388    1.111   .     S
C387   H389    1.110   .     S
C391   C400    1.448   .     S
C391   O442    1.291   .     A
C391   O439    1.290   .     A
C392   O440    1.290   .     A
C392   O441    1.291   .     A
C392   C399    1.448   .     S
C393   C418    1.399   .     A
C393   H427    1.084   .     S
C393   C1121   1.397   1_554 S
C394   C417    1.400   .     A
C394   H428    1.084   .     S
C394   C1122   1.397   .     S
C395   H429    1.083   .     S
C395   C400    1.401   .     A
C396   C399    1.400   .     A
C396   H430    1.083   .     S
C396   C242    1.382   1_655 S
C397   H431    1.083   .     S
C397   C399    1.401   .     A
C397   C239    1.382   1_655 S
C398   H432    1.083   .     S
C398   C400    1.401   .     A
C401   H433    1.082   .     S
C401   N438    1.367   .     A
C402   N437    1.367   .     A
C402   H434    1.082   .     S
C402   C637    1.417   .     S
C403   N438    1.367   .     A
C403   H435    1.082   .     S
C404   H436    1.082   .     S
C404   N437    1.367   .     A
C404   C635    1.417   .     S
C405   O443    1.291   .     A
C405   C410    1.449   .     S
C405   O446    1.291   .     A
C406   O444    1.291   .     A
C406   O445    1.291   .     A
C406   C409    1.450   .     S
C407   H423    1.085   .     S
C407   C417    1.393   .     A
C407   C409    1.396   .     A
C408   C410    1.396   .     A
C408   C418    1.392   .     A
C408   H424    1.085   .     S
C409   C411    1.398   .     A
C410   C412    1.398   .     A
C411   C413    1.398   .     A
C411   H425    1.084   .     S
C412   H426    1.084   .     S
C412   C414    1.399   .     A
C413   C419    1.412   .     A
C413   C415    1.416   .     A
C414   C416    1.416   .     A
C414   C420    1.412   .     A
C415   C417    1.412   .     A
C415   C1118   1.403   .     S
C416   C418    1.412   .     A
C416   C1117   1.403   1_554 S
C419   O447    1.384   .     S
C419   C1095   1.397   .     S
C420   O458    1.385   .     S
C420   C1096   1.397   1_554 S
Cu421  N437    2.012   .     S
Cu421  O439    1.962   .     S
Cu421  O441    1.963   .     S
Cu421  Cu422   2.677   .     S
Cu421  O443    1.959   .     S
Cu421  O445    1.960   .     S
Cu422  O442    1.963   .     S
Cu422  N438    2.012   .     S
Cu422  O444    1.959   .     S
Cu422  O440    1.962   .     S
Cu422  O446    1.960   .     S
O447   C448    1.416   .     S
C448   H450    1.117   .     S
C448   H449    1.111   .     S
C448   C685    1.533   .     S
C451   C454    1.525   .     S
C451   H452    1.112   .     S
C451   H921    1.110   .     S
H453   C1387   1.110   1_554 S
C454   H457    1.111   .     S
C454   H456    1.110   .     S
C454   H455    1.110   .     S
O458   C459    1.418   .     S
C459   H461    1.117   .     S
C459   H460    1.111   .     S
C459   C462    1.534   .     S
C462   H463    1.112   .     S
C462   H1166   1.110   1_554 S
C462   C309    1.527   1_655 S
H464   C1164   1.110   .     S
C465   H468    1.111   .     S
C465   H466    1.111   .     S
C465   H467    1.110   .     S
C469   C478    1.448   .     S
C469   O520    1.291   .     A
C469   O517    1.290   .     A
C470   O518    1.290   .     A
C470   O519    1.291   .     A
C470   C477    1.448   .     S
C471   C496    1.399   .     A
C471   H505    1.084   .     S
C471   C1199   1.397   1_554 S
C472   C495    1.400   .     A
C472   H506    1.084   .     S
C472   C1200   1.397   .     S
C473   H507    1.083   .     S
C473   C478    1.401   .     A
C473   C631    1.382   1_455 S
C474   C477    1.400   .     A
C474   H508    1.083   .     S
C474   C554    1.382   .     S
C475   H509    1.083   .     S
C475   C477    1.401   .     A
C475   C551    1.382   .     S
C476   H510    1.083   .     S
C476   C478    1.401   .     A
C476   C630    1.382   1_455 S
C479   H511    1.082   .     S
C479   N516    1.367   .     A
C480   N515    1.367   .     A
C480   H512    1.082   .     S
C480   C13     1.417   1_565 S
C481   N516    1.367   .     A
C481   H513    1.082   .     S
C482   H514    1.082   .     S
C482   N515    1.367   .     A
C482   C11     1.417   1_565 S
C483   O521    1.291   .     A
C483   C488    1.449   .     S
C483   O524    1.291   .     A
C484   O522    1.291   .     A
C484   O523    1.291   .     A
C484   C487    1.450   .     S
C485   H501    1.085   .     S
C485   C495    1.393   .     A
C485   C487    1.396   .     A
C486   C488    1.396   .     A
C486   C496    1.392   .     A
C486   H502    1.085   .     S
C487   C489    1.398   .     A
C488   C490    1.398   .     A
C489   C491    1.398   .     A
C489   H503    1.084   .     S
C490   H504    1.084   .     S
C490   C492    1.399   .     A
C491   C497    1.412   .     A
C491   C493    1.416   .     A
C492   C494    1.416   .     A
C492   C498    1.412   .     A
C493   C495    1.412   .     A
C493   C1196   1.403   .     S
C494   C496    1.412   .     A
C494   C1195   1.403   1_554 S
C497   O525    1.384   .     S
C497   C1173   1.397   .     S
C498   O536    1.385   .     S
C498   C1174   1.397   1_554 S
Cu499  N515    2.012   .     S
Cu499  O517    1.962   .     S
Cu499  O519    1.963   .     S
Cu499  Cu500   2.677   .     S
Cu499  O521    1.959   .     S
Cu499  O523    1.960   .     S
Cu500  O520    1.963   .     S
Cu500  N516    2.012   .     S
Cu500  O522    1.959   .     S
Cu500  O518    1.962   .     S
Cu500  O524    1.960   .     S
O525   C526    1.416   .     S
C526   H528    1.117   .     S
C526   H527    1.111   .     S
C526   C61     1.533   1_565 S
C529   C532    1.525   .     S
C529   H530    1.112   .     S
C529   H999    1.110   .     S
H531   C763    1.110   1_564 S
C532   H535    1.111   .     S
C532   H534    1.110   .     S
C532   H533    1.110   .     S
O536   C537    1.418   .     S
C537   H539    1.117   .     S
C537   H538    1.111   .     S
C537   C540    1.534   .     S
C540   H541    1.112   .     S
C540   H1244   1.110   1_554 S
C540   C621    1.527   .     S
H542   C1242   1.110   .     S
C543   H546    1.111   .     S
C543   H544    1.111   .     S
C543   H545    1.110   .     S
C543   C696    1.527   1_455 S
C547   C556    1.448   .     S
C547   O598    1.291   .     A
C547   O595    1.290   .     A
C548   O596    1.290   .     A
C548   O597    1.291   .     A
C548   C555    1.448   .     S
C549   C574    1.399   .     A
C549   H583    1.084   .     S
C549   C1277   1.397   1_554 S
C550   C573    1.400   .     A
C550   H584    1.084   .     S
C550   C1278   1.397   .     S
C551   H585    1.083   .     S
C551   C556    1.401   .     A
C552   C555    1.400   .     A
C552   H586    1.083   .     S
C552   C632    1.382   .     S
C553   H587    1.083   .     S
C553   C555    1.401   .     A
C553   C629    1.382   .     S
C554   H588    1.083   .     S
C554   C556    1.401   .     A
C557   H589    1.082   .     S
C557   N594    1.367   .     A
C558   N593    1.367   .     A
C558   H590    1.082   .     S
C558   C91     1.417   1_565 S
C559   N594    1.367   .     A
C559   H591    1.082   .     S
C560   H592    1.082   .     S
C560   N593    1.367   .     A
C560   C89     1.417   1_565 S
C561   O599    1.291   .     A
C561   C566    1.449   .     S
C561   O602    1.291   .     A
C562   O600    1.291   .     A
C562   O601    1.291   .     A
C562   C565    1.450   .     S
C563   H579    1.085   .     S
C563   C573    1.393   .     A
C563   C565    1.396   .     A
C564   C566    1.396   .     A
C564   C574    1.392   .     A
C564   H580    1.085   .     S
C565   C567    1.398   .     A
C566   C568    1.398   .     A
C567   C569    1.398   .     A
C567   H581    1.084   .     S
C568   H582    1.084   .     S
C568   C570    1.399   .     A
C569   C575    1.412   .     A
C569   C571    1.416   .     A
C570   C572    1.416   .     A
C570   C576    1.412   .     A
C571   C573    1.412   .     A
C571   C1274   1.403   .     S
C572   C574    1.412   .     A
C572   C1273   1.403   1_554 S
C575   O603    1.384   .     S
C575   C1251   1.397   .     S
C576   O614    1.385   .     S
C576   C1252   1.397   1_554 S
Cu577  N593    2.012   .     S
Cu577  O595    1.962   .     S
Cu577  O597    1.963   .     S
Cu577  Cu578   2.677   .     S
Cu577  O599    1.959   .     S
Cu577  O601    1.960   .     S
Cu578  O598    1.963   .     S
Cu578  N594    2.012   .     S
Cu578  O600    1.959   .     S
Cu578  O596    1.962   .     S
Cu578  O602    1.960   .     S
O603   C604    1.416   .     S
C604   H606    1.117   .     S
C604   H605    1.111   .     S
C604   C139    1.533   1_565 S
C607   C610    1.525   .     S
C607   H608    1.112   .     S
C607   H1077   1.110   .     S
H609   C841    1.110   1_564 S
C610   H613    1.111   .     S
C610   H612    1.110   .     S
C610   H611    1.110   .     S
O614   C615    1.418   .     S
C615   H617    1.117   .     S
C615   H616    1.111   .     S
C615   C618    1.534   .     S
C618   H619    1.112   .     S
C618   H1322   1.110   1_554 S
C618   C699    1.527   .     S
H620   C1320   1.110   .     S
C621   H624    1.111   .     S
C621   H622    1.111   .     S
C621   H623    1.110   .     S
C625   C634    1.448   .     S
C625   O676    1.291   .     A
C625   O673    1.290   .     A
C626   O674    1.290   .     A
C626   O675    1.291   .     A
C626   C633    1.448   .     S
C627   C652    1.399   .     A
C627   H661    1.084   .     S
C627   C1355   1.397   1_554 S
C628   C651    1.400   .     A
C628   H662    1.084   .     S
C628   C1356   1.397   .     S
C629   H663    1.083   .     S
C629   C634    1.401   .     A
C630   C633    1.400   .     A
C630   H664    1.083   .     S
C630   C476    1.382   1_655 S
C631   H665    1.083   .     S
C631   C633    1.401   .     A
C631   C473    1.382   1_655 S
C632   H666    1.083   .     S
C632   C634    1.401   .     A
C635   H667    1.082   .     S
C635   N672    1.367   .     A
C636   N671    1.367   .     A
C636   H668    1.082   .     S
C636   C169    1.417   1_565 S
C637   N672    1.367   .     A
C637   H669    1.082   .     S
C638   H670    1.082   .     S
C638   N671    1.367   .     A
C638   C167    1.417   1_565 S
C639   O677    1.291   .     A
C639   C644    1.449   .     S
C639   O680    1.291   .     A
C640   O678    1.291   .     A
C640   O679    1.291   .     A
C640   C643    1.450   .     S
C641   H657    1.085   .     S
C641   C651    1.393   .     A
C641   C643    1.396   .     A
C642   C644    1.396   .     A
C642   C652    1.392   .     A
C642   H658    1.085   .     S
C643   C645    1.398   .     A
C644   C646    1.398   .     A
C645   C647    1.398   .     A
C645   H659    1.084   .     S
C646   H660    1.084   .     S
C646   C648    1.399   .     A
C647   C653    1.412   .     A
C647   C649    1.416   .     A
C648   C650    1.416   .     A
C648   C654    1.412   .     A
C649   C651    1.412   .     A
C649   C1352   1.403   .     S
C650   C652    1.412   .     A
C650   C1351   1.403   1_554 S
C653   O681    1.384   .     S
C653   C1329   1.397   .     S
C654   O692    1.385   .     S
C654   C1330   1.397   1_554 S
Cu655  N671    2.012   .     S
Cu655  O673    1.962   .     S
Cu655  O675    1.963   .     S
Cu655  Cu656   2.677   .     S
Cu655  O677    1.959   .     S
Cu655  O679    1.960   .     S
Cu656  O676    1.963   .     S
Cu656  N672    2.012   .     S
Cu656  O678    1.959   .     S
Cu656  O674    1.962   .     S
Cu656  O680    1.960   .     S
O681   C682    1.416   .     S
C682   H684    1.117   .     S
C682   H683    1.111   .     S
C682   C217    1.533   1_565 S
C685   C688    1.525   .     S
C685   H686    1.112   .     S
C685   H1155   1.110   .     S
H687   C919    1.110   1_564 S
C688   H691    1.111   .     S
C688   H690    1.110   .     S
C688   H689    1.110   .     S
O692   C693    1.418   .     S
C693   H695    1.117   .     S
C693   H694    1.111   .     S
C693   C696    1.534   .     S
C696   H697    1.112   .     S
C696   H1400   1.110   1_554 S
C696   C543    1.527   1_655 S
H698   C1398   1.110   .     S
C699   H702    1.111   .     S
C699   H700    1.111   .     S
C699   H701    1.110   .     S
C703   C712    1.448   .     S
C703   O754    1.291   .     A
C703   O751    1.290   .     A
C704   O752    1.290   .     A
C704   O753    1.291   .     A
C704   C711    1.448   .     S
C705   C730    1.399   .     A
C705   H739    1.084   .     S
C706   C729    1.400   .     A
C706   H740    1.084   .     S
C706   C30     1.397   1_556 S
C707   H741    1.083   .     S
C707   C712    1.401   .     A
C707   C865    1.382   1_455 S
C708   C711    1.400   .     A
C708   H742    1.083   .     S
C708   C788    1.382   .     S
C709   H743    1.083   .     S
C709   C711    1.401   .     A
C709   C785    1.382   .     S
C710   H744    1.083   .     S
C710   C712    1.401   .     A
C710   C864    1.382   1_455 S
C713   H745    1.082   .     S
C713   N750    1.367   .     A
C713   C1184   1.417   1_545 S
C714   N749    1.367   .     A
C714   H746    1.082   .     S
C714   C949    1.417   .     S
C715   N750    1.367   .     A
C715   H747    1.082   .     S
C715   C1182   1.417   1_545 S
C716   H748    1.082   .     S
C716   N749    1.367   .     A
C716   C947    1.417   .     S
C717   O755    1.291   .     A
C717   C722    1.449   .     S
C717   O758    1.291   .     A
C718   O756    1.291   .     A
C718   O757    1.291   .     A
C718   C721    1.450   .     S
C719   H735    1.085   .     S
C719   C729    1.393   .     A
C719   C721    1.396   .     A
C720   C722    1.396   .     A
C720   C730    1.392   .     A
C720   H736    1.085   .     S
C721   C723    1.398   .     A
C722   C724    1.398   .     A
C723   C725    1.398   .     A
C723   H737    1.084   .     S
C724   H738    1.084   .     S
C724   C726    1.399   .     A
C725   C731    1.412   .     A
C725   C727    1.416   .     A
C726   C728    1.416   .     A
C726   C732    1.412   .     A
C727   C729    1.412   .     A
C727   C26     1.403   1_556 S
C728   C730    1.412   .     A
C731   O759    1.384   .     S
C731   C3      1.397   1_556 S
C732   O770    1.385   .     S
Cu733  N749    2.012   .     S
Cu733  O751    1.962   .     S
Cu733  O753    1.963   .     S
Cu733  Cu734   2.677   .     S
Cu733  O755    1.959   .     S
Cu733  O757    1.960   .     S
Cu734  O754    1.963   .     S
Cu734  N750    2.012   .     S
Cu734  O756    1.959   .     S
Cu734  O752    1.962   .     S
Cu734  O758    1.960   .     S
O759   C760    1.416   .     S
C760   H762    1.117   .     S
C760   H761    1.111   .     S
C760   C997    1.533   .     S
C763   C766    1.525   .     S
C763   H764    1.112   .     S
C763   C1228   1.533   1_545 S
C763   H531    1.110   1_546 S
C766   H769    1.111   .     S
C766   H768    1.110   .     S
C766   H767    1.110   .     S
O770   C771    1.418   .     S
C771   H773    1.117   .     S
C771   H772    1.111   .     S
C771   C774    1.534   .     S
C774   H775    1.112   .     S
C774   C855    1.527   .     S
H776   C72     1.110   1_556 S
C777   H780    1.111   .     S
C777   H778    1.111   .     S
C777   H779    1.110   .     S
C777   C930    1.527   1_455 S
C781   C790    1.448   .     S
C781   O832    1.291   .     A
C781   O829    1.290   .     A
C782   O830    1.290   .     A
C782   O831    1.291   .     A
C782   C789    1.448   .     S
C783   C808    1.399   .     A
C783   H817    1.084   .     S
C784   C807    1.400   .     A
C784   H818    1.084   .     S
C784   C108    1.397   1_556 S
C785   H819    1.083   .     S
C785   C790    1.401   .     A
C786   C789    1.400   .     A
C786   H820    1.083   .     S
C786   C866    1.382   .     S
C787   H821    1.083   .     S
C787   C789    1.401   .     A
C787   C863    1.382   .     S
C788   H822    1.083   .     S
C788   C790    1.401   .     A
C791   H823    1.082   .     S
C791   N828    1.367   .     A
C791   C1262   1.417   1_545 S
C792   N827    1.367   .     A
C792   H824    1.082   .     S
C792   C1027   1.417   .     S
C793   N828    1.367   .     A
C793   H825    1.082   .     S
C793   C1260   1.417   1_545 S
C794   H826    1.082   .     S
C794   N827    1.367   .     A
C794   C1025   1.417   .     S
C795   O833    1.291   .     A
C795   C800    1.449   .     S
C795   O836    1.291   .     A
C796   O834    1.291   .     A
C796   O835    1.291   .     A
C796   C799    1.450   .     S
C797   H813    1.085   .     S
C797   C807    1.393   .     A
C797   C799    1.396   .     A
C798   C800    1.396   .     A
C798   C808    1.392   .     A
C798   H814    1.085   .     S
C799   C801    1.398   .     A
C800   C802    1.398   .     A
C801   C803    1.398   .     A
C801   H815    1.084   .     S
C802   H816    1.084   .     S
C802   C804    1.399   .     A
C803   C809    1.412   .     A
C803   C805    1.416   .     A
C804   C806    1.416   .     A
C804   C810    1.412   .     A
C805   C807    1.412   .     A
C805   C104    1.403   1_556 S
C806   C808    1.412   .     A
C809   O837    1.384   .     S
C809   C81     1.397   1_556 S
C810   O848    1.385   .     S
Cu811  N827    2.012   .     S
Cu811  O829    1.962   .     S
Cu811  O831    1.963   .     S
Cu811  Cu812   2.677   .     S
Cu811  O833    1.959   .     S
Cu811  O835    1.960   .     S
Cu812  O832    1.963   .     S
Cu812  N828    2.012   .     S
Cu812  O834    1.959   .     S
Cu812  O830    1.962   .     S
Cu812  O836    1.960   .     S
O837   C838    1.416   .     S
C838   H840    1.117   .     S
C838   H839    1.111   .     S
C838   C1075   1.533   .     S
C841   C844    1.525   .     S
C841   H842    1.112   .     S
C841   C1306   1.533   1_545 S
C841   H609    1.110   1_546 S
C844   H847    1.111   .     S
C844   H846    1.110   .     S
C844   H845    1.110   .     S
O848   C849    1.418   .     S
C849   H851    1.117   .     S
C849   H850    1.111   .     S
C849   C852    1.534   .     S
C852   H853    1.112   .     S
C852   C933    1.527   .     S
H854   C150    1.110   1_556 S
C855   H858    1.111   .     S
C855   H856    1.111   .     S
C855   H857    1.110   .     S
C859   C868    1.448   .     S
C859   O910    1.291   .     A
C859   O907    1.290   .     A
C860   O908    1.290   .     A
C860   O909    1.291   .     A
C860   C867    1.448   .     S
C861   C886    1.399   .     A
C861   H895    1.084   .     S
C862   C885    1.400   .     A
C862   H896    1.084   .     S
C862   C186    1.397   1_556 S
C863   H897    1.083   .     S
C863   C868    1.401   .     A
C864   C867    1.400   .     A
C864   H898    1.083   .     S
C864   C710    1.382   1_655 S
C865   H899    1.083   .     S
C865   C867    1.401   .     A
C865   C707    1.382   1_655 S
C866   H900    1.083   .     S
C866   C868    1.401   .     A
C869   H901    1.082   .     S
C869   N906    1.367   .     A
C869   C1340   1.417   1_545 S
C870   N905    1.367   .     A
C870   H902    1.082   .     S
C870   C1105   1.417   .     S
C871   N906    1.367   .     A
C871   H903    1.082   .     S
C871   C1338   1.417   1_545 S
C872   H904    1.082   .     S
C872   N905    1.367   .     A
C872   C1103   1.417   .     S
C873   O911    1.291   .     A
C873   C878    1.449   .     S
C873   O914    1.291   .     A
C874   O912    1.291   .     A
C874   O913    1.291   .     A
C874   C877    1.450   .     S
C875   H891    1.085   .     S
C875   C885    1.393   .     A
C875   C877    1.396   .     A
C876   C878    1.396   .     A
C876   C886    1.392   .     A
C876   H892    1.085   .     S
C877   C879    1.398   .     A
C878   C880    1.398   .     A
C879   C881    1.398   .     A
C879   H893    1.084   .     S
C880   H894    1.084   .     S
C880   C882    1.399   .     A
C881   C887    1.412   .     A
C881   C883    1.416   .     A
C882   C884    1.416   .     A
C882   C888    1.412   .     A
C883   C885    1.412   .     A
C883   C182    1.403   1_556 S
C884   C886    1.412   .     A
C887   O915    1.384   .     S
C887   C159    1.397   1_556 S
C888   O926    1.385   .     S
Cu889  N905    2.012   .     S
Cu889  O907    1.962   .     S
Cu889  O909    1.963   .     S
Cu889  Cu890   2.677   .     S
Cu889  O911    1.959   .     S
Cu889  O913    1.960   .     S
Cu890  O910    1.963   .     S
Cu890  N906    2.012   .     S
Cu890  O912    1.959   .     S
Cu890  O908    1.962   .     S
Cu890  O914    1.960   .     S
O915   C916    1.416   .     S
C916   H918    1.117   .     S
C916   H917    1.111   .     S
C916   C1153   1.533   .     S
C919   C922    1.525   .     S
C919   H920    1.112   .     S
C919   C1384   1.533   1_545 S
C919   H687    1.110   1_546 S
C922   H925    1.111   .     S
C922   H924    1.110   .     S
C922   H923    1.110   .     S
O926   C927    1.418   .     S
C927   H929    1.117   .     S
C927   H928    1.111   .     S
C927   C930    1.534   .     S
C930   H931    1.112   .     S
C930   C777    1.527   1_655 S
H932   C228    1.110   1_556 S
C933   H936    1.111   .     S
C933   H934    1.111   .     S
C933   H935    1.110   .     S
C937   C946    1.448   .     S
C937   O988    1.291   .     A
C937   O985    1.290   .     A
C938   O986    1.290   .     A
C938   O987    1.291   .     A
C938   C945    1.448   .     S
C939   C964    1.399   .     A
C939   H973    1.084   .     S
C940   C963    1.400   .     A
C940   H974    1.084   .     S
C940   C264    1.397   1_556 S
C941   H975    1.083   .     S
C941   C946    1.401   .     A
C941   C1099   1.382   1_455 S
C942   C945    1.400   .     A
C942   H976    1.083   .     S
C942   C1022   1.382   .     S
C943   H977    1.083   .     S
C943   C945    1.401   .     A
C943   C1019   1.382   .     S
C944   H978    1.083   .     S
C944   C946    1.401   .     A
C944   C1098   1.382   1_455 S
C947   H979    1.082   .     S
C947   N984    1.367   .     A
C948   N983    1.367   .     A
C948   H980    1.082   .     S
C948   C1183   1.417   .     S
C949   N984    1.367   .     A
C949   H981    1.082   .     S
C950   H982    1.082   .     S
C950   N983    1.367   .     A
C950   C1181   1.417   .     S
C951   O989    1.291   .     A
C951   C956    1.449   .     S
C951   O992    1.291   .     A
C952   O990    1.291   .     A
C952   O991    1.291   .     A
C952   C955    1.450   .     S
C953   H969    1.085   .     S
C953   C963    1.393   .     A
C953   C955    1.396   .     A
C954   C956    1.396   .     A
C954   C964    1.392   .     A
C954   H970    1.085   .     S
C955   C957    1.398   .     A
C956   C958    1.398   .     A
C957   C959    1.398   .     A
C957   H971    1.084   .     S
C958   H972    1.084   .     S
C958   C960    1.399   .     A
C959   C965    1.412   .     A
C959   C961    1.416   .     A
C960   C962    1.416   .     A
C960   C966    1.412   .     A
C961   C963    1.412   .     A
C961   C260    1.403   1_556 S
C962   C964    1.412   .     A
C965   O993    1.384   .     S
C965   C237    1.397   1_556 S
C966   O1004   1.385   .     S
Cu967  N983    2.012   .     S
Cu967  O985    1.962   .     S
Cu967  O987    1.963   .     S
Cu967  Cu968   2.677   .     S
Cu967  O989    1.959   .     S
Cu967  O991    1.960   .     S
Cu968  O988    1.963   .     S
Cu968  N984    2.012   .     S
Cu968  O990    1.959   .     S
Cu968  O986    1.962   .     S
Cu968  O992    1.960   .     S
O993   C994    1.416   .     S
C994   H996    1.117   .     S
C994   H995    1.111   .     S
C994   C1231   1.533   .     S
C997   C1000   1.525   .     S
C997   H998    1.112   .     S
C997   H63     1.110   1_556 S
C1000  H1003   1.111   .     S
C1000  H1002   1.110   .     S
C1000  H1001   1.110   .     S
O1004  C1005   1.418   .     S
C1005  H1007   1.117   .     S
C1005  H1006   1.111   .     S
C1005  C1008   1.534   .     S
C1008  H1009   1.112   .     S
C1008  C1089   1.527   .     S
H1010  C306    1.110   1_556 S
C1011  H1014   1.111   .     S
C1011  H1012   1.111   .     S
C1011  H1013   1.110   .     S
C1011  C1164   1.527   1_455 S
C1015  C1024   1.448   .     S
C1015  O1066   1.291   .     A
C1015  O1063   1.290   .     A
C1016  O1064   1.290   .     A
C1016  O1065   1.291   .     A
C1016  C1023   1.448   .     S
C1017  C1042   1.399   .     A
C1017  H1051   1.084   .     S
C1018  C1041   1.400   .     A
C1018  H1052   1.084   .     S
C1018  C342    1.397   1_556 S
C1019  H1053   1.083   .     S
C1019  C1024   1.401   .     A
C1020  C1023   1.400   .     A
C1020  H1054   1.083   .     S
C1020  C1100   1.382   .     S
C1021  H1055   1.083   .     S
C1021  C1023   1.401   .     A
C1021  C1097   1.382   .     S
C1022  H1056   1.083   .     S
C1022  C1024   1.401   .     A
C1025  H1057   1.082   .     S
C1025  N1062   1.367   .     A
C1026  N1061   1.367   .     A
C1026  H1058   1.082   .     S
C1026  C1261   1.417   .     S
C1027  N1062   1.367   .     A
C1027  H1059   1.082   .     S
C1028  H1060   1.082   .     S
C1028  N1061   1.367   .     A
C1028  C1259   1.417   .     S
C1029  O1067   1.291   .     A
C1029  C1034   1.449   .     S
C1029  O1070   1.291   .     A
C1030  O1068   1.291   .     A
C1030  O1069   1.291   .     A
C1030  C1033   1.450   .     S
C1031  H1047   1.085   .     S
C1031  C1041   1.393   .     A
C1031  C1033   1.396   .     A
C1032  C1034   1.396   .     A
C1032  C1042   1.392   .     A
C1032  H1048   1.085   .     S
C1033  C1035   1.398   .     A
C1034  C1036   1.398   .     A
C1035  C1037   1.398   .     A
C1035  H1049   1.084   .     S
C1036  H1050   1.084   .     S
C1036  C1038   1.399   .     A
C1037  C1043   1.412   .     A
C1037  C1039   1.416   .     A
C1038  C1040   1.416   .     A
C1038  C1044   1.412   .     A
C1039  C1041   1.412   .     A
C1039  C338    1.403   1_556 S
C1040  C1042   1.412   .     A
C1043  O1071   1.384   .     S
C1043  C315    1.397   1_556 S
C1044  O1082   1.385   .     S
Cu1045 N1061   2.012   .     S
Cu1045 O1063   1.962   .     S
Cu1045 O1065   1.963   .     S
Cu1045 Cu1046  2.677   .     S
Cu1045 O1067   1.959   .     S
Cu1045 O1069   1.960   .     S
Cu1046 O1066   1.963   .     S
Cu1046 N1062   2.012   .     S
Cu1046 O1068   1.959   .     S
Cu1046 O1064   1.962   .     S
Cu1046 O1070   1.960   .     S
O1071  C1072   1.416   .     S
C1072  H1074   1.117   .     S
C1072  H1073   1.111   .     S
C1072  C1309   1.533   .     S
C1075  C1078   1.525   .     S
C1075  H1076   1.112   .     S
C1075  H141    1.110   1_556 S
C1078  H1081   1.111   .     S
C1078  H1080   1.110   .     S
C1078  H1079   1.110   .     S
O1082  C1083   1.418   .     S
C1083  H1085   1.117   .     S
C1083  H1084   1.111   .     S
C1083  C1086   1.534   .     S
C1086  H1087   1.112   .     S
C1086  C1167   1.527   .     S
H1088  C384    1.110   1_556 S
C1089  H1092   1.111   .     S
C1089  H1090   1.111   .     S
C1089  H1091   1.110   .     S
C1093  C1102   1.448   .     S
C1093  O1144   1.291   .     A
C1093  O1141   1.290   .     A
C1094  O1142   1.290   .     A
C1094  O1143   1.291   .     A
C1094  C1101   1.448   .     S
C1095  C1120   1.399   .     A
C1095  H1129   1.084   .     S
C1096  C1119   1.400   .     A
C1096  H1130   1.084   .     S
C1096  C420    1.397   1_556 S
C1097  H1131   1.083   .     S
C1097  C1102   1.401   .     A
C1098  C1101   1.400   .     A
C1098  H1132   1.083   .     S
C1098  C944    1.382   1_655 S
C1099  H1133   1.083   .     S
C1099  C1101   1.401   .     A
C1099  C941    1.382   1_655 S
C1100  H1134   1.083   .     S
C1100  C1102   1.401   .     A
C1103  H1135   1.082   .     S
C1103  N1140   1.367   .     A
C1104  N1139   1.367   .     A
C1104  H1136   1.082   .     S
C1104  C1339   1.417   .     S
C1105  N1140   1.367   .     A
C1105  H1137   1.082   .     S
C1106  H1138   1.082   .     S
C1106  N1139   1.367   .     A
C1106  C1337   1.417   .     S
C1107  O1145   1.291   .     A
C1107  C1112   1.449   .     S
C1107  O1148   1.291   .     A
C1108  O1146   1.291   .     A
C1108  O1147   1.291   .     A
C1108  C1111   1.450   .     S
C1109  H1125   1.085   .     S
C1109  C1119   1.393   .     A
C1109  C1111   1.396   .     A
C1110  C1112   1.396   .     A
C1110  C1120   1.392   .     A
C1110  H1126   1.085   .     S
C1111  C1113   1.398   .     A
C1112  C1114   1.398   .     A
C1113  C1115   1.398   .     A
C1113  H1127   1.084   .     S
C1114  H1128   1.084   .     S
C1114  C1116   1.399   .     A
C1115  C1121   1.412   .     A
C1115  C1117   1.416   .     A
C1116  C1118   1.416   .     A
C1116  C1122   1.412   .     A
C1117  C1119   1.412   .     A
C1117  C416    1.403   1_556 S
C1118  C1120   1.412   .     A
C1121  O1149   1.384   .     S
C1121  C393    1.397   1_556 S
C1122  O1160   1.385   .     S
Cu1123 N1139   2.012   .     S
Cu1123 O1141   1.962   .     S
Cu1123 O1143   1.963   .     S
Cu1123 Cu1124  2.677   .     S
Cu1123 O1145   1.959   .     S
Cu1123 O1147   1.960   .     S
Cu1124 O1144   1.963   .     S
Cu1124 N1140   2.012   .     S
Cu1124 O1146   1.959   .     S
Cu1124 O1142   1.962   .     S
Cu1124 O1148   1.960   .     S
O1149  C1150   1.416   .     S
C1150  H1152   1.117   .     S
C1150  H1151   1.111   .     S
C1150  C1387   1.533   .     S
C1153  C1156   1.525   .     S
C1153  H1154   1.112   .     S
C1153  H219    1.110   1_556 S
C1156  H1159   1.111   .     S
C1156  H1158   1.110   .     S
C1156  H1157   1.110   .     S
O1160  C1161   1.418   .     S
C1161  H1163   1.117   .     S
C1161  H1162   1.111   .     S
C1161  C1164   1.534   .     S
C1164  H1165   1.112   .     S
C1164  C1011   1.527   1_655 S
H1166  C462    1.110   1_556 S
C1167  H1170   1.111   .     S
C1167  H1168   1.111   .     S
C1167  H1169   1.110   .     S
C1171  C1180   1.448   .     S
C1171  O1222   1.291   .     A
C1171  O1219   1.290   .     A
C1172  O1220   1.290   .     A
C1172  O1221   1.291   .     A
C1172  C1179   1.448   .     S
C1173  C1198   1.399   .     A
C1173  H1207   1.084   .     S
C1174  C1197   1.400   .     A
C1174  H1208   1.084   .     S
C1174  C498    1.397   1_556 S
C1175  H1209   1.083   .     S
C1175  C1180   1.401   .     A
C1175  C1333   1.382   1_455 S
C1176  C1179   1.400   .     A
C1176  H1210   1.083   .     S
C1176  C1256   1.382   .     S
C1177  H1211   1.083   .     S
C1177  C1179   1.401   .     A
C1177  C1253   1.382   .     S
C1178  H1212   1.083   .     S
C1178  C1180   1.401   .     A
C1178  C1332   1.382   1_455 S
C1181  H1213   1.082   .     S
C1181  N1218   1.367   .     A
C1182  N1217   1.367   .     A
C1182  H1214   1.082   .     S
C1182  C715    1.417   1_565 S
C1183  N1218   1.367   .     A
C1183  H1215   1.082   .     S
C1184  H1216   1.082   .     S
C1184  N1217   1.367   .     A
C1184  C713    1.417   1_565 S
C1185  O1223   1.291   .     A
C1185  C1190   1.449   .     S
C1185  O1226   1.291   .     A
C1186  O1224   1.291   .     A
C1186  O1225   1.291   .     A
C1186  C1189   1.450   .     S
C1187  H1203   1.085   .     S
C1187  C1197   1.393   .     A
C1187  C1189   1.396   .     A
C1188  C1190   1.396   .     A
C1188  C1198   1.392   .     A
C1188  H1204   1.085   .     S
C1189  C1191   1.398   .     A
C1190  C1192   1.398   .     A
C1191  C1193   1.398   .     A
C1191  H1205   1.084   .     S
C1192  H1206   1.084   .     S
C1192  C1194   1.399   .     A
C1193  C1199   1.412   .     A
C1193  C1195   1.416   .     A
C1194  C1196   1.416   .     A
C1194  C1200   1.412   .     A
C1195  C1197   1.412   .     A
C1195  C494    1.403   1_556 S
C1196  C1198   1.412   .     A
C1199  O1227   1.384   .     S
C1199  C471    1.397   1_556 S
C1200  O1238   1.385   .     S
Cu1201 N1217   2.012   .     S
Cu1201 O1219   1.962   .     S
Cu1201 O1221   1.963   .     S
Cu1201 Cu1202  2.677   .     S
Cu1201 O1223   1.959   .     S
Cu1201 O1225   1.960   .     S
Cu1202 O1222   1.963   .     S
Cu1202 N1218   2.012   .     S
Cu1202 O1224   1.959   .     S
Cu1202 O1220   1.962   .     S
Cu1202 O1226   1.960   .     S
O1227  C1228   1.416   .     S
C1228  H1230   1.117   .     S
C1228  H1229   1.111   .     S
C1228  C763    1.533   1_565 S
C1231  C1234   1.525   .     S
C1231  H1232   1.112   .     S
C1231  H297    1.110   1_556 S
H1233  C61     1.110   1_565 S
C1234  H1237   1.111   .     S
C1234  H1236   1.110   .     S
C1234  H1235   1.110   .     S
O1238  C1239   1.418   .     S
C1239  H1241   1.117   .     S
C1239  H1240   1.111   .     S
C1239  C1242   1.534   .     S
C1242  H1243   1.112   .     S
C1242  C1323   1.527   .     S
H1244  C540    1.110   1_556 S
C1245  H1248   1.111   .     S
C1245  H1246   1.111   .     S
C1245  H1247   1.110   .     S
C1245  C1398   1.527   1_455 S
C1249  C1258   1.448   .     S
C1249  O1300   1.291   .     A
C1249  O1297   1.290   .     A
C1250  O1298   1.290   .     A
C1250  O1299   1.291   .     A
C1250  C1257   1.448   .     S
C1251  C1276   1.399   .     A
C1251  H1285   1.084   .     S
C1252  C1275   1.400   .     A
C1252  H1286   1.084   .     S
C1252  C576    1.397   1_556 S
C1253  H1287   1.083   .     S
C1253  C1258   1.401   .     A
C1254  C1257   1.400   .     A
C1254  H1288   1.083   .     S
C1254  C1334   1.382   .     S
C1255  H1289   1.083   .     S
C1255  C1257   1.401   .     A
C1255  C1331   1.382   .     S
C1256  H1290   1.083   .     S
C1256  C1258   1.401   .     A
C1259  H1291   1.082   .     S
C1259  N1296   1.367   .     A
C1260  N1295   1.367   .     A
C1260  H1292   1.082   .     S
C1260  C793    1.417   1_565 S
C1261  N1296   1.367   .     A
C1261  H1293   1.082   .     S
C1262  H1294   1.082   .     S
C1262  N1295   1.367   .     A
C1262  C791    1.417   1_565 S
C1263  O1301   1.291   .     A
C1263  C1268   1.449   .     S
C1263  O1304   1.291   .     A
C1264  O1302   1.291   .     A
C1264  O1303   1.291   .     A
C1264  C1267   1.450   .     S
C1265  H1281   1.085   .     S
C1265  C1275   1.393   .     A
C1265  C1267   1.396   .     A
C1266  C1268   1.396   .     A
C1266  C1276   1.392   .     A
C1266  H1282   1.085   .     S
C1267  C1269   1.398   .     A
C1268  C1270   1.398   .     A
C1269  C1271   1.398   .     A
C1269  H1283   1.084   .     S
C1270  H1284   1.084   .     S
C1270  C1272   1.399   .     A
C1271  C1277   1.412   .     A
C1271  C1273   1.416   .     A
C1272  C1274   1.416   .     A
C1272  C1278   1.412   .     A
C1273  C1275   1.412   .     A
C1273  C572    1.403   1_556 S
C1274  C1276   1.412   .     A
C1277  O1305   1.384   .     S
C1277  C549    1.397   1_556 S
C1278  O1316   1.385   .     S
Cu1279 N1295   2.012   .     S
Cu1279 O1297   1.962   .     S
Cu1279 O1299   1.963   .     S
Cu1279 Cu1280  2.677   .     S
Cu1279 O1301   1.959   .     S
Cu1279 O1303   1.960   .     S
Cu1280 O1300   1.963   .     S
Cu1280 N1296   2.012   .     S
Cu1280 O1302   1.959   .     S
Cu1280 O1298   1.962   .     S
Cu1280 O1304   1.960   .     S
O1305  C1306   1.416   .     S
C1306  H1308   1.117   .     S
C1306  H1307   1.111   .     S
C1306  C841    1.533   1_565 S
C1309  C1312   1.525   .     S
C1309  H1310   1.112   .     S
C1309  H375    1.110   1_556 S
H1311  C139    1.110   1_565 S
C1312  H1315   1.111   .     S
C1312  H1314   1.110   .     S
C1312  H1313   1.110   .     S
O1316  C1317   1.418   .     S
C1317  H1319   1.117   .     S
C1317  H1318   1.111   .     S
C1317  C1320   1.534   .     S
C1320  H1321   1.112   .     S
C1320  C1401   1.527   .     S
H1322  C618    1.110   1_556 S
C1323  H1326   1.111   .     S
C1323  H1324   1.111   .     S
C1323  H1325   1.110   .     S
C1327  C1336   1.448   .     S
C1327  O1378   1.291   .     A
C1327  O1375   1.290   .     A
C1328  O1376   1.290   .     A
C1328  O1377   1.291   .     A
C1328  C1335   1.448   .     S
C1329  C1354   1.399   .     A
C1329  H1363   1.084   .     S
C1330  C1353   1.400   .     A
C1330  H1364   1.084   .     S
C1330  C654    1.397   1_556 S
C1331  H1365   1.083   .     S
C1331  C1336   1.401   .     A
C1332  C1335   1.400   .     A
C1332  H1366   1.083   .     S
C1332  C1178   1.382   1_655 S
C1333  H1367   1.083   .     S
C1333  C1335   1.401   .     A
C1333  C1175   1.382   1_655 S
C1334  H1368   1.083   .     S
C1334  C1336   1.401   .     A
C1337  H1369   1.082   .     S
C1337  N1374   1.367   .     A
C1338  N1373   1.367   .     A
C1338  H1370   1.082   .     S
C1338  C871    1.417   1_565 S
C1339  N1374   1.367   .     A
C1339  H1371   1.082   .     S
C1340  H1372   1.082   .     S
C1340  N1373   1.367   .     A
C1340  C869    1.417   1_565 S
C1341  O1379   1.291   .     A
C1341  C1346   1.449   .     S
C1341  O1382   1.291   .     A
C1342  O1380   1.291   .     A
C1342  O1381   1.291   .     A
C1342  C1345   1.450   .     S
C1343  H1359   1.085   .     S
C1343  C1353   1.393   .     A
C1343  C1345   1.396   .     A
C1344  C1346   1.396   .     A
C1344  C1354   1.392   .     A
C1344  H1360   1.085   .     S
C1345  C1347   1.398   .     A
C1346  C1348   1.398   .     A
C1347  C1349   1.398   .     A
C1347  H1361   1.084   .     S
C1348  H1362   1.084   .     S
C1348  C1350   1.399   .     A
C1349  C1355   1.412   .     A
C1349  C1351   1.416   .     A
C1350  C1352   1.416   .     A
C1350  C1356   1.412   .     A
C1351  C1353   1.412   .     A
C1351  C650    1.403   1_556 S
C1352  C1354   1.412   .     A
C1355  O1383   1.384   .     S
C1355  C627    1.397   1_556 S
C1356  O1394   1.385   .     S
Cu1357 N1373   2.012   .     S
Cu1357 O1375   1.962   .     S
Cu1357 O1377   1.963   .     S
Cu1357 Cu1358  2.677   .     S
Cu1357 O1379   1.959   .     S
Cu1357 O1381   1.960   .     S
Cu1358 O1378   1.963   .     S
Cu1358 N1374   2.012   .     S
Cu1358 O1380   1.959   .     S
Cu1358 O1376   1.962   .     S
Cu1358 O1382   1.960   .     S
O1383  C1384   1.416   .     S
C1384  H1386   1.117   .     S
C1384  H1385   1.111   .     S
C1384  C919    1.533   1_565 S
C1387  C1390   1.525   .     S
C1387  H1388   1.112   .     S
C1387  H453    1.110   1_556 S
H1389  C217    1.110   1_565 S
C1390  H1393   1.111   .     S
C1390  H1392   1.110   .     S
C1390  H1391   1.110   .     S
O1394  C1395   1.418   .     S
C1395  H1397   1.117   .     S
C1395  H1396   1.111   .     S
C1395  C1398   1.534   .     S
C1398  H1399   1.112   .     S
C1398  C1245   1.527   1_655 S
H1400  C696    1.110   1_556 S
C1401  H1404   1.111   .     S
C1401  H1402   1.111   .     S
C1401  H1403   1.110   .     S
