data_str_m2_o10_o17_pcu_sym.97
_audit_creation_date              2020-01-03
_audit_creation_method            'Materials Studio'
_symmetry_space_group_name_H-M    'P1'
_symmetry_Int_Tables_number       1
_symmetry_cell_setting            triclinic
loop_
_symmetry_equiv_pos_as_xyz
  x,y,z
_cell_length_a                    30.0741
_cell_length_b                    26.0064
_cell_length_c                    22.3535
_cell_angle_alpha                 102.8953
_cell_angle_beta                  93.9126
_cell_angle_gamma                 92.4412
loop_
_atom_site_label
_atom_site_type_symbol
_atom_site_fract_x
_atom_site_fract_y
_atom_site_fract_z
_atom_site_U_iso_or_equiv
_atom_site_adp_type
_atom_site_occupancy
C1     C     0.24856   0.06659   0.15111   0.00000  Uiso   1.00
C2     C     0.25144   0.26674   0.18222   0.00000  Uiso   1.00
C3     C     0.01744   0.07143   0.12512   0.00000  Uiso   1.00
C4     C     0.48256   0.26190   0.20821   0.00000  Uiso   1.00
C5     C     0.24779   0.01060   0.14236   0.00000  Uiso   1.00
C6     C     0.25221   0.32273   0.19097   0.00000  Uiso   1.00
C7     C     0.16473   0.16656   0.16763   0.00000  Uiso   1.00
C8     C     0.33527   0.16677   0.16570   0.00000  Uiso   1.00
C9     C     0.40908   0.21477   0.18557   0.00000  Uiso   1.00
C10    C     0.09092   0.11856   0.14777   0.00000  Uiso   1.00
C11    C     0.38338   0.16702   0.16366   0.00000  Uiso   1.00
C12    C     0.11662   0.16632   0.16968   0.00000  Uiso   1.00
C13    C     0.40339   0.11927   0.14194   0.00000  Uiso   1.00
C14    C     0.09661   0.21406   0.19139   0.00000  Uiso   1.00
C15    C     0.45017   0.11890   0.14339   0.00000  Uiso   1.00
C16    C     0.04982   0.21444   0.18994   0.00000  Uiso   1.00
C17    C     0.47647   0.16677   0.16581   0.00000  Uiso   1.00
C18    C     0.02353   0.16656   0.16752   0.00000  Uiso   1.00
C19    C     0.45585   0.21486   0.18657   0.00000  Uiso   1.00
C20    C     0.04414   0.11847   0.14676   0.00000  Uiso   1.00
C21    C     0.47134   0.07165   0.12341   0.00000  Uiso   1.00
C22    C     0.02866   0.26169   0.20992   0.00000  Uiso   1.00
Cu23   Cu    0.25500   0.17246   0.22813   0.00000  Uiso   1.00
Cu24   Cu    0.24499   0.16087   0.10521   0.00000  Uiso   1.00
H25    H     0.45247   0.03424   0.10628   0.00000  Uiso   1.00
H26    H     0.04753   0.29910   0.22706   0.00000  Uiso   1.00
H27    H     0.03191   0.03388   0.10913   0.00000  Uiso   1.00
H28    H     0.46809   0.29945   0.22420   0.00000  Uiso   1.00
H29    H     0.24365   0.32007   0.09550   0.00000  Uiso   1.00
H30    H     0.25635   0.01326   0.23783   0.00000  Uiso   1.00
H31    H     0.21510   0.12595   0.31625   0.00000  Uiso   1.00
H32    H     0.28490   0.20738   0.01708   0.00000  Uiso   1.00
N33    N     0.23744   0.15214   0.01284   0.00000  Uiso   1.00
N34    N     0.26255   0.18119   0.32049   0.00000  Uiso   1.00
O35    O     0.25325   0.09538   0.20659   0.00000  Uiso   1.00
O36    O     0.24674   0.23796   0.12674   0.00000  Uiso   1.00
O37    O     0.24480   0.08559   0.10279   0.00000  Uiso   1.00
O38    O     0.25520   0.24774   0.23055   0.00000  Uiso   1.00
O39    O     0.18935   0.17155   0.21857   0.00000  Uiso   1.00
O40    O     0.31064   0.16179   0.11476   0.00000  Uiso   1.00
O41    O     0.18090   0.16176   0.11477   0.00000  Uiso   1.00
O42    O     0.31910   0.17157   0.21857   0.00000  Uiso   1.00
C43    C     0.38697   0.26348   0.20655   0.00000  Uiso   1.00
N44    N     0.36936   0.30222   0.22324   0.00000  Uiso   1.00
C45    C     0.11303   0.06985   0.12678   0.00000  Uiso   1.00
N46    N     0.13064   0.03111   0.11010   0.00000  Uiso   1.00
C47    C     0.37559   0.07074   0.11947   0.00000  Uiso   1.00
N48    N     0.35351   0.03208   0.10152   0.00000  Uiso   1.00
C49    C     0.12441   0.26260   0.21386   0.00000  Uiso   1.00
N50    N     0.14649   0.30125   0.23181   0.00000  Uiso   1.00
C51    C     0.74856   0.06659   0.15111   0.00000  Uiso   1.00
C52    C     0.75144   0.26674   0.18222   0.00000  Uiso   1.00
C53    C     0.51744   0.07143   0.12512   0.00000  Uiso   1.00
C54    C     0.98256   0.26190   0.20821   0.00000  Uiso   1.00
C55    C     0.74779   0.01060   0.14236   0.00000  Uiso   1.00
C56    C     0.75221   0.32273   0.19097   0.00000  Uiso   1.00
C57    C     0.66473   0.16656   0.16763   0.00000  Uiso   1.00
C58    C     0.83527   0.16677   0.16570   0.00000  Uiso   1.00
C59    C     0.90908   0.21477   0.18557   0.00000  Uiso   1.00
C60    C     0.59092   0.11856   0.14777   0.00000  Uiso   1.00
C61    C     0.88338   0.16702   0.16366   0.00000  Uiso   1.00
C62    C     0.61662   0.16632   0.16968   0.00000  Uiso   1.00
C63    C     0.90339   0.11927   0.14194   0.00000  Uiso   1.00
C64    C     0.59661   0.21406   0.19139   0.00000  Uiso   1.00
C65    C     0.95017   0.11890   0.14339   0.00000  Uiso   1.00
C66    C     0.54982   0.21444   0.18994   0.00000  Uiso   1.00
C67    C     0.97647   0.16677   0.16581   0.00000  Uiso   1.00
C68    C     0.52353   0.16656   0.16752   0.00000  Uiso   1.00
C69    C     0.95585   0.21486   0.18657   0.00000  Uiso   1.00
C70    C     0.54414   0.11847   0.14676   0.00000  Uiso   1.00
C71    C     0.97134   0.07165   0.12341   0.00000  Uiso   1.00
C72    C     0.52866   0.26169   0.20992   0.00000  Uiso   1.00
Cu73   Cu    0.75500   0.17246   0.22813   0.00000  Uiso   1.00
Cu74   Cu    0.74499   0.16087   0.10521   0.00000  Uiso   1.00
H75    H     0.95247   0.03424   0.10628   0.00000  Uiso   1.00
H76    H     0.54753   0.29910   0.22706   0.00000  Uiso   1.00
H77    H     0.53191   0.03388   0.10913   0.00000  Uiso   1.00
H78    H     0.96809   0.29945   0.22420   0.00000  Uiso   1.00
H79    H     0.74365   0.32007   0.09550   0.00000  Uiso   1.00
H80    H     0.75635   0.01326   0.23783   0.00000  Uiso   1.00
H81    H     0.71510   0.12595   0.31625   0.00000  Uiso   1.00
H82    H     0.78490   0.20738   0.01708   0.00000  Uiso   1.00
N83    N     0.73744   0.15214   0.01284   0.00000  Uiso   1.00
N84    N     0.76255   0.18119   0.32049   0.00000  Uiso   1.00
O85    O     0.75325   0.09538   0.20659   0.00000  Uiso   1.00
O86    O     0.74674   0.23796   0.12674   0.00000  Uiso   1.00
O87    O     0.74480   0.08559   0.10279   0.00000  Uiso   1.00
O88    O     0.75520   0.24774   0.23055   0.00000  Uiso   1.00
O89    O     0.68935   0.17155   0.21857   0.00000  Uiso   1.00
O90    O     0.81064   0.16179   0.11476   0.00000  Uiso   1.00
O91    O     0.68090   0.16176   0.11477   0.00000  Uiso   1.00
O92    O     0.81910   0.17157   0.21857   0.00000  Uiso   1.00
C93    C     0.88697   0.26348   0.20655   0.00000  Uiso   1.00
N94    N     0.86936   0.30222   0.22324   0.00000  Uiso   1.00
C95    C     0.61303   0.06985   0.12678   0.00000  Uiso   1.00
N96    N     0.63064   0.03111   0.11010   0.00000  Uiso   1.00
C97    C     0.87559   0.07074   0.11947   0.00000  Uiso   1.00
N98    N     0.85351   0.03208   0.10152   0.00000  Uiso   1.00
C99    C     0.62441   0.26260   0.21386   0.00000  Uiso   1.00
N100   N     0.64649   0.30125   0.23181   0.00000  Uiso   1.00
C101   C     0.24856   0.39992   0.15111   0.00000  Uiso   1.00
C102   C     0.25144   0.60008   0.18222   0.00000  Uiso   1.00
C103   C     0.01744   0.40476   0.12512   0.00000  Uiso   1.00
C104   C     0.48256   0.59524   0.20821   0.00000  Uiso   1.00
C105   C     0.24779   0.34394   0.14236   0.00000  Uiso   1.00
C106   C     0.25221   0.65606   0.19097   0.00000  Uiso   1.00
C107   C     0.16473   0.49989   0.16763   0.00000  Uiso   1.00
C108   C     0.33527   0.50010   0.16570   0.00000  Uiso   1.00
C109   C     0.40908   0.54810   0.18557   0.00000  Uiso   1.00
C110   C     0.09092   0.45190   0.14777   0.00000  Uiso   1.00
C111   C     0.38338   0.50035   0.16366   0.00000  Uiso   1.00
C112   C     0.11662   0.49965   0.16968   0.00000  Uiso   1.00
C113   C     0.40339   0.45261   0.14194   0.00000  Uiso   1.00
C114   C     0.09661   0.54739   0.19139   0.00000  Uiso   1.00
C115   C     0.45017   0.45223   0.14339   0.00000  Uiso   1.00
C116   C     0.04982   0.54777   0.18994   0.00000  Uiso   1.00
C117   C     0.47647   0.50011   0.16581   0.00000  Uiso   1.00
C118   C     0.02353   0.49989   0.16752   0.00000  Uiso   1.00
C119   C     0.45585   0.54819   0.18657   0.00000  Uiso   1.00
C120   C     0.04414   0.45181   0.14676   0.00000  Uiso   1.00
C121   C     0.47134   0.40498   0.12341   0.00000  Uiso   1.00
C122   C     0.02866   0.59502   0.20992   0.00000  Uiso   1.00
Cu123  Cu    0.25500   0.50579   0.22813   0.00000  Uiso   1.00
Cu124  Cu    0.24499   0.49421   0.10521   0.00000  Uiso   1.00
H125   H     0.45247   0.36757   0.10628   0.00000  Uiso   1.00
H126   H     0.04753   0.63243   0.22706   0.00000  Uiso   1.00
H127   H     0.03191   0.36722   0.10913   0.00000  Uiso   1.00
H128   H     0.46809   0.63278   0.22420   0.00000  Uiso   1.00
H129   H     0.24365   0.65340   0.09550   0.00000  Uiso   1.00
H130   H     0.25635   0.34660   0.23783   0.00000  Uiso   1.00
H131   H     0.21510   0.45929   0.31625   0.00000  Uiso   1.00
H132   H     0.28490   0.54071   0.01708   0.00000  Uiso   1.00
N133   N     0.23744   0.48547   0.01284   0.00000  Uiso   1.00
N134   N     0.26255   0.51453   0.32049   0.00000  Uiso   1.00
O135   O     0.25325   0.42871   0.20659   0.00000  Uiso   1.00
O136   O     0.24674   0.57129   0.12674   0.00000  Uiso   1.00
O137   O     0.24480   0.41892   0.10279   0.00000  Uiso   1.00
O138   O     0.25520   0.58108   0.23055   0.00000  Uiso   1.00
O139   O     0.18935   0.50488   0.21857   0.00000  Uiso   1.00
O140   O     0.31064   0.49512   0.11476   0.00000  Uiso   1.00
O141   O     0.18090   0.49510   0.11477   0.00000  Uiso   1.00
O142   O     0.31910   0.50490   0.21857   0.00000  Uiso   1.00
C143   C     0.38697   0.59681   0.20655   0.00000  Uiso   1.00
N144   N     0.36936   0.63555   0.22324   0.00000  Uiso   1.00
C145   C     0.11303   0.40319   0.12678   0.00000  Uiso   1.00
N146   N     0.13064   0.36445   0.11010   0.00000  Uiso   1.00
C147   C     0.37559   0.40407   0.11947   0.00000  Uiso   1.00
N148   N     0.35351   0.36541   0.10152   0.00000  Uiso   1.00
C149   C     0.12441   0.59593   0.21386   0.00000  Uiso   1.00
N150   N     0.14649   0.63459   0.23181   0.00000  Uiso   1.00
C151   C     0.74856   0.39992   0.15111   0.00000  Uiso   1.00
C152   C     0.75144   0.60008   0.18222   0.00000  Uiso   1.00
C153   C     0.51744   0.40476   0.12512   0.00000  Uiso   1.00
C154   C     0.98256   0.59524   0.20821   0.00000  Uiso   1.00
C155   C     0.74779   0.34394   0.14236   0.00000  Uiso   1.00
C156   C     0.75221   0.65606   0.19097   0.00000  Uiso   1.00
C157   C     0.66473   0.49989   0.16763   0.00000  Uiso   1.00
C158   C     0.83527   0.50010   0.16570   0.00000  Uiso   1.00
C159   C     0.90908   0.54810   0.18557   0.00000  Uiso   1.00
C160   C     0.59092   0.45190   0.14777   0.00000  Uiso   1.00
C161   C     0.88338   0.50035   0.16366   0.00000  Uiso   1.00
C162   C     0.61662   0.49965   0.16968   0.00000  Uiso   1.00
C163   C     0.90339   0.45261   0.14194   0.00000  Uiso   1.00
C164   C     0.59661   0.54739   0.19139   0.00000  Uiso   1.00
C165   C     0.95017   0.45223   0.14339   0.00000  Uiso   1.00
C166   C     0.54982   0.54777   0.18994   0.00000  Uiso   1.00
C167   C     0.97647   0.50011   0.16581   0.00000  Uiso   1.00
C168   C     0.52353   0.49989   0.16752   0.00000  Uiso   1.00
C169   C     0.95585   0.54819   0.18657   0.00000  Uiso   1.00
C170   C     0.54414   0.45181   0.14676   0.00000  Uiso   1.00
C171   C     0.97134   0.40498   0.12341   0.00000  Uiso   1.00
C172   C     0.52866   0.59502   0.20992   0.00000  Uiso   1.00
Cu173  Cu    0.75500   0.50579   0.22813   0.00000  Uiso   1.00
Cu174  Cu    0.74499   0.49421   0.10521   0.00000  Uiso   1.00
H175   H     0.95247   0.36757   0.10628   0.00000  Uiso   1.00
H176   H     0.54753   0.63243   0.22706   0.00000  Uiso   1.00
H177   H     0.53191   0.36722   0.10913   0.00000  Uiso   1.00
H178   H     0.96809   0.63278   0.22420   0.00000  Uiso   1.00
H179   H     0.74365   0.65340   0.09550   0.00000  Uiso   1.00
H180   H     0.75635   0.34660   0.23783   0.00000  Uiso   1.00
H181   H     0.71510   0.45929   0.31625   0.00000  Uiso   1.00
H182   H     0.78490   0.54071   0.01708   0.00000  Uiso   1.00
N183   N     0.73744   0.48547   0.01284   0.00000  Uiso   1.00
N184   N     0.76255   0.51453   0.32049   0.00000  Uiso   1.00
O185   O     0.75325   0.42871   0.20659   0.00000  Uiso   1.00
O186   O     0.74674   0.57129   0.12674   0.00000  Uiso   1.00
O187   O     0.74480   0.41892   0.10279   0.00000  Uiso   1.00
O188   O     0.75520   0.58108   0.23055   0.00000  Uiso   1.00
O189   O     0.68935   0.50488   0.21857   0.00000  Uiso   1.00
O190   O     0.81064   0.49512   0.11476   0.00000  Uiso   1.00
O191   O     0.68090   0.49510   0.11477   0.00000  Uiso   1.00
O192   O     0.81910   0.50490   0.21857   0.00000  Uiso   1.00
C193   C     0.88697   0.59681   0.20655   0.00000  Uiso   1.00
N194   N     0.86936   0.63555   0.22324   0.00000  Uiso   1.00
C195   C     0.61303   0.40319   0.12678   0.00000  Uiso   1.00
N196   N     0.63064   0.36445   0.11010   0.00000  Uiso   1.00
C197   C     0.87559   0.40407   0.11947   0.00000  Uiso   1.00
N198   N     0.85351   0.36541   0.10152   0.00000  Uiso   1.00
C199   C     0.62441   0.59593   0.21386   0.00000  Uiso   1.00
N200   N     0.64649   0.63459   0.23181   0.00000  Uiso   1.00
C201   C     0.24856   0.73326   0.15111   0.00000  Uiso   1.00
C202   C     0.25144   0.93341   0.18222   0.00000  Uiso   1.00
C203   C     0.01744   0.73810   0.12512   0.00000  Uiso   1.00
C204   C     0.48256   0.92857   0.20821   0.00000  Uiso   1.00
C205   C     0.24779   0.67727   0.14236   0.00000  Uiso   1.00
C206   C     0.25221   0.98940   0.19097   0.00000  Uiso   1.00
C207   C     0.16473   0.83323   0.16763   0.00000  Uiso   1.00
C208   C     0.33527   0.83344   0.16570   0.00000  Uiso   1.00
C209   C     0.40908   0.88144   0.18557   0.00000  Uiso   1.00
C210   C     0.09092   0.78523   0.14777   0.00000  Uiso   1.00
C211   C     0.38338   0.83368   0.16366   0.00000  Uiso   1.00
C212   C     0.11662   0.83298   0.16968   0.00000  Uiso   1.00
C213   C     0.40339   0.78594   0.14194   0.00000  Uiso   1.00
C214   C     0.09661   0.88073   0.19139   0.00000  Uiso   1.00
C215   C     0.45017   0.78556   0.14339   0.00000  Uiso   1.00
C216   C     0.04982   0.88110   0.18994   0.00000  Uiso   1.00
C217   C     0.47647   0.83344   0.16581   0.00000  Uiso   1.00
C218   C     0.02353   0.83323   0.16752   0.00000  Uiso   1.00
C219   C     0.45585   0.88153   0.18657   0.00000  Uiso   1.00
C220   C     0.04414   0.78514   0.14676   0.00000  Uiso   1.00
C221   C     0.47134   0.73831   0.12341   0.00000  Uiso   1.00
C222   C     0.02866   0.92835   0.20992   0.00000  Uiso   1.00
Cu223  Cu    0.25500   0.83913   0.22813   0.00000  Uiso   1.00
Cu224  Cu    0.24499   0.82754   0.10521   0.00000  Uiso   1.00
H225   H     0.45247   0.70090   0.10628   0.00000  Uiso   1.00
H226   H     0.04753   0.96576   0.22706   0.00000  Uiso   1.00
H227   H     0.03191   0.70055   0.10913   0.00000  Uiso   1.00
H228   H     0.46809   0.96612   0.22420   0.00000  Uiso   1.00
H229   H     0.24365   0.98674   0.09550   0.00000  Uiso   1.00
H230   H     0.25635   0.67993   0.23783   0.00000  Uiso   1.00
H231   H     0.21510   0.79262   0.31625   0.00000  Uiso   1.00
H232   H     0.28490   0.87405   0.01708   0.00000  Uiso   1.00
N233   N     0.23744   0.81881   0.01284   0.00000  Uiso   1.00
N234   N     0.26255   0.84786   0.32049   0.00000  Uiso   1.00
O235   O     0.25325   0.76204   0.20659   0.00000  Uiso   1.00
O236   O     0.24674   0.90462   0.12674   0.00000  Uiso   1.00
O237   O     0.24480   0.75226   0.10279   0.00000  Uiso   1.00
O238   O     0.25520   0.91441   0.23055   0.00000  Uiso   1.00
O239   O     0.18935   0.83821   0.21857   0.00000  Uiso   1.00
O240   O     0.31064   0.82845   0.11476   0.00000  Uiso   1.00
O241   O     0.18090   0.82843   0.11477   0.00000  Uiso   1.00
O242   O     0.31910   0.83824   0.21857   0.00000  Uiso   1.00
C243   C     0.38697   0.93014   0.20655   0.00000  Uiso   1.00
N244   N     0.36936   0.96889   0.22324   0.00000  Uiso   1.00
C245   C     0.11303   0.73652   0.12678   0.00000  Uiso   1.00
N246   N     0.13064   0.69778   0.11010   0.00000  Uiso   1.00
C247   C     0.37559   0.73740   0.11947   0.00000  Uiso   1.00
N248   N     0.35351   0.69875   0.10152   0.00000  Uiso   1.00
C249   C     0.12441   0.92926   0.21386   0.00000  Uiso   1.00
N250   N     0.14649   0.96792   0.23181   0.00000  Uiso   1.00
C251   C     0.74856   0.73326   0.15111   0.00000  Uiso   1.00
C252   C     0.75144   0.93341   0.18222   0.00000  Uiso   1.00
C253   C     0.51744   0.73810   0.12512   0.00000  Uiso   1.00
C254   C     0.98256   0.92857   0.20821   0.00000  Uiso   1.00
C255   C     0.74779   0.67727   0.14236   0.00000  Uiso   1.00
C256   C     0.75221   0.98940   0.19097   0.00000  Uiso   1.00
C257   C     0.66473   0.83323   0.16763   0.00000  Uiso   1.00
C258   C     0.83527   0.83344   0.16570   0.00000  Uiso   1.00
C259   C     0.90908   0.88144   0.18557   0.00000  Uiso   1.00
C260   C     0.59092   0.78523   0.14777   0.00000  Uiso   1.00
C261   C     0.88338   0.83368   0.16366   0.00000  Uiso   1.00
C262   C     0.61662   0.83298   0.16968   0.00000  Uiso   1.00
C263   C     0.90339   0.78594   0.14194   0.00000  Uiso   1.00
C264   C     0.59661   0.88073   0.19139   0.00000  Uiso   1.00
C265   C     0.95017   0.78556   0.14339   0.00000  Uiso   1.00
C266   C     0.54982   0.88110   0.18994   0.00000  Uiso   1.00
C267   C     0.97647   0.83344   0.16581   0.00000  Uiso   1.00
C268   C     0.52353   0.83323   0.16752   0.00000  Uiso   1.00
C269   C     0.95585   0.88153   0.18657   0.00000  Uiso   1.00
C270   C     0.54414   0.78514   0.14676   0.00000  Uiso   1.00
C271   C     0.97134   0.73831   0.12341   0.00000  Uiso   1.00
C272   C     0.52866   0.92835   0.20992   0.00000  Uiso   1.00
Cu273  Cu    0.75500   0.83913   0.22813   0.00000  Uiso   1.00
Cu274  Cu    0.74499   0.82754   0.10521   0.00000  Uiso   1.00
H275   H     0.95247   0.70090   0.10628   0.00000  Uiso   1.00
H276   H     0.54753   0.96576   0.22706   0.00000  Uiso   1.00
H277   H     0.53191   0.70055   0.10913   0.00000  Uiso   1.00
H278   H     0.96809   0.96612   0.22420   0.00000  Uiso   1.00
H279   H     0.74365   0.98674   0.09550   0.00000  Uiso   1.00
H280   H     0.75635   0.67993   0.23783   0.00000  Uiso   1.00
H281   H     0.71510   0.79262   0.31625   0.00000  Uiso   1.00
H282   H     0.78490   0.87405   0.01708   0.00000  Uiso   1.00
N283   N     0.73744   0.81881   0.01284   0.00000  Uiso   1.00
N284   N     0.76255   0.84786   0.32049   0.00000  Uiso   1.00
O285   O     0.75325   0.76204   0.20659   0.00000  Uiso   1.00
O286   O     0.74674   0.90462   0.12674   0.00000  Uiso   1.00
O287   O     0.74480   0.75226   0.10279   0.00000  Uiso   1.00
O288   O     0.75520   0.91441   0.23055   0.00000  Uiso   1.00
O289   O     0.68935   0.83821   0.21857   0.00000  Uiso   1.00
O290   O     0.81064   0.82845   0.11476   0.00000  Uiso   1.00
O291   O     0.68090   0.82843   0.11477   0.00000  Uiso   1.00
O292   O     0.81910   0.83824   0.21857   0.00000  Uiso   1.00
C293   C     0.88697   0.93014   0.20655   0.00000  Uiso   1.00
N294   N     0.86936   0.96889   0.22324   0.00000  Uiso   1.00
C295   C     0.61303   0.73652   0.12678   0.00000  Uiso   1.00
N296   N     0.63064   0.69778   0.11010   0.00000  Uiso   1.00
C297   C     0.87559   0.73740   0.11947   0.00000  Uiso   1.00
N298   N     0.85351   0.69875   0.10152   0.00000  Uiso   1.00
C299   C     0.62441   0.92926   0.21386   0.00000  Uiso   1.00
N300   N     0.64649   0.96792   0.23181   0.00000  Uiso   1.00
C301   C     0.24856   0.06659   0.48444   0.00000  Uiso   1.00
C302   C     0.25144   0.26674   0.51556   0.00000  Uiso   1.00
C303   C     0.01744   0.07143   0.45846   0.00000  Uiso   1.00
C304   C     0.48256   0.26190   0.54154   0.00000  Uiso   1.00
C305   C     0.24779   0.01060   0.47569   0.00000  Uiso   1.00
C306   C     0.25221   0.32273   0.52431   0.00000  Uiso   1.00
C307   C     0.16473   0.16656   0.50097   0.00000  Uiso   1.00
C308   C     0.33527   0.16677   0.49903   0.00000  Uiso   1.00
C309   C     0.40908   0.21477   0.51890   0.00000  Uiso   1.00
C310   C     0.09092   0.11856   0.48110   0.00000  Uiso   1.00
C311   C     0.38338   0.16702   0.49699   0.00000  Uiso   1.00
C312   C     0.11662   0.16632   0.50301   0.00000  Uiso   1.00
C313   C     0.40339   0.11927   0.47528   0.00000  Uiso   1.00
C314   C     0.09661   0.21406   0.52472   0.00000  Uiso   1.00
C315   C     0.45017   0.11890   0.47672   0.00000  Uiso   1.00
C316   C     0.04982   0.21444   0.52328   0.00000  Uiso   1.00
C317   C     0.47647   0.16677   0.49915   0.00000  Uiso   1.00
C318   C     0.02353   0.16656   0.50085   0.00000  Uiso   1.00
C319   C     0.45585   0.21486   0.51990   0.00000  Uiso   1.00
C320   C     0.04414   0.11847   0.48010   0.00000  Uiso   1.00
C321   C     0.47134   0.07165   0.45674   0.00000  Uiso   1.00
C322   C     0.02866   0.26169   0.54326   0.00000  Uiso   1.00
Cu323  Cu    0.25500   0.17246   0.56146   0.00000  Uiso   1.00
Cu324  Cu    0.24499   0.16087   0.43854   0.00000  Uiso   1.00
H325   H     0.45247   0.03424   0.43961   0.00000  Uiso   1.00
H326   H     0.04753   0.29910   0.56039   0.00000  Uiso   1.00
H327   H     0.03191   0.03388   0.44246   0.00000  Uiso   1.00
H328   H     0.46809   0.29945   0.55754   0.00000  Uiso   1.00
H329   H     0.24365   0.32007   0.42884   0.00000  Uiso   1.00
H330   H     0.25635   0.01326   0.57116   0.00000  Uiso   1.00
H331   H     0.21510   0.12595   0.64958   0.00000  Uiso   1.00
H332   H     0.28490   0.20738   0.35042   0.00000  Uiso   1.00
N333   N     0.23744   0.15214   0.34617   0.00000  Uiso   1.00
N334   N     0.26255   0.18119   0.65383   0.00000  Uiso   1.00
O335   O     0.25325   0.09538   0.53992   0.00000  Uiso   1.00
O336   O     0.24674   0.23796   0.46008   0.00000  Uiso   1.00
O337   O     0.24480   0.08559   0.43612   0.00000  Uiso   1.00
O338   O     0.25520   0.24774   0.56388   0.00000  Uiso   1.00
O339   O     0.18935   0.17155   0.55191   0.00000  Uiso   1.00
O340   O     0.31064   0.16179   0.44809   0.00000  Uiso   1.00
O341   O     0.18090   0.16176   0.44810   0.00000  Uiso   1.00
O342   O     0.31910   0.17157   0.55190   0.00000  Uiso   1.00
C343   C     0.38697   0.26348   0.53988   0.00000  Uiso   1.00
N344   N     0.36936   0.30222   0.55657   0.00000  Uiso   1.00
C345   C     0.11303   0.06985   0.46012   0.00000  Uiso   1.00
N346   N     0.13064   0.03111   0.44343   0.00000  Uiso   1.00
C347   C     0.37559   0.07074   0.45280   0.00000  Uiso   1.00
N348   N     0.35351   0.03208   0.43485   0.00000  Uiso   1.00
C349   C     0.12441   0.26260   0.54720   0.00000  Uiso   1.00
N350   N     0.14649   0.30125   0.56515   0.00000  Uiso   1.00
C351   C     0.74856   0.06659   0.48444   0.00000  Uiso   1.00
C352   C     0.75144   0.26674   0.51556   0.00000  Uiso   1.00
C353   C     0.51744   0.07143   0.45846   0.00000  Uiso   1.00
C354   C     0.98256   0.26190   0.54154   0.00000  Uiso   1.00
C355   C     0.74779   0.01060   0.47569   0.00000  Uiso   1.00
C356   C     0.75221   0.32273   0.52431   0.00000  Uiso   1.00
C357   C     0.66473   0.16656   0.50097   0.00000  Uiso   1.00
C358   C     0.83527   0.16677   0.49903   0.00000  Uiso   1.00
C359   C     0.90908   0.21477   0.51890   0.00000  Uiso   1.00
C360   C     0.59092   0.11856   0.48110   0.00000  Uiso   1.00
C361   C     0.88338   0.16702   0.49699   0.00000  Uiso   1.00
C362   C     0.61662   0.16632   0.50301   0.00000  Uiso   1.00
C363   C     0.90339   0.11927   0.47528   0.00000  Uiso   1.00
C364   C     0.59661   0.21406   0.52472   0.00000  Uiso   1.00
C365   C     0.95017   0.11890   0.47672   0.00000  Uiso   1.00
C366   C     0.54982   0.21444   0.52328   0.00000  Uiso   1.00
C367   C     0.97647   0.16677   0.49915   0.00000  Uiso   1.00
C368   C     0.52353   0.16656   0.50085   0.00000  Uiso   1.00
C369   C     0.95585   0.21486   0.51990   0.00000  Uiso   1.00
C370   C     0.54414   0.11847   0.48010   0.00000  Uiso   1.00
C371   C     0.97134   0.07165   0.45674   0.00000  Uiso   1.00
C372   C     0.52866   0.26169   0.54326   0.00000  Uiso   1.00
Cu373  Cu    0.75500   0.17246   0.56146   0.00000  Uiso   1.00
Cu374  Cu    0.74499   0.16087   0.43854   0.00000  Uiso   1.00
H375   H     0.95247   0.03424   0.43961   0.00000  Uiso   1.00
H376   H     0.54753   0.29910   0.56039   0.00000  Uiso   1.00
H377   H     0.53191   0.03388   0.44246   0.00000  Uiso   1.00
H378   H     0.96809   0.29945   0.55754   0.00000  Uiso   1.00
H379   H     0.74365   0.32007   0.42884   0.00000  Uiso   1.00
H380   H     0.75635   0.01326   0.57116   0.00000  Uiso   1.00
H381   H     0.71510   0.12595   0.64958   0.00000  Uiso   1.00
H382   H     0.78490   0.20738   0.35042   0.00000  Uiso   1.00
N383   N     0.73744   0.15214   0.34617   0.00000  Uiso   1.00
N384   N     0.76255   0.18119   0.65383   0.00000  Uiso   1.00
O385   O     0.75325   0.09538   0.53992   0.00000  Uiso   1.00
O386   O     0.74674   0.23796   0.46008   0.00000  Uiso   1.00
O387   O     0.74480   0.08559   0.43612   0.00000  Uiso   1.00
O388   O     0.75520   0.24774   0.56388   0.00000  Uiso   1.00
O389   O     0.68935   0.17155   0.55191   0.00000  Uiso   1.00
O390   O     0.81064   0.16179   0.44809   0.00000  Uiso   1.00
O391   O     0.68090   0.16176   0.44810   0.00000  Uiso   1.00
O392   O     0.81910   0.17157   0.55190   0.00000  Uiso   1.00
C393   C     0.88697   0.26348   0.53988   0.00000  Uiso   1.00
N394   N     0.86936   0.30222   0.55657   0.00000  Uiso   1.00
C395   C     0.61303   0.06985   0.46012   0.00000  Uiso   1.00
N396   N     0.63064   0.03111   0.44343   0.00000  Uiso   1.00
C397   C     0.87559   0.07074   0.45280   0.00000  Uiso   1.00
N398   N     0.85351   0.03208   0.43485   0.00000  Uiso   1.00
C399   C     0.62441   0.26260   0.54720   0.00000  Uiso   1.00
N400   N     0.64649   0.30125   0.56515   0.00000  Uiso   1.00
C401   C     0.24856   0.39992   0.48444   0.00000  Uiso   1.00
C402   C     0.25144   0.60008   0.51556   0.00000  Uiso   1.00
C403   C     0.01744   0.40476   0.45846   0.00000  Uiso   1.00
C404   C     0.48256   0.59524   0.54154   0.00000  Uiso   1.00
C405   C     0.24779   0.34394   0.47569   0.00000  Uiso   1.00
C406   C     0.25221   0.65606   0.52431   0.00000  Uiso   1.00
C407   C     0.16473   0.49989   0.50097   0.00000  Uiso   1.00
C408   C     0.33527   0.50010   0.49903   0.00000  Uiso   1.00
C409   C     0.40908   0.54810   0.51890   0.00000  Uiso   1.00
C410   C     0.09092   0.45190   0.48110   0.00000  Uiso   1.00
C411   C     0.38338   0.50035   0.49699   0.00000  Uiso   1.00
C412   C     0.11662   0.49965   0.50301   0.00000  Uiso   1.00
C413   C     0.40339   0.45261   0.47528   0.00000  Uiso   1.00
C414   C     0.09661   0.54739   0.52472   0.00000  Uiso   1.00
C415   C     0.45017   0.45223   0.47672   0.00000  Uiso   1.00
C416   C     0.04982   0.54777   0.52328   0.00000  Uiso   1.00
C417   C     0.47647   0.50011   0.49915   0.00000  Uiso   1.00
C418   C     0.02353   0.49989   0.50085   0.00000  Uiso   1.00
C419   C     0.45585   0.54819   0.51990   0.00000  Uiso   1.00
C420   C     0.04414   0.45181   0.48010   0.00000  Uiso   1.00
C421   C     0.47134   0.40498   0.45674   0.00000  Uiso   1.00
C422   C     0.02866   0.59502   0.54326   0.00000  Uiso   1.00
Cu423  Cu    0.25500   0.50579   0.56146   0.00000  Uiso   1.00
Cu424  Cu    0.24499   0.49421   0.43854   0.00000  Uiso   1.00
H425   H     0.45247   0.36757   0.43961   0.00000  Uiso   1.00
H426   H     0.04753   0.63243   0.56039   0.00000  Uiso   1.00
H427   H     0.03191   0.36722   0.44246   0.00000  Uiso   1.00
H428   H     0.46809   0.63278   0.55754   0.00000  Uiso   1.00
H429   H     0.24365   0.65340   0.42884   0.00000  Uiso   1.00
H430   H     0.25635   0.34660   0.57116   0.00000  Uiso   1.00
H431   H     0.21510   0.45929   0.64958   0.00000  Uiso   1.00
H432   H     0.28490   0.54071   0.35042   0.00000  Uiso   1.00
N433   N     0.23744   0.48547   0.34617   0.00000  Uiso   1.00
N434   N     0.26255   0.51453   0.65383   0.00000  Uiso   1.00
O435   O     0.25325   0.42871   0.53992   0.00000  Uiso   1.00
O436   O     0.24674   0.57129   0.46008   0.00000  Uiso   1.00
O437   O     0.24480   0.41892   0.43612   0.00000  Uiso   1.00
O438   O     0.25520   0.58108   0.56388   0.00000  Uiso   1.00
O439   O     0.18935   0.50488   0.55191   0.00000  Uiso   1.00
O440   O     0.31064   0.49512   0.44809   0.00000  Uiso   1.00
O441   O     0.18090   0.49510   0.44810   0.00000  Uiso   1.00
O442   O     0.31910   0.50490   0.55190   0.00000  Uiso   1.00
C443   C     0.38697   0.59681   0.53988   0.00000  Uiso   1.00
N444   N     0.36936   0.63555   0.55657   0.00000  Uiso   1.00
C445   C     0.11303   0.40319   0.46012   0.00000  Uiso   1.00
N446   N     0.13064   0.36445   0.44343   0.00000  Uiso   1.00
C447   C     0.37559   0.40407   0.45280   0.00000  Uiso   1.00
N448   N     0.35351   0.36541   0.43485   0.00000  Uiso   1.00
C449   C     0.12441   0.59593   0.54720   0.00000  Uiso   1.00
N450   N     0.14649   0.63459   0.56515   0.00000  Uiso   1.00
C451   C     0.74856   0.39992   0.48444   0.00000  Uiso   1.00
C452   C     0.75144   0.60008   0.51556   0.00000  Uiso   1.00
C453   C     0.51744   0.40476   0.45846   0.00000  Uiso   1.00
C454   C     0.98256   0.59524   0.54154   0.00000  Uiso   1.00
C455   C     0.74779   0.34394   0.47569   0.00000  Uiso   1.00
C456   C     0.75221   0.65606   0.52431   0.00000  Uiso   1.00
C457   C     0.66473   0.49989   0.50097   0.00000  Uiso   1.00
C458   C     0.83527   0.50010   0.49903   0.00000  Uiso   1.00
C459   C     0.90908   0.54810   0.51890   0.00000  Uiso   1.00
C460   C     0.59092   0.45190   0.48110   0.00000  Uiso   1.00
C461   C     0.88338   0.50035   0.49699   0.00000  Uiso   1.00
C462   C     0.61662   0.49965   0.50301   0.00000  Uiso   1.00
C463   C     0.90339   0.45261   0.47528   0.00000  Uiso   1.00
C464   C     0.59661   0.54739   0.52472   0.00000  Uiso   1.00
C465   C     0.95017   0.45223   0.47672   0.00000  Uiso   1.00
C466   C     0.54982   0.54777   0.52328   0.00000  Uiso   1.00
C467   C     0.97647   0.50011   0.49915   0.00000  Uiso   1.00
C468   C     0.52353   0.49989   0.50085   0.00000  Uiso   1.00
C469   C     0.95585   0.54819   0.51990   0.00000  Uiso   1.00
C470   C     0.54414   0.45181   0.48010   0.00000  Uiso   1.00
C471   C     0.97134   0.40498   0.45674   0.00000  Uiso   1.00
C472   C     0.52866   0.59502   0.54326   0.00000  Uiso   1.00
Cu473  Cu    0.75500   0.50579   0.56146   0.00000  Uiso   1.00
Cu474  Cu    0.74499   0.49421   0.43854   0.00000  Uiso   1.00
H475   H     0.95247   0.36757   0.43961   0.00000  Uiso   1.00
H476   H     0.54753   0.63243   0.56039   0.00000  Uiso   1.00
H477   H     0.53191   0.36722   0.44246   0.00000  Uiso   1.00
H478   H     0.96809   0.63278   0.55754   0.00000  Uiso   1.00
H479   H     0.74365   0.65340   0.42884   0.00000  Uiso   1.00
H480   H     0.75635   0.34660   0.57116   0.00000  Uiso   1.00
H481   H     0.71510   0.45929   0.64958   0.00000  Uiso   1.00
H482   H     0.78490   0.54071   0.35042   0.00000  Uiso   1.00
N483   N     0.73744   0.48547   0.34617   0.00000  Uiso   1.00
N484   N     0.76255   0.51453   0.65383   0.00000  Uiso   1.00
O485   O     0.75325   0.42871   0.53992   0.00000  Uiso   1.00
O486   O     0.74674   0.57129   0.46008   0.00000  Uiso   1.00
O487   O     0.74480   0.41892   0.43612   0.00000  Uiso   1.00
O488   O     0.75520   0.58108   0.56388   0.00000  Uiso   1.00
O489   O     0.68935   0.50488   0.55191   0.00000  Uiso   1.00
O490   O     0.81064   0.49512   0.44809   0.00000  Uiso   1.00
O491   O     0.68090   0.49510   0.44810   0.00000  Uiso   1.00
O492   O     0.81910   0.50490   0.55190   0.00000  Uiso   1.00
C493   C     0.88697   0.59681   0.53988   0.00000  Uiso   1.00
N494   N     0.86936   0.63555   0.55657   0.00000  Uiso   1.00
C495   C     0.61303   0.40319   0.46012   0.00000  Uiso   1.00
N496   N     0.63064   0.36445   0.44343   0.00000  Uiso   1.00
C497   C     0.87559   0.40407   0.45280   0.00000  Uiso   1.00
N498   N     0.85351   0.36541   0.43485   0.00000  Uiso   1.00
C499   C     0.62441   0.59593   0.54720   0.00000  Uiso   1.00
N500   N     0.64649   0.63459   0.56515   0.00000  Uiso   1.00
C501   C     0.24856   0.73326   0.48444   0.00000  Uiso   1.00
C502   C     0.25144   0.93341   0.51556   0.00000  Uiso   1.00
C503   C     0.01744   0.73810   0.45846   0.00000  Uiso   1.00
C504   C     0.48256   0.92857   0.54154   0.00000  Uiso   1.00
C505   C     0.24779   0.67727   0.47569   0.00000  Uiso   1.00
C506   C     0.25221   0.98940   0.52431   0.00000  Uiso   1.00
C507   C     0.16473   0.83323   0.50097   0.00000  Uiso   1.00
C508   C     0.33527   0.83344   0.49903   0.00000  Uiso   1.00
C509   C     0.40908   0.88144   0.51890   0.00000  Uiso   1.00
C510   C     0.09092   0.78523   0.48110   0.00000  Uiso   1.00
C511   C     0.38338   0.83368   0.49699   0.00000  Uiso   1.00
C512   C     0.11662   0.83298   0.50301   0.00000  Uiso   1.00
C513   C     0.40339   0.78594   0.47528   0.00000  Uiso   1.00
C514   C     0.09661   0.88073   0.52472   0.00000  Uiso   1.00
C515   C     0.45017   0.78556   0.47672   0.00000  Uiso   1.00
C516   C     0.04982   0.88110   0.52328   0.00000  Uiso   1.00
C517   C     0.47647   0.83344   0.49915   0.00000  Uiso   1.00
C518   C     0.02353   0.83323   0.50085   0.00000  Uiso   1.00
C519   C     0.45585   0.88153   0.51990   0.00000  Uiso   1.00
C520   C     0.04414   0.78514   0.48010   0.00000  Uiso   1.00
C521   C     0.47134   0.73831   0.45674   0.00000  Uiso   1.00
C522   C     0.02866   0.92835   0.54326   0.00000  Uiso   1.00
Cu523  Cu    0.25500   0.83913   0.56146   0.00000  Uiso   1.00
Cu524  Cu    0.24499   0.82754   0.43854   0.00000  Uiso   1.00
H525   H     0.45247   0.70090   0.43961   0.00000  Uiso   1.00
H526   H     0.04753   0.96576   0.56039   0.00000  Uiso   1.00
H527   H     0.03191   0.70055   0.44246   0.00000  Uiso   1.00
H528   H     0.46809   0.96612   0.55754   0.00000  Uiso   1.00
H529   H     0.24365   0.98674   0.42884   0.00000  Uiso   1.00
H530   H     0.25635   0.67993   0.57116   0.00000  Uiso   1.00
H531   H     0.21510   0.79262   0.64958   0.00000  Uiso   1.00
H532   H     0.28490   0.87405   0.35042   0.00000  Uiso   1.00
N533   N     0.23744   0.81881   0.34617   0.00000  Uiso   1.00
N534   N     0.26255   0.84786   0.65383   0.00000  Uiso   1.00
O535   O     0.25325   0.76204   0.53992   0.00000  Uiso   1.00
O536   O     0.24674   0.90462   0.46008   0.00000  Uiso   1.00
O537   O     0.24480   0.75226   0.43612   0.00000  Uiso   1.00
O538   O     0.25520   0.91441   0.56388   0.00000  Uiso   1.00
O539   O     0.18935   0.83821   0.55191   0.00000  Uiso   1.00
O540   O     0.31064   0.82845   0.44809   0.00000  Uiso   1.00
O541   O     0.18090   0.82843   0.44810   0.00000  Uiso   1.00
O542   O     0.31910   0.83824   0.55190   0.00000  Uiso   1.00
C543   C     0.38697   0.93014   0.53988   0.00000  Uiso   1.00
N544   N     0.36936   0.96889   0.55657   0.00000  Uiso   1.00
C545   C     0.11303   0.73652   0.46012   0.00000  Uiso   1.00
N546   N     0.13064   0.69778   0.44343   0.00000  Uiso   1.00
C547   C     0.37559   0.73740   0.45280   0.00000  Uiso   1.00
N548   N     0.35351   0.69875   0.43485   0.00000  Uiso   1.00
C549   C     0.12441   0.92926   0.54720   0.00000  Uiso   1.00
N550   N     0.14649   0.96792   0.56515   0.00000  Uiso   1.00
C551   C     0.74856   0.73326   0.48444   0.00000  Uiso   1.00
C552   C     0.75144   0.93341   0.51556   0.00000  Uiso   1.00
C553   C     0.51744   0.73810   0.45846   0.00000  Uiso   1.00
C554   C     0.98256   0.92857   0.54154   0.00000  Uiso   1.00
C555   C     0.74779   0.67727   0.47569   0.00000  Uiso   1.00
C556   C     0.75221   0.98940   0.52431   0.00000  Uiso   1.00
C557   C     0.66473   0.83323   0.50097   0.00000  Uiso   1.00
C558   C     0.83527   0.83344   0.49903   0.00000  Uiso   1.00
C559   C     0.90908   0.88144   0.51890   0.00000  Uiso   1.00
C560   C     0.59092   0.78523   0.48110   0.00000  Uiso   1.00
C561   C     0.88338   0.83368   0.49699   0.00000  Uiso   1.00
C562   C     0.61662   0.83298   0.50301   0.00000  Uiso   1.00
C563   C     0.90339   0.78594   0.47528   0.00000  Uiso   1.00
C564   C     0.59661   0.88073   0.52472   0.00000  Uiso   1.00
C565   C     0.95017   0.78556   0.47672   0.00000  Uiso   1.00
C566   C     0.54982   0.88110   0.52328   0.00000  Uiso   1.00
C567   C     0.97647   0.83344   0.49915   0.00000  Uiso   1.00
C568   C     0.52353   0.83323   0.50085   0.00000  Uiso   1.00
C569   C     0.95585   0.88153   0.51990   0.00000  Uiso   1.00
C570   C     0.54414   0.78514   0.48010   0.00000  Uiso   1.00
C571   C     0.97134   0.73831   0.45674   0.00000  Uiso   1.00
C572   C     0.52866   0.92835   0.54326   0.00000  Uiso   1.00
Cu573  Cu    0.75500   0.83913   0.56146   0.00000  Uiso   1.00
Cu574  Cu    0.74499   0.82754   0.43854   0.00000  Uiso   1.00
H575   H     0.95247   0.70090   0.43961   0.00000  Uiso   1.00
H576   H     0.54753   0.96576   0.56039   0.00000  Uiso   1.00
H577   H     0.53191   0.70055   0.44246   0.00000  Uiso   1.00
H578   H     0.96809   0.96612   0.55754   0.00000  Uiso   1.00
H579   H     0.74365   0.98674   0.42884   0.00000  Uiso   1.00
H580   H     0.75635   0.67993   0.57116   0.00000  Uiso   1.00
H581   H     0.71510   0.79262   0.64958   0.00000  Uiso   1.00
H582   H     0.78490   0.87405   0.35042   0.00000  Uiso   1.00
N583   N     0.73744   0.81881   0.34617   0.00000  Uiso   1.00
N584   N     0.76255   0.84786   0.65383   0.00000  Uiso   1.00
O585   O     0.75325   0.76204   0.53992   0.00000  Uiso   1.00
O586   O     0.74674   0.90462   0.46008   0.00000  Uiso   1.00
O587   O     0.74480   0.75226   0.43612   0.00000  Uiso   1.00
O588   O     0.75520   0.91441   0.56388   0.00000  Uiso   1.00
O589   O     0.68935   0.83821   0.55191   0.00000  Uiso   1.00
O590   O     0.81064   0.82845   0.44809   0.00000  Uiso   1.00
O591   O     0.68090   0.82843   0.44810   0.00000  Uiso   1.00
O592   O     0.81910   0.83824   0.55190   0.00000  Uiso   1.00
C593   C     0.88697   0.93014   0.53988   0.00000  Uiso   1.00
N594   N     0.86936   0.96889   0.55657   0.00000  Uiso   1.00
C595   C     0.61303   0.73652   0.46012   0.00000  Uiso   1.00
N596   N     0.63064   0.69778   0.44343   0.00000  Uiso   1.00
C597   C     0.87559   0.73740   0.45280   0.00000  Uiso   1.00
N598   N     0.85351   0.69875   0.43485   0.00000  Uiso   1.00
C599   C     0.62441   0.92926   0.54720   0.00000  Uiso   1.00
N600   N     0.64649   0.96792   0.56515   0.00000  Uiso   1.00
C601   C     0.24856   0.06659   0.81778   0.00000  Uiso   1.00
C602   C     0.25144   0.26674   0.84889   0.00000  Uiso   1.00
C603   C     0.01744   0.07143   0.79179   0.00000  Uiso   1.00
C604   C     0.48256   0.26190   0.87488   0.00000  Uiso   1.00
C605   C     0.24779   0.01060   0.80903   0.00000  Uiso   1.00
C606   C     0.25221   0.32273   0.85764   0.00000  Uiso   1.00
C607   C     0.16473   0.16656   0.83430   0.00000  Uiso   1.00
C608   C     0.33527   0.16677   0.83237   0.00000  Uiso   1.00
C609   C     0.40908   0.21477   0.85224   0.00000  Uiso   1.00
C610   C     0.09092   0.11856   0.81443   0.00000  Uiso   1.00
C611   C     0.38338   0.16702   0.83032   0.00000  Uiso   1.00
C612   C     0.11662   0.16632   0.83634   0.00000  Uiso   1.00
C613   C     0.40339   0.11927   0.80861   0.00000  Uiso   1.00
C614   C     0.09661   0.21406   0.85806   0.00000  Uiso   1.00
C615   C     0.45017   0.11890   0.81006   0.00000  Uiso   1.00
C616   C     0.04982   0.21444   0.85661   0.00000  Uiso   1.00
C617   C     0.47647   0.16677   0.83248   0.00000  Uiso   1.00
C618   C     0.02353   0.16656   0.83419   0.00000  Uiso   1.00
C619   C     0.45585   0.21486   0.85324   0.00000  Uiso   1.00
C620   C     0.04414   0.11847   0.81343   0.00000  Uiso   1.00
C621   C     0.47134   0.07165   0.79008   0.00000  Uiso   1.00
C622   C     0.02866   0.26169   0.87659   0.00000  Uiso   1.00
Cu623  Cu    0.25500   0.17246   0.89479   0.00000  Uiso   1.00
Cu624  Cu    0.24499   0.16087   0.77187   0.00000  Uiso   1.00
H625   H     0.45247   0.03424   0.77294   0.00000  Uiso   1.00
H626   H     0.04753   0.29910   0.89372   0.00000  Uiso   1.00
H627   H     0.03191   0.03388   0.77580   0.00000  Uiso   1.00
H628   H     0.46809   0.29945   0.89087   0.00000  Uiso   1.00
H629   H     0.24365   0.32007   0.76217   0.00000  Uiso   1.00
H630   H     0.25635   0.01326   0.90450   0.00000  Uiso   1.00
H631   H     0.21510   0.12595   0.98292   0.00000  Uiso   1.00
H632   H     0.28490   0.20738   0.68375   0.00000  Uiso   1.00
N633   N     0.23744   0.15214   0.67951   0.00000  Uiso   1.00
N634   N     0.26255   0.18119   0.98716   0.00000  Uiso   1.00
O635   O     0.25325   0.09538   0.87326   0.00000  Uiso   1.00
O636   O     0.24674   0.23796   0.79341   0.00000  Uiso   1.00
O637   O     0.24480   0.08559   0.76945   0.00000  Uiso   1.00
O638   O     0.25520   0.24774   0.89721   0.00000  Uiso   1.00
O639   O     0.18935   0.17155   0.88524   0.00000  Uiso   1.00
O640   O     0.31064   0.16179   0.78143   0.00000  Uiso   1.00
O641   O     0.18090   0.16176   0.78143   0.00000  Uiso   1.00
O642   O     0.31910   0.17157   0.88523   0.00000  Uiso   1.00
C643   C     0.38697   0.26348   0.87322   0.00000  Uiso   1.00
N644   N     0.36936   0.30222   0.88990   0.00000  Uiso   1.00
C645   C     0.11303   0.06985   0.79345   0.00000  Uiso   1.00
N646   N     0.13064   0.03111   0.77676   0.00000  Uiso   1.00
C647   C     0.37559   0.07074   0.78614   0.00000  Uiso   1.00
N648   N     0.35351   0.03208   0.76819   0.00000  Uiso   1.00
C649   C     0.12441   0.26260   0.88053   0.00000  Uiso   1.00
N650   N     0.14649   0.30125   0.89848   0.00000  Uiso   1.00
C651   C     0.74856   0.06659   0.81778   0.00000  Uiso   1.00
C652   C     0.75144   0.26674   0.84889   0.00000  Uiso   1.00
C653   C     0.51744   0.07143   0.79179   0.00000  Uiso   1.00
C654   C     0.98256   0.26190   0.87488   0.00000  Uiso   1.00
C655   C     0.74779   0.01060   0.80903   0.00000  Uiso   1.00
C656   C     0.75221   0.32273   0.85764   0.00000  Uiso   1.00
C657   C     0.66473   0.16656   0.83430   0.00000  Uiso   1.00
C658   C     0.83527   0.16677   0.83237   0.00000  Uiso   1.00
C659   C     0.90908   0.21477   0.85224   0.00000  Uiso   1.00
C660   C     0.59092   0.11856   0.81443   0.00000  Uiso   1.00
C661   C     0.88338   0.16702   0.83032   0.00000  Uiso   1.00
C662   C     0.61662   0.16632   0.83634   0.00000  Uiso   1.00
C663   C     0.90339   0.11927   0.80861   0.00000  Uiso   1.00
C664   C     0.59661   0.21406   0.85806   0.00000  Uiso   1.00
C665   C     0.95017   0.11890   0.81006   0.00000  Uiso   1.00
C666   C     0.54982   0.21444   0.85661   0.00000  Uiso   1.00
C667   C     0.97647   0.16677   0.83248   0.00000  Uiso   1.00
C668   C     0.52353   0.16656   0.83419   0.00000  Uiso   1.00
C669   C     0.95585   0.21486   0.85324   0.00000  Uiso   1.00
C670   C     0.54414   0.11847   0.81343   0.00000  Uiso   1.00
C671   C     0.97134   0.07165   0.79008   0.00000  Uiso   1.00
C672   C     0.52866   0.26169   0.87659   0.00000  Uiso   1.00
Cu673  Cu    0.75500   0.17246   0.89479   0.00000  Uiso   1.00
Cu674  Cu    0.74499   0.16087   0.77187   0.00000  Uiso   1.00
H675   H     0.95247   0.03424   0.77294   0.00000  Uiso   1.00
H676   H     0.54753   0.29910   0.89372   0.00000  Uiso   1.00
H677   H     0.53191   0.03388   0.77580   0.00000  Uiso   1.00
H678   H     0.96809   0.29945   0.89087   0.00000  Uiso   1.00
H679   H     0.74365   0.32007   0.76217   0.00000  Uiso   1.00
H680   H     0.75635   0.01326   0.90450   0.00000  Uiso   1.00
H681   H     0.71510   0.12595   0.98292   0.00000  Uiso   1.00
H682   H     0.78490   0.20738   0.68375   0.00000  Uiso   1.00
N683   N     0.73744   0.15214   0.67951   0.00000  Uiso   1.00
N684   N     0.76255   0.18119   0.98716   0.00000  Uiso   1.00
O685   O     0.75325   0.09538   0.87326   0.00000  Uiso   1.00
O686   O     0.74674   0.23796   0.79341   0.00000  Uiso   1.00
O687   O     0.74480   0.08559   0.76945   0.00000  Uiso   1.00
O688   O     0.75520   0.24774   0.89721   0.00000  Uiso   1.00
O689   O     0.68935   0.17155   0.88524   0.00000  Uiso   1.00
O690   O     0.81064   0.16179   0.78143   0.00000  Uiso   1.00
O691   O     0.68090   0.16176   0.78143   0.00000  Uiso   1.00
O692   O     0.81910   0.17157   0.88523   0.00000  Uiso   1.00
C693   C     0.88697   0.26348   0.87322   0.00000  Uiso   1.00
N694   N     0.86936   0.30222   0.88990   0.00000  Uiso   1.00
C695   C     0.61303   0.06985   0.79345   0.00000  Uiso   1.00
N696   N     0.63064   0.03111   0.77676   0.00000  Uiso   1.00
C697   C     0.87559   0.07074   0.78614   0.00000  Uiso   1.00
N698   N     0.85351   0.03208   0.76819   0.00000  Uiso   1.00
C699   C     0.62441   0.26260   0.88053   0.00000  Uiso   1.00
N700   N     0.64649   0.30125   0.89848   0.00000  Uiso   1.00
C701   C     0.24856   0.39992   0.81778   0.00000  Uiso   1.00
C702   C     0.25144   0.60008   0.84889   0.00000  Uiso   1.00
C703   C     0.01744   0.40476   0.79179   0.00000  Uiso   1.00
C704   C     0.48256   0.59524   0.87488   0.00000  Uiso   1.00
C705   C     0.24779   0.34394   0.80903   0.00000  Uiso   1.00
C706   C     0.25221   0.65606   0.85764   0.00000  Uiso   1.00
C707   C     0.16473   0.49989   0.83430   0.00000  Uiso   1.00
C708   C     0.33527   0.50010   0.83237   0.00000  Uiso   1.00
C709   C     0.40908   0.54810   0.85224   0.00000  Uiso   1.00
C710   C     0.09092   0.45190   0.81443   0.00000  Uiso   1.00
C711   C     0.38338   0.50035   0.83032   0.00000  Uiso   1.00
C712   C     0.11662   0.49965   0.83634   0.00000  Uiso   1.00
C713   C     0.40339   0.45261   0.80861   0.00000  Uiso   1.00
C714   C     0.09661   0.54739   0.85806   0.00000  Uiso   1.00
C715   C     0.45017   0.45223   0.81006   0.00000  Uiso   1.00
C716   C     0.04982   0.54777   0.85661   0.00000  Uiso   1.00
C717   C     0.47647   0.50011   0.83248   0.00000  Uiso   1.00
C718   C     0.02353   0.49989   0.83419   0.00000  Uiso   1.00
C719   C     0.45585   0.54819   0.85324   0.00000  Uiso   1.00
C720   C     0.04414   0.45181   0.81343   0.00000  Uiso   1.00
C721   C     0.47134   0.40498   0.79008   0.00000  Uiso   1.00
C722   C     0.02866   0.59502   0.87659   0.00000  Uiso   1.00
Cu723  Cu    0.25500   0.50579   0.89479   0.00000  Uiso   1.00
Cu724  Cu    0.24499   0.49421   0.77187   0.00000  Uiso   1.00
H725   H     0.45247   0.36757   0.77294   0.00000  Uiso   1.00
H726   H     0.04753   0.63243   0.89372   0.00000  Uiso   1.00
H727   H     0.03191   0.36722   0.77580   0.00000  Uiso   1.00
H728   H     0.46809   0.63278   0.89087   0.00000  Uiso   1.00
H729   H     0.24365   0.65340   0.76217   0.00000  Uiso   1.00
H730   H     0.25635   0.34660   0.90450   0.00000  Uiso   1.00
H731   H     0.21510   0.45929   0.98292   0.00000  Uiso   1.00
H732   H     0.28490   0.54071   0.68375   0.00000  Uiso   1.00
N733   N     0.23744   0.48547   0.67951   0.00000  Uiso   1.00
N734   N     0.26255   0.51453   0.98716   0.00000  Uiso   1.00
O735   O     0.25325   0.42871   0.87326   0.00000  Uiso   1.00
O736   O     0.24674   0.57129   0.79341   0.00000  Uiso   1.00
O737   O     0.24480   0.41892   0.76945   0.00000  Uiso   1.00
O738   O     0.25520   0.58108   0.89721   0.00000  Uiso   1.00
O739   O     0.18935   0.50488   0.88524   0.00000  Uiso   1.00
O740   O     0.31064   0.49512   0.78143   0.00000  Uiso   1.00
O741   O     0.18090   0.49510   0.78143   0.00000  Uiso   1.00
O742   O     0.31910   0.50490   0.88523   0.00000  Uiso   1.00
C743   C     0.38697   0.59681   0.87322   0.00000  Uiso   1.00
N744   N     0.36936   0.63555   0.88990   0.00000  Uiso   1.00
C745   C     0.11303   0.40319   0.79345   0.00000  Uiso   1.00
N746   N     0.13064   0.36445   0.77676   0.00000  Uiso   1.00
C747   C     0.37559   0.40407   0.78614   0.00000  Uiso   1.00
N748   N     0.35351   0.36541   0.76819   0.00000  Uiso   1.00
C749   C     0.12441   0.59593   0.88053   0.00000  Uiso   1.00
N750   N     0.14649   0.63459   0.89848   0.00000  Uiso   1.00
C751   C     0.74856   0.39992   0.81778   0.00000  Uiso   1.00
C752   C     0.75144   0.60008   0.84889   0.00000  Uiso   1.00
C753   C     0.51744   0.40476   0.79179   0.00000  Uiso   1.00
C754   C     0.98256   0.59524   0.87488   0.00000  Uiso   1.00
C755   C     0.74779   0.34394   0.80903   0.00000  Uiso   1.00
C756   C     0.75221   0.65606   0.85764   0.00000  Uiso   1.00
C757   C     0.66473   0.49989   0.83430   0.00000  Uiso   1.00
C758   C     0.83527   0.50010   0.83237   0.00000  Uiso   1.00
C759   C     0.90908   0.54810   0.85224   0.00000  Uiso   1.00
C760   C     0.59092   0.45190   0.81443   0.00000  Uiso   1.00
C761   C     0.88338   0.50035   0.83032   0.00000  Uiso   1.00
C762   C     0.61662   0.49965   0.83634   0.00000  Uiso   1.00
C763   C     0.90339   0.45261   0.80861   0.00000  Uiso   1.00
C764   C     0.59661   0.54739   0.85806   0.00000  Uiso   1.00
C765   C     0.95017   0.45223   0.81006   0.00000  Uiso   1.00
C766   C     0.54982   0.54777   0.85661   0.00000  Uiso   1.00
C767   C     0.97647   0.50011   0.83248   0.00000  Uiso   1.00
C768   C     0.52353   0.49989   0.83419   0.00000  Uiso   1.00
C769   C     0.95585   0.54819   0.85324   0.00000  Uiso   1.00
C770   C     0.54414   0.45181   0.81343   0.00000  Uiso   1.00
C771   C     0.97134   0.40498   0.79008   0.00000  Uiso   1.00
C772   C     0.52866   0.59502   0.87659   0.00000  Uiso   1.00
Cu773  Cu    0.75500   0.50579   0.89479   0.00000  Uiso   1.00
Cu774  Cu    0.74499   0.49421   0.77187   0.00000  Uiso   1.00
H775   H     0.95247   0.36757   0.77294   0.00000  Uiso   1.00
H776   H     0.54753   0.63243   0.89372   0.00000  Uiso   1.00
H777   H     0.53191   0.36722   0.77580   0.00000  Uiso   1.00
H778   H     0.96809   0.63278   0.89087   0.00000  Uiso   1.00
H779   H     0.74365   0.65340   0.76217   0.00000  Uiso   1.00
H780   H     0.75635   0.34660   0.90450   0.00000  Uiso   1.00
H781   H     0.71510   0.45929   0.98292   0.00000  Uiso   1.00
H782   H     0.78490   0.54071   0.68375   0.00000  Uiso   1.00
N783   N     0.73744   0.48547   0.67951   0.00000  Uiso   1.00
N784   N     0.76255   0.51453   0.98716   0.00000  Uiso   1.00
O785   O     0.75325   0.42871   0.87326   0.00000  Uiso   1.00
O786   O     0.74674   0.57129   0.79341   0.00000  Uiso   1.00
O787   O     0.74480   0.41892   0.76945   0.00000  Uiso   1.00
O788   O     0.75520   0.58108   0.89721   0.00000  Uiso   1.00
O789   O     0.68935   0.50488   0.88524   0.00000  Uiso   1.00
O790   O     0.81064   0.49512   0.78143   0.00000  Uiso   1.00
O791   O     0.68090   0.49510   0.78143   0.00000  Uiso   1.00
O792   O     0.81910   0.50490   0.88523   0.00000  Uiso   1.00
C793   C     0.88697   0.59681   0.87322   0.00000  Uiso   1.00
N794   N     0.86936   0.63555   0.88990   0.00000  Uiso   1.00
C795   C     0.61303   0.40319   0.79345   0.00000  Uiso   1.00
N796   N     0.63064   0.36445   0.77676   0.00000  Uiso   1.00
C797   C     0.87559   0.40407   0.78614   0.00000  Uiso   1.00
N798   N     0.85351   0.36541   0.76819   0.00000  Uiso   1.00
C799   C     0.62441   0.59593   0.88053   0.00000  Uiso   1.00
N800   N     0.64649   0.63459   0.89848   0.00000  Uiso   1.00
C801   C     0.24856   0.73326   0.81778   0.00000  Uiso   1.00
C802   C     0.25144   0.93341   0.84889   0.00000  Uiso   1.00
C803   C     0.01744   0.73810   0.79179   0.00000  Uiso   1.00
C804   C     0.48256   0.92857   0.87488   0.00000  Uiso   1.00
C805   C     0.24779   0.67727   0.80903   0.00000  Uiso   1.00
C806   C     0.25221   0.98940   0.85764   0.00000  Uiso   1.00
C807   C     0.16473   0.83323   0.83430   0.00000  Uiso   1.00
C808   C     0.33527   0.83344   0.83237   0.00000  Uiso   1.00
C809   C     0.40908   0.88144   0.85224   0.00000  Uiso   1.00
C810   C     0.09092   0.78523   0.81443   0.00000  Uiso   1.00
C811   C     0.38338   0.83368   0.83032   0.00000  Uiso   1.00
C812   C     0.11662   0.83298   0.83634   0.00000  Uiso   1.00
C813   C     0.40339   0.78594   0.80861   0.00000  Uiso   1.00
C814   C     0.09661   0.88073   0.85806   0.00000  Uiso   1.00
C815   C     0.45017   0.78556   0.81006   0.00000  Uiso   1.00
C816   C     0.04982   0.88110   0.85661   0.00000  Uiso   1.00
C817   C     0.47647   0.83344   0.83248   0.00000  Uiso   1.00
C818   C     0.02353   0.83323   0.83419   0.00000  Uiso   1.00
C819   C     0.45585   0.88153   0.85324   0.00000  Uiso   1.00
C820   C     0.04414   0.78514   0.81343   0.00000  Uiso   1.00
C821   C     0.47134   0.73831   0.79008   0.00000  Uiso   1.00
C822   C     0.02866   0.92835   0.87659   0.00000  Uiso   1.00
Cu823  Cu    0.25500   0.83913   0.89479   0.00000  Uiso   1.00
Cu824  Cu    0.24499   0.82754   0.77187   0.00000  Uiso   1.00
H825   H     0.45247   0.70090   0.77294   0.00000  Uiso   1.00
H826   H     0.04753   0.96576   0.89372   0.00000  Uiso   1.00
H827   H     0.03191   0.70055   0.77580   0.00000  Uiso   1.00
H828   H     0.46809   0.96612   0.89087   0.00000  Uiso   1.00
H829   H     0.24365   0.98674   0.76217   0.00000  Uiso   1.00
H830   H     0.25635   0.67993   0.90450   0.00000  Uiso   1.00
H831   H     0.21510   0.79262   0.98292   0.00000  Uiso   1.00
H832   H     0.28490   0.87405   0.68375   0.00000  Uiso   1.00
N833   N     0.23744   0.81881   0.67951   0.00000  Uiso   1.00
N834   N     0.26255   0.84786   0.98716   0.00000  Uiso   1.00
O835   O     0.25325   0.76204   0.87326   0.00000  Uiso   1.00
O836   O     0.24674   0.90462   0.79341   0.00000  Uiso   1.00
O837   O     0.24480   0.75226   0.76945   0.00000  Uiso   1.00
O838   O     0.25520   0.91441   0.89721   0.00000  Uiso   1.00
O839   O     0.18935   0.83821   0.88524   0.00000  Uiso   1.00
O840   O     0.31064   0.82845   0.78143   0.00000  Uiso   1.00
O841   O     0.18090   0.82843   0.78143   0.00000  Uiso   1.00
O842   O     0.31910   0.83824   0.88523   0.00000  Uiso   1.00
C843   C     0.38697   0.93014   0.87322   0.00000  Uiso   1.00
N844   N     0.36936   0.96889   0.88990   0.00000  Uiso   1.00
C845   C     0.11303   0.73652   0.79345   0.00000  Uiso   1.00
N846   N     0.13064   0.69778   0.77676   0.00000  Uiso   1.00
C847   C     0.37559   0.73740   0.78614   0.00000  Uiso   1.00
N848   N     0.35351   0.69875   0.76819   0.00000  Uiso   1.00
C849   C     0.12441   0.92926   0.88053   0.00000  Uiso   1.00
N850   N     0.14649   0.96792   0.89848   0.00000  Uiso   1.00
C851   C     0.74856   0.73326   0.81778   0.00000  Uiso   1.00
C852   C     0.75144   0.93341   0.84889   0.00000  Uiso   1.00
C853   C     0.51744   0.73810   0.79179   0.00000  Uiso   1.00
C854   C     0.98256   0.92857   0.87488   0.00000  Uiso   1.00
C855   C     0.74779   0.67727   0.80903   0.00000  Uiso   1.00
C856   C     0.75221   0.98940   0.85764   0.00000  Uiso   1.00
C857   C     0.66473   0.83323   0.83430   0.00000  Uiso   1.00
C858   C     0.83527   0.83344   0.83237   0.00000  Uiso   1.00
C859   C     0.90908   0.88144   0.85224   0.00000  Uiso   1.00
C860   C     0.59092   0.78523   0.81443   0.00000  Uiso   1.00
C861   C     0.88338   0.83368   0.83032   0.00000  Uiso   1.00
C862   C     0.61662   0.83298   0.83634   0.00000  Uiso   1.00
C863   C     0.90339   0.78594   0.80861   0.00000  Uiso   1.00
C864   C     0.59661   0.88073   0.85806   0.00000  Uiso   1.00
C865   C     0.95017   0.78556   0.81006   0.00000  Uiso   1.00
C866   C     0.54982   0.88110   0.85661   0.00000  Uiso   1.00
C867   C     0.97647   0.83344   0.83248   0.00000  Uiso   1.00
C868   C     0.52353   0.83323   0.83419   0.00000  Uiso   1.00
C869   C     0.95585   0.88153   0.85324   0.00000  Uiso   1.00
C870   C     0.54414   0.78514   0.81343   0.00000  Uiso   1.00
C871   C     0.97134   0.73831   0.79008   0.00000  Uiso   1.00
C872   C     0.52866   0.92835   0.87659   0.00000  Uiso   1.00
Cu873  Cu    0.75500   0.83913   0.89479   0.00000  Uiso   1.00
Cu874  Cu    0.74499   0.82754   0.77187   0.00000  Uiso   1.00
H875   H     0.95247   0.70090   0.77294   0.00000  Uiso   1.00
H876   H     0.54753   0.96576   0.89372   0.00000  Uiso   1.00
H877   H     0.53191   0.70055   0.77580   0.00000  Uiso   1.00
H878   H     0.96809   0.96612   0.89087   0.00000  Uiso   1.00
H879   H     0.74365   0.98674   0.76217   0.00000  Uiso   1.00
H880   H     0.75635   0.67993   0.90450   0.00000  Uiso   1.00
H881   H     0.71510   0.79262   0.98292   0.00000  Uiso   1.00
H882   H     0.78490   0.87405   0.68375   0.00000  Uiso   1.00
N883   N     0.73744   0.81881   0.67951   0.00000  Uiso   1.00
N884   N     0.76255   0.84786   0.98716   0.00000  Uiso   1.00
O885   O     0.75325   0.76204   0.87326   0.00000  Uiso   1.00
O886   O     0.74674   0.90462   0.79341   0.00000  Uiso   1.00
O887   O     0.74480   0.75226   0.76945   0.00000  Uiso   1.00
O888   O     0.75520   0.91441   0.89721   0.00000  Uiso   1.00
O889   O     0.68935   0.83821   0.88524   0.00000  Uiso   1.00
O890   O     0.81064   0.82845   0.78143   0.00000  Uiso   1.00
O891   O     0.68090   0.82843   0.78143   0.00000  Uiso   1.00
O892   O     0.81910   0.83824   0.88523   0.00000  Uiso   1.00
C893   C     0.88697   0.93014   0.87322   0.00000  Uiso   1.00
N894   N     0.86936   0.96889   0.88990   0.00000  Uiso   1.00
C895   C     0.61303   0.73652   0.79345   0.00000  Uiso   1.00
N896   N     0.63064   0.69778   0.77676   0.00000  Uiso   1.00
C897   C     0.87559   0.73740   0.78614   0.00000  Uiso   1.00
N898   N     0.85351   0.69875   0.76819   0.00000  Uiso   1.00
C899   C     0.62441   0.92926   0.88053   0.00000  Uiso   1.00
N900   N     0.64649   0.96792   0.89848   0.00000  Uiso   1.00
loop_
_geom_bond_atom_site_label_1
_geom_bond_atom_site_label_2
_geom_bond_distance
_geom_bond_site_symmetry_2
_ccdc_geom_bond_type
C1     O37     1.285   .     A
C1     C5      1.424   .     S
C1     O35     1.293   .     A
C2     O38     1.285   .     A
C2     C6      1.424   .     S
C2     O36     1.293   .     A
C3     H27     1.083   .     S
C3     C20     1.405   .     A
C3     C71     1.385   1_455 S
C4     H28     1.083   .     S
C4     C19     1.405   .     A
C4     C72     1.385   .     S
C5     C206    1.325   1_545 S
C5     H229    1.088   1_545 S
C6     C105    1.325   .     S
C6     H130    1.088   .     S
C7     O41     1.291   .     A
C7     C12     1.451   .     S
C7     O39     1.293   .     A
C8     C11     1.451   .     S
C8     O42     1.291   .     A
C8     O40     1.293   .     A
C9     C11     1.405   .     A
C9     C43     1.455   .     S
C9     C19     1.405   .     A
C10    C45     1.455   .     S
C10    C12     1.405   .     A
C10    C20     1.405   .     A
C11    C13     1.405   .     A
C12    C14     1.405   .     A
C13    C15     1.406   .     A
C13    C47     1.454   .     S
C14    C16     1.406   .     A
C14    C49     1.454   .     S
C15    C21     1.405   .     A
C15    C17     1.418   .     A
C16    C22     1.405   .     A
C16    C18     1.418   .     A
C17    C19     1.418   .     A
C17    C68     1.414   .     S
C18    C20     1.418   .     A
C18    C67     1.414   1_455 S
C21    H25     1.083   .     S
C21    C53     1.385   .     S
C22    H26     1.083   .     S
C22    C54     1.385   1_455 S
Cu23   Cu24    2.691   .     S
Cu23   O38     1.946   .     S
Cu23   O35     1.952   .     S
Cu23   N34     2.022   .     S
Cu23   O42     1.954   .     S
Cu23   O39     1.970   .     S
Cu24   O37     1.946   .     S
Cu24   O41     1.954   .     S
Cu24   O36     1.952   .     S
Cu24   O40     1.970   .     S
Cu24   N33     2.022   .     S
H29    C105    1.088   .     S
H30    C206    1.088   1_545 S
H31    N333    1.029   .     S
H32    N634    1.029   1_554 S
N33    H631    1.029   1_554 S
N33    N634    1.294   1_554 S
N34    N333    1.294   .     S
N34    H332    1.029   .     S
C43    N44     1.157   .     T
C45    N46     1.157   .     T
C47    N48     1.157   .     T
C49    N50     1.157   .     T
C51    O87     1.285   .     A
C51    C55     1.424   .     S
C51    O85     1.293   .     A
C52    O88     1.285   .     A
C52    C56     1.424   .     S
C52    O86     1.293   .     A
C53    H77     1.083   .     S
C53    C70     1.405   .     A
C54    H78     1.083   .     S
C54    C69     1.405   .     A
C54    C22     1.385   1_655 S
C55    C256    1.325   1_545 S
C55    H279    1.088   1_545 S
C56    C155    1.325   .     S
C56    H180    1.088   .     S
C57    O91     1.291   .     A
C57    C62     1.451   .     S
C57    O89     1.293   .     A
C58    C61     1.451   .     S
C58    O92     1.291   .     A
C58    O90     1.293   .     A
C59    C61     1.405   .     A
C59    C93     1.455   .     S
C59    C69     1.405   .     A
C60    C95     1.455   .     S
C60    C62     1.405   .     A
C60    C70     1.405   .     A
C61    C63     1.405   .     A
C62    C64     1.405   .     A
C63    C65     1.406   .     A
C63    C97     1.454   .     S
C64    C66     1.406   .     A
C64    C99     1.454   .     S
C65    C71     1.405   .     A
C65    C67     1.418   .     A
C66    C72     1.405   .     A
C66    C68     1.418   .     A
C67    C69     1.418   .     A
C67    C18     1.414   1_655 S
C68    C70     1.418   .     A
C71    H75     1.083   .     S
C71    C3      1.385   1_655 S
C72    H76     1.083   .     S
Cu73   Cu74    2.691   .     S
Cu73   O88     1.946   .     S
Cu73   O85     1.952   .     S
Cu73   N84     2.022   .     S
Cu73   O92     1.954   .     S
Cu73   O89     1.970   .     S
Cu74   O87     1.946   .     S
Cu74   O91     1.954   .     S
Cu74   O86     1.952   .     S
Cu74   O90     1.970   .     S
Cu74   N83     2.022   .     S
H79    C155    1.088   .     S
H80    C256    1.088   1_545 S
H81    N383    1.029   .     S
H82    N684    1.029   1_554 S
N83    H681    1.029   1_554 S
N83    N684    1.294   1_554 S
N84    N383    1.294   .     S
N84    H382    1.029   .     S
C93    N94     1.157   .     T
C95    N96     1.157   .     T
C97    N98     1.157   .     T
C99    N100    1.157   .     T
C101   O137    1.285   .     A
C101   C105    1.424   .     S
C101   O135    1.293   .     A
C102   O138    1.285   .     A
C102   C106    1.424   .     S
C102   O136    1.293   .     A
C103   H127    1.083   .     S
C103   C120    1.405   .     A
C103   C171    1.385   1_455 S
C104   H128    1.083   .     S
C104   C119    1.405   .     A
C104   C172    1.385   .     S
C106   C205    1.325   .     S
C106   H230    1.088   .     S
C107   O141    1.291   .     A
C107   C112    1.451   .     S
C107   O139    1.293   .     A
C108   C111    1.451   .     S
C108   O142    1.291   .     A
C108   O140    1.293   .     A
C109   C111    1.405   .     A
C109   C143    1.455   .     S
C109   C119    1.405   .     A
C110   C145    1.455   .     S
C110   C112    1.405   .     A
C110   C120    1.405   .     A
C111   C113    1.405   .     A
C112   C114    1.405   .     A
C113   C115    1.406   .     A
C113   C147    1.454   .     S
C114   C116    1.406   .     A
C114   C149    1.454   .     S
C115   C121    1.405   .     A
C115   C117    1.418   .     A
C116   C122    1.405   .     A
C116   C118    1.418   .     A
C117   C119    1.418   .     A
C117   C168    1.414   .     S
C118   C120    1.418   .     A
C118   C167    1.414   1_455 S
C121   H125    1.083   .     S
C121   C153    1.385   .     S
C122   H126    1.083   .     S
C122   C154    1.385   1_455 S
Cu123  Cu124   2.691   .     S
Cu123  O138    1.946   .     S
Cu123  O135    1.952   .     S
Cu123  N134    2.022   .     S
Cu123  O142    1.954   .     S
Cu123  O139    1.970   .     S
Cu124  O137    1.946   .     S
Cu124  O141    1.954   .     S
Cu124  O136    1.952   .     S
Cu124  O140    1.970   .     S
Cu124  N133    2.022   .     S
H129   C205    1.088   .     S
H131   N433    1.029   .     S
H132   N734    1.029   1_554 S
N133   H731    1.029   1_554 S
N133   N734    1.294   1_554 S
N134   N433    1.294   .     S
N134   H432    1.029   .     S
C143   N144    1.157   .     T
C145   N146    1.157   .     T
C147   N148    1.157   .     T
C149   N150    1.157   .     T
C151   O187    1.285   .     A
C151   C155    1.424   .     S
C151   O185    1.293   .     A
C152   O188    1.285   .     A
C152   C156    1.424   .     S
C152   O186    1.293   .     A
C153   H177    1.083   .     S
C153   C170    1.405   .     A
C154   H178    1.083   .     S
C154   C169    1.405   .     A
C154   C122    1.385   1_655 S
C156   C255    1.325   .     S
C156   H280    1.088   .     S
C157   O191    1.291   .     A
C157   C162    1.451   .     S
C157   O189    1.293   .     A
C158   C161    1.451   .     S
C158   O192    1.291   .     A
C158   O190    1.293   .     A
C159   C161    1.405   .     A
C159   C193    1.455   .     S
C159   C169    1.405   .     A
C160   C195    1.455   .     S
C160   C162    1.405   .     A
C160   C170    1.405   .     A
C161   C163    1.405   .     A
C162   C164    1.405   .     A
C163   C165    1.406   .     A
C163   C197    1.454   .     S
C164   C166    1.406   .     A
C164   C199    1.454   .     S
C165   C171    1.405   .     A
C165   C167    1.418   .     A
C166   C172    1.405   .     A
C166   C168    1.418   .     A
C167   C169    1.418   .     A
C167   C118    1.414   1_655 S
C168   C170    1.418   .     A
C171   H175    1.083   .     S
C171   C103    1.385   1_655 S
C172   H176    1.083   .     S
Cu173  Cu174   2.691   .     S
Cu173  O188    1.946   .     S
Cu173  O185    1.952   .     S
Cu173  N184    2.022   .     S
Cu173  O192    1.954   .     S
Cu173  O189    1.970   .     S
Cu174  O187    1.946   .     S
Cu174  O191    1.954   .     S
Cu174  O186    1.952   .     S
Cu174  O190    1.970   .     S
Cu174  N183    2.022   .     S
H179   C255    1.088   .     S
H181   N483    1.029   .     S
H182   N784    1.029   1_554 S
N183   H781    1.029   1_554 S
N183   N784    1.294   1_554 S
N184   N483    1.294   .     S
N184   H482    1.029   .     S
C193   N194    1.157   .     T
C195   N196    1.157   .     T
C197   N198    1.157   .     T
C199   N200    1.157   .     T
C201   O237    1.285   .     A
C201   C205    1.424   .     S
C201   O235    1.293   .     A
C202   O238    1.285   .     A
C202   C206    1.424   .     S
C202   O236    1.293   .     A
C203   H227    1.083   .     S
C203   C220    1.405   .     A
C203   C271    1.385   1_455 S
C204   H228    1.083   .     S
C204   C219    1.405   .     A
C204   C272    1.385   .     S
C206   C5      1.325   1_565 S
C206   H30     1.088   1_565 S
C207   O241    1.291   .     A
C207   C212    1.451   .     S
C207   O239    1.293   .     A
C208   C211    1.451   .     S
C208   O242    1.291   .     A
C208   O240    1.293   .     A
C209   C211    1.405   .     A
C209   C243    1.455   .     S
C209   C219    1.405   .     A
C210   C245    1.455   .     S
C210   C212    1.405   .     A
C210   C220    1.405   .     A
C211   C213    1.405   .     A
C212   C214    1.405   .     A
C213   C215    1.406   .     A
C213   C247    1.454   .     S
C214   C216    1.406   .     A
C214   C249    1.454   .     S
C215   C221    1.405   .     A
C215   C217    1.418   .     A
C216   C222    1.405   .     A
C216   C218    1.418   .     A
C217   C219    1.418   .     A
C217   C268    1.414   .     S
C218   C220    1.418   .     A
C218   C267    1.414   1_455 S
C221   H225    1.083   .     S
C221   C253    1.385   .     S
C222   H226    1.083   .     S
C222   C254    1.385   1_455 S
Cu223  Cu224   2.691   .     S
Cu223  O238    1.946   .     S
Cu223  O235    1.952   .     S
Cu223  N234    2.022   .     S
Cu223  O242    1.954   .     S
Cu223  O239    1.970   .     S
Cu224  O237    1.946   .     S
Cu224  O241    1.954   .     S
Cu224  O236    1.952   .     S
Cu224  O240    1.970   .     S
Cu224  N233    2.022   .     S
H229   C5      1.088   1_565 S
H231   N533    1.029   .     S
H232   N834    1.029   1_554 S
N233   H831    1.029   1_554 S
N233   N834    1.294   1_554 S
N234   N533    1.294   .     S
N234   H532    1.029   .     S
C243   N244    1.157   .     T
C245   N246    1.157   .     T
C247   N248    1.157   .     T
C249   N250    1.157   .     T
C251   O287    1.285   .     A
C251   C255    1.424   .     S
C251   O285    1.293   .     A
C252   O288    1.285   .     A
C252   C256    1.424   .     S
C252   O286    1.293   .     A
C253   H277    1.083   .     S
C253   C270    1.405   .     A
C254   H278    1.083   .     S
C254   C269    1.405   .     A
C254   C222    1.385   1_655 S
C256   C55     1.325   1_565 S
C256   H80     1.088   1_565 S
C257   O291    1.291   .     A
C257   C262    1.451   .     S
C257   O289    1.293   .     A
C258   C261    1.451   .     S
C258   O292    1.291   .     A
C258   O290    1.293   .     A
C259   C261    1.405   .     A
C259   C293    1.455   .     S
C259   C269    1.405   .     A
C260   C295    1.455   .     S
C260   C262    1.405   .     A
C260   C270    1.405   .     A
C261   C263    1.405   .     A
C262   C264    1.405   .     A
C263   C265    1.406   .     A
C263   C297    1.454   .     S
C264   C266    1.406   .     A
C264   C299    1.454   .     S
C265   C271    1.405   .     A
C265   C267    1.418   .     A
C266   C272    1.405   .     A
C266   C268    1.418   .     A
C267   C269    1.418   .     A
C267   C218    1.414   1_655 S
C268   C270    1.418   .     A
C271   H275    1.083   .     S
C271   C203    1.385   1_655 S
C272   H276    1.083   .     S
Cu273  Cu274   2.691   .     S
Cu273  O288    1.946   .     S
Cu273  O285    1.952   .     S
Cu273  N284    2.022   .     S
Cu273  O292    1.954   .     S
Cu273  O289    1.970   .     S
Cu274  O287    1.946   .     S
Cu274  O291    1.954   .     S
Cu274  O286    1.952   .     S
Cu274  O290    1.970   .     S
Cu274  N283    2.022   .     S
H279   C55     1.088   1_565 S
H281   N583    1.029   .     S
H282   N884    1.029   1_554 S
N283   H881    1.029   1_554 S
N283   N884    1.294   1_554 S
N284   N583    1.294   .     S
N284   H582    1.029   .     S
C293   N294    1.157   .     T
C295   N296    1.157   .     T
C297   N298    1.157   .     T
C299   N300    1.157   .     T
C301   O337    1.285   .     A
C301   C305    1.424   .     S
C301   O335    1.293   .     A
C302   O338    1.285   .     A
C302   C306    1.424   .     S
C302   O336    1.293   .     A
C303   H327    1.083   .     S
C303   C320    1.405   .     A
C303   C371    1.385   1_455 S
C304   H328    1.083   .     S
C304   C319    1.405   .     A
C304   C372    1.385   .     S
C305   C506    1.325   1_545 S
C305   H529    1.088   1_545 S
C306   C405    1.325   .     S
C306   H430    1.088   .     S
C307   O341    1.291   .     A
C307   C312    1.451   .     S
C307   O339    1.293   .     A
C308   C311    1.451   .     S
C308   O342    1.291   .     A
C308   O340    1.293   .     A
C309   C311    1.405   .     A
C309   C343    1.455   .     S
C309   C319    1.405   .     A
C310   C345    1.455   .     S
C310   C312    1.405   .     A
C310   C320    1.405   .     A
C311   C313    1.405   .     A
C312   C314    1.405   .     A
C313   C315    1.406   .     A
C313   C347    1.454   .     S
C314   C316    1.406   .     A
C314   C349    1.454   .     S
C315   C321    1.405   .     A
C315   C317    1.418   .     A
C316   C322    1.405   .     A
C316   C318    1.418   .     A
C317   C319    1.418   .     A
C317   C368    1.414   .     S
C318   C320    1.418   .     A
C318   C367    1.414   1_455 S
C321   H325    1.083   .     S
C321   C353    1.385   .     S
C322   H326    1.083   .     S
C322   C354    1.385   1_455 S
Cu323  Cu324   2.691   .     S
Cu323  O338    1.946   .     S
Cu323  O335    1.952   .     S
Cu323  N334    2.022   .     S
Cu323  O342    1.954   .     S
Cu323  O339    1.970   .     S
Cu324  O337    1.946   .     S
Cu324  O341    1.954   .     S
Cu324  O336    1.952   .     S
Cu324  O340    1.970   .     S
Cu324  N333    2.022   .     S
H329   C405    1.088   .     S
H330   C506    1.088   1_545 S
H331   N633    1.029   .     S
N334   N633    1.294   .     S
N334   H632    1.029   .     S
C343   N344    1.157   .     T
C345   N346    1.157   .     T
C347   N348    1.157   .     T
C349   N350    1.157   .     T
C351   O387    1.285   .     A
C351   C355    1.424   .     S
C351   O385    1.293   .     A
C352   O388    1.285   .     A
C352   C356    1.424   .     S
C352   O386    1.293   .     A
C353   H377    1.083   .     S
C353   C370    1.405   .     A
C354   H378    1.083   .     S
C354   C369    1.405   .     A
C354   C322    1.385   1_655 S
C355   C556    1.325   1_545 S
C355   H579    1.088   1_545 S
C356   C455    1.325   .     S
C356   H480    1.088   .     S
C357   O391    1.291   .     A
C357   C362    1.451   .     S
C357   O389    1.293   .     A
C358   C361    1.451   .     S
C358   O392    1.291   .     A
C358   O390    1.293   .     A
C359   C361    1.405   .     A
C359   C393    1.455   .     S
C359   C369    1.405   .     A
C360   C395    1.455   .     S
C360   C362    1.405   .     A
C360   C370    1.405   .     A
C361   C363    1.405   .     A
C362   C364    1.405   .     A
C363   C365    1.406   .     A
C363   C397    1.454   .     S
C364   C366    1.406   .     A
C364   C399    1.454   .     S
C365   C371    1.405   .     A
C365   C367    1.418   .     A
C366   C372    1.405   .     A
C366   C368    1.418   .     A
C367   C369    1.418   .     A
C367   C318    1.414   1_655 S
C368   C370    1.418   .     A
C371   H375    1.083   .     S
C371   C303    1.385   1_655 S
C372   H376    1.083   .     S
Cu373  Cu374   2.691   .     S
Cu373  O388    1.946   .     S
Cu373  O385    1.952   .     S
Cu373  N384    2.022   .     S
Cu373  O392    1.954   .     S
Cu373  O389    1.970   .     S
Cu374  O387    1.946   .     S
Cu374  O391    1.954   .     S
Cu374  O386    1.952   .     S
Cu374  O390    1.970   .     S
Cu374  N383    2.022   .     S
H379   C455    1.088   .     S
H380   C556    1.088   1_545 S
H381   N683    1.029   .     S
N384   N683    1.294   .     S
N384   H682    1.029   .     S
C393   N394    1.157   .     T
C395   N396    1.157   .     T
C397   N398    1.157   .     T
C399   N400    1.157   .     T
C401   O437    1.285   .     A
C401   C405    1.424   .     S
C401   O435    1.293   .     A
C402   O438    1.285   .     A
C402   C406    1.424   .     S
C402   O436    1.293   .     A
C403   H427    1.083   .     S
C403   C420    1.405   .     A
C403   C471    1.385   1_455 S
C404   H428    1.083   .     S
C404   C419    1.405   .     A
C404   C472    1.385   .     S
C406   C505    1.325   .     S
C406   H530    1.088   .     S
C407   O441    1.291   .     A
C407   C412    1.451   .     S
C407   O439    1.293   .     A
C408   C411    1.451   .     S
C408   O442    1.291   .     A
C408   O440    1.293   .     A
C409   C411    1.405   .     A
C409   C443    1.455   .     S
C409   C419    1.405   .     A
C410   C445    1.455   .     S
C410   C412    1.405   .     A
C410   C420    1.405   .     A
C411   C413    1.405   .     A
C412   C414    1.405   .     A
C413   C415    1.406   .     A
C413   C447    1.454   .     S
C414   C416    1.406   .     A
C414   C449    1.454   .     S
C415   C421    1.405   .     A
C415   C417    1.418   .     A
C416   C422    1.405   .     A
C416   C418    1.418   .     A
C417   C419    1.418   .     A
C417   C468    1.414   .     S
C418   C420    1.418   .     A
C418   C467    1.414   1_455 S
C421   H425    1.083   .     S
C421   C453    1.385   .     S
C422   H426    1.083   .     S
C422   C454    1.385   1_455 S
Cu423  Cu424   2.691   .     S
Cu423  O438    1.946   .     S
Cu423  O435    1.952   .     S
Cu423  N434    2.022   .     S
Cu423  O442    1.954   .     S
Cu423  O439    1.970   .     S
Cu424  O437    1.946   .     S
Cu424  O441    1.954   .     S
Cu424  O436    1.952   .     S
Cu424  O440    1.970   .     S
Cu424  N433    2.022   .     S
H429   C505    1.088   .     S
H431   N733    1.029   .     S
N434   N733    1.294   .     S
N434   H732    1.029   .     S
C443   N444    1.157   .     T
C445   N446    1.157   .     T
C447   N448    1.157   .     T
C449   N450    1.157   .     T
C451   O487    1.285   .     A
C451   C455    1.424   .     S
C451   O485    1.293   .     A
C452   O488    1.285   .     A
C452   C456    1.424   .     S
C452   O486    1.293   .     A
C453   H477    1.083   .     S
C453   C470    1.405   .     A
C454   H478    1.083   .     S
C454   C469    1.405   .     A
C454   C422    1.385   1_655 S
C456   C555    1.325   .     S
C456   H580    1.088   .     S
C457   O491    1.291   .     A
C457   C462    1.451   .     S
C457   O489    1.293   .     A
C458   C461    1.451   .     S
C458   O492    1.291   .     A
C458   O490    1.293   .     A
C459   C461    1.405   .     A
C459   C493    1.455   .     S
C459   C469    1.405   .     A
C460   C495    1.455   .     S
C460   C462    1.405   .     A
C460   C470    1.405   .     A
C461   C463    1.405   .     A
C462   C464    1.405   .     A
C463   C465    1.406   .     A
C463   C497    1.454   .     S
C464   C466    1.406   .     A
C464   C499    1.454   .     S
C465   C471    1.405   .     A
C465   C467    1.418   .     A
C466   C472    1.405   .     A
C466   C468    1.418   .     A
C467   C469    1.418   .     A
C467   C418    1.414   1_655 S
C468   C470    1.418   .     A
C471   H475    1.083   .     S
C471   C403    1.385   1_655 S
C472   H476    1.083   .     S
Cu473  Cu474   2.691   .     S
Cu473  O488    1.946   .     S
Cu473  O485    1.952   .     S
Cu473  N484    2.022   .     S
Cu473  O492    1.954   .     S
Cu473  O489    1.970   .     S
Cu474  O487    1.946   .     S
Cu474  O491    1.954   .     S
Cu474  O486    1.952   .     S
Cu474  O490    1.970   .     S
Cu474  N483    2.022   .     S
H479   C555    1.088   .     S
H481   N783    1.029   .     S
N484   N783    1.294   .     S
N484   H782    1.029   .     S
C493   N494    1.157   .     T
C495   N496    1.157   .     T
C497   N498    1.157   .     T
C499   N500    1.157   .     T
C501   O537    1.285   .     A
C501   C505    1.424   .     S
C501   O535    1.293   .     A
C502   O538    1.285   .     A
C502   C506    1.424   .     S
C502   O536    1.293   .     A
C503   H527    1.083   .     S
C503   C520    1.405   .     A
C503   C571    1.385   1_455 S
C504   H528    1.083   .     S
C504   C519    1.405   .     A
C504   C572    1.385   .     S
C506   C305    1.325   1_565 S
C506   H330    1.088   1_565 S
C507   O541    1.291   .     A
C507   C512    1.451   .     S
C507   O539    1.293   .     A
C508   C511    1.451   .     S
C508   O542    1.291   .     A
C508   O540    1.293   .     A
C509   C511    1.405   .     A
C509   C543    1.455   .     S
C509   C519    1.405   .     A
C510   C545    1.455   .     S
C510   C512    1.405   .     A
C510   C520    1.405   .     A
C511   C513    1.405   .     A
C512   C514    1.405   .     A
C513   C515    1.406   .     A
C513   C547    1.454   .     S
C514   C516    1.406   .     A
C514   C549    1.454   .     S
C515   C521    1.405   .     A
C515   C517    1.418   .     A
C516   C522    1.405   .     A
C516   C518    1.418   .     A
C517   C519    1.418   .     A
C517   C568    1.414   .     S
C518   C520    1.418   .     A
C518   C567    1.414   1_455 S
C521   H525    1.083   .     S
C521   C553    1.385   .     S
C522   H526    1.083   .     S
C522   C554    1.385   1_455 S
Cu523  Cu524   2.691   .     S
Cu523  O538    1.946   .     S
Cu523  O535    1.952   .     S
Cu523  N534    2.022   .     S
Cu523  O542    1.954   .     S
Cu523  O539    1.970   .     S
Cu524  O537    1.946   .     S
Cu524  O541    1.954   .     S
Cu524  O536    1.952   .     S
Cu524  O540    1.970   .     S
Cu524  N533    2.022   .     S
H529   C305    1.088   1_565 S
H531   N833    1.029   .     S
N534   N833    1.294   .     S
N534   H832    1.029   .     S
C543   N544    1.157   .     T
C545   N546    1.157   .     T
C547   N548    1.157   .     T
C549   N550    1.157   .     T
C551   O587    1.285   .     A
C551   C555    1.424   .     S
C551   O585    1.293   .     A
C552   O588    1.285   .     A
C552   C556    1.424   .     S
C552   O586    1.293   .     A
C553   H577    1.083   .     S
C553   C570    1.405   .     A
C554   H578    1.083   .     S
C554   C569    1.405   .     A
C554   C522    1.385   1_655 S
C556   C355    1.325   1_565 S
C556   H380    1.088   1_565 S
C557   O591    1.291   .     A
C557   C562    1.451   .     S
C557   O589    1.293   .     A
C558   C561    1.451   .     S
C558   O592    1.291   .     A
C558   O590    1.293   .     A
C559   C561    1.405   .     A
C559   C593    1.455   .     S
C559   C569    1.405   .     A
C560   C595    1.455   .     S
C560   C562    1.405   .     A
C560   C570    1.405   .     A
C561   C563    1.405   .     A
C562   C564    1.405   .     A
C563   C565    1.406   .     A
C563   C597    1.454   .     S
C564   C566    1.406   .     A
C564   C599    1.454   .     S
C565   C571    1.405   .     A
C565   C567    1.418   .     A
C566   C572    1.405   .     A
C566   C568    1.418   .     A
C567   C569    1.418   .     A
C567   C518    1.414   1_655 S
C568   C570    1.418   .     A
C571   H575    1.083   .     S
C571   C503    1.385   1_655 S
C572   H576    1.083   .     S
Cu573  Cu574   2.691   .     S
Cu573  O588    1.946   .     S
Cu573  O585    1.952   .     S
Cu573  N584    2.022   .     S
Cu573  O592    1.954   .     S
Cu573  O589    1.970   .     S
Cu574  O587    1.946   .     S
Cu574  O591    1.954   .     S
Cu574  O586    1.952   .     S
Cu574  O590    1.970   .     S
Cu574  N583    2.022   .     S
H579   C355    1.088   1_565 S
H581   N883    1.029   .     S
N584   N883    1.294   .     S
N584   H882    1.029   .     S
C593   N594    1.157   .     T
C595   N596    1.157   .     T
C597   N598    1.157   .     T
C599   N600    1.157   .     T
C601   O637    1.285   .     A
C601   C605    1.424   .     S
C601   O635    1.293   .     A
C602   O638    1.285   .     A
C602   C606    1.424   .     S
C602   O636    1.293   .     A
C603   H627    1.083   .     S
C603   C620    1.405   .     A
C603   C671    1.385   1_455 S
C604   H628    1.083   .     S
C604   C619    1.405   .     A
C604   C672    1.385   .     S
C605   C806    1.325   1_545 S
C605   H829    1.088   1_545 S
C606   C705    1.325   .     S
C606   H730    1.088   .     S
C607   O641    1.291   .     A
C607   C612    1.451   .     S
C607   O639    1.293   .     A
C608   C611    1.451   .     S
C608   O642    1.291   .     A
C608   O640    1.293   .     A
C609   C611    1.405   .     A
C609   C643    1.455   .     S
C609   C619    1.405   .     A
C610   C645    1.455   .     S
C610   C612    1.405   .     A
C610   C620    1.405   .     A
C611   C613    1.405   .     A
C612   C614    1.405   .     A
C613   C615    1.406   .     A
C613   C647    1.454   .     S
C614   C616    1.406   .     A
C614   C649    1.454   .     S
C615   C621    1.405   .     A
C615   C617    1.418   .     A
C616   C622    1.405   .     A
C616   C618    1.418   .     A
C617   C619    1.418   .     A
C617   C668    1.414   .     S
C618   C620    1.418   .     A
C618   C667    1.414   1_455 S
C621   H625    1.083   .     S
C621   C653    1.385   .     S
C622   H626    1.083   .     S
C622   C654    1.385   1_455 S
Cu623  Cu624   2.691   .     S
Cu623  O638    1.946   .     S
Cu623  O635    1.952   .     S
Cu623  N634    2.022   .     S
Cu623  O642    1.954   .     S
Cu623  O639    1.970   .     S
Cu624  O637    1.946   .     S
Cu624  O641    1.954   .     S
Cu624  O636    1.952   .     S
Cu624  O640    1.970   .     S
Cu624  N633    2.022   .     S
H629   C705    1.088   .     S
H630   C806    1.088   1_545 S
H631   N33     1.029   1_556 S
N634   N33     1.294   1_556 S
N634   H32     1.029   1_556 S
C643   N644    1.157   .     T
C645   N646    1.157   .     T
C647   N648    1.157   .     T
C649   N650    1.157   .     T
C651   O687    1.285   .     A
C651   C655    1.424   .     S
C651   O685    1.293   .     A
C652   O688    1.285   .     A
C652   C656    1.424   .     S
C652   O686    1.293   .     A
C653   H677    1.083   .     S
C653   C670    1.405   .     A
C654   H678    1.083   .     S
C654   C669    1.405   .     A
C654   C622    1.385   1_655 S
C655   C856    1.325   1_545 S
C655   H879    1.088   1_545 S
C656   C755    1.325   .     S
C656   H780    1.088   .     S
C657   O691    1.291   .     A
C657   C662    1.451   .     S
C657   O689    1.293   .     A
C658   C661    1.451   .     S
C658   O692    1.291   .     A
C658   O690    1.293   .     A
C659   C661    1.405   .     A
C659   C693    1.455   .     S
C659   C669    1.405   .     A
C660   C695    1.455   .     S
C660   C662    1.405   .     A
C660   C670    1.405   .     A
C661   C663    1.405   .     A
C662   C664    1.405   .     A
C663   C665    1.406   .     A
C663   C697    1.454   .     S
C664   C666    1.406   .     A
C664   C699    1.454   .     S
C665   C671    1.405   .     A
C665   C667    1.418   .     A
C666   C672    1.405   .     A
C666   C668    1.418   .     A
C667   C669    1.418   .     A
C667   C618    1.414   1_655 S
C668   C670    1.418   .     A
C671   H675    1.083   .     S
C671   C603    1.385   1_655 S
C672   H676    1.083   .     S
Cu673  Cu674   2.691   .     S
Cu673  O688    1.946   .     S
Cu673  O685    1.952   .     S
Cu673  N684    2.022   .     S
Cu673  O692    1.954   .     S
Cu673  O689    1.970   .     S
Cu674  O687    1.946   .     S
Cu674  O691    1.954   .     S
Cu674  O686    1.952   .     S
Cu674  O690    1.970   .     S
Cu674  N683    2.022   .     S
H679   C755    1.088   .     S
H680   C856    1.088   1_545 S
H681   N83     1.029   1_556 S
N684   N83     1.294   1_556 S
N684   H82     1.029   1_556 S
C693   N694    1.157   .     T
C695   N696    1.157   .     T
C697   N698    1.157   .     T
C699   N700    1.157   .     T
C701   O737    1.285   .     A
C701   C705    1.424   .     S
C701   O735    1.293   .     A
C702   O738    1.285   .     A
C702   C706    1.424   .     S
C702   O736    1.293   .     A
C703   H727    1.083   .     S
C703   C720    1.405   .     A
C703   C771    1.385   1_455 S
C704   H728    1.083   .     S
C704   C719    1.405   .     A
C704   C772    1.385   .     S
C706   C805    1.325   .     S
C706   H830    1.088   .     S
C707   O741    1.291   .     A
C707   C712    1.451   .     S
C707   O739    1.293   .     A
C708   C711    1.451   .     S
C708   O742    1.291   .     A
C708   O740    1.293   .     A
C709   C711    1.405   .     A
C709   C743    1.455   .     S
C709   C719    1.405   .     A
C710   C745    1.455   .     S
C710   C712    1.405   .     A
C710   C720    1.405   .     A
C711   C713    1.405   .     A
C712   C714    1.405   .     A
C713   C715    1.406   .     A
C713   C747    1.454   .     S
C714   C716    1.406   .     A
C714   C749    1.454   .     S
C715   C721    1.405   .     A
C715   C717    1.418   .     A
C716   C722    1.405   .     A
C716   C718    1.418   .     A
C717   C719    1.418   .     A
C717   C768    1.414   .     S
C718   C720    1.418   .     A
C718   C767    1.414   1_455 S
C721   H725    1.083   .     S
C721   C753    1.385   .     S
C722   H726    1.083   .     S
C722   C754    1.385   1_455 S
Cu723  Cu724   2.691   .     S
Cu723  O738    1.946   .     S
Cu723  O735    1.952   .     S
Cu723  N734    2.022   .     S
Cu723  O742    1.954   .     S
Cu723  O739    1.970   .     S
Cu724  O737    1.946   .     S
Cu724  O741    1.954   .     S
Cu724  O736    1.952   .     S
Cu724  O740    1.970   .     S
Cu724  N733    2.022   .     S
H729   C805    1.088   .     S
H731   N133    1.029   1_556 S
N734   N133    1.294   1_556 S
N734   H132    1.029   1_556 S
C743   N744    1.157   .     T
C745   N746    1.157   .     T
C747   N748    1.157   .     T
C749   N750    1.157   .     T
C751   O787    1.285   .     A
C751   C755    1.424   .     S
C751   O785    1.293   .     A
C752   O788    1.285   .     A
C752   C756    1.424   .     S
C752   O786    1.293   .     A
C753   H777    1.083   .     S
C753   C770    1.405   .     A
C754   H778    1.083   .     S
C754   C769    1.405   .     A
C754   C722    1.385   1_655 S
C756   C855    1.325   .     S
C756   H880    1.088   .     S
C757   O791    1.291   .     A
C757   C762    1.451   .     S
C757   O789    1.293   .     A
C758   C761    1.451   .     S
C758   O792    1.291   .     A
C758   O790    1.293   .     A
C759   C761    1.405   .     A
C759   C793    1.455   .     S
C759   C769    1.405   .     A
C760   C795    1.455   .     S
C760   C762    1.405   .     A
C760   C770    1.405   .     A
C761   C763    1.405   .     A
C762   C764    1.405   .     A
C763   C765    1.406   .     A
C763   C797    1.454   .     S
C764   C766    1.406   .     A
C764   C799    1.454   .     S
C765   C771    1.405   .     A
C765   C767    1.418   .     A
C766   C772    1.405   .     A
C766   C768    1.418   .     A
C767   C769    1.418   .     A
C767   C718    1.414   1_655 S
C768   C770    1.418   .     A
C771   H775    1.083   .     S
C771   C703    1.385   1_655 S
C772   H776    1.083   .     S
Cu773  Cu774   2.691   .     S
Cu773  O788    1.946   .     S
Cu773  O785    1.952   .     S
Cu773  N784    2.022   .     S
Cu773  O792    1.954   .     S
Cu773  O789    1.970   .     S
Cu774  O787    1.946   .     S
Cu774  O791    1.954   .     S
Cu774  O786    1.952   .     S
Cu774  O790    1.970   .     S
Cu774  N783    2.022   .     S
H779   C855    1.088   .     S
H781   N183    1.029   1_556 S
N784   N183    1.294   1_556 S
N784   H182    1.029   1_556 S
C793   N794    1.157   .     T
C795   N796    1.157   .     T
C797   N798    1.157   .     T
C799   N800    1.157   .     T
C801   O837    1.285   .     A
C801   C805    1.424   .     S
C801   O835    1.293   .     A
C802   O838    1.285   .     A
C802   C806    1.424   .     S
C802   O836    1.293   .     A
C803   H827    1.083   .     S
C803   C820    1.405   .     A
C803   C871    1.385   1_455 S
C804   H828    1.083   .     S
C804   C819    1.405   .     A
C804   C872    1.385   .     S
C806   C605    1.325   1_565 S
C806   H630    1.088   1_565 S
C807   O841    1.291   .     A
C807   C812    1.451   .     S
C807   O839    1.293   .     A
C808   C811    1.451   .     S
C808   O842    1.291   .     A
C808   O840    1.293   .     A
C809   C811    1.405   .     A
C809   C843    1.455   .     S
C809   C819    1.405   .     A
C810   C845    1.455   .     S
C810   C812    1.405   .     A
C810   C820    1.405   .     A
C811   C813    1.405   .     A
C812   C814    1.405   .     A
C813   C815    1.406   .     A
C813   C847    1.454   .     S
C814   C816    1.406   .     A
C814   C849    1.454   .     S
C815   C821    1.405   .     A
C815   C817    1.418   .     A
C816   C822    1.405   .     A
C816   C818    1.418   .     A
C817   C819    1.418   .     A
C817   C868    1.414   .     S
C818   C820    1.418   .     A
C818   C867    1.414   1_455 S
C821   H825    1.083   .     S
C821   C853    1.385   .     S
C822   H826    1.083   .     S
C822   C854    1.385   1_455 S
Cu823  Cu824   2.691   .     S
Cu823  O838    1.946   .     S
Cu823  O835    1.952   .     S
Cu823  N834    2.022   .     S
Cu823  O842    1.954   .     S
Cu823  O839    1.970   .     S
Cu824  O837    1.946   .     S
Cu824  O841    1.954   .     S
Cu824  O836    1.952   .     S
Cu824  O840    1.970   .     S
Cu824  N833    2.022   .     S
H829   C605    1.088   1_565 S
H831   N233    1.029   1_556 S
N834   N233    1.294   1_556 S
N834   H232    1.029   1_556 S
C843   N844    1.157   .     T
C845   N846    1.157   .     T
C847   N848    1.157   .     T
C849   N850    1.157   .     T
C851   O887    1.285   .     A
C851   C855    1.424   .     S
C851   O885    1.293   .     A
C852   O888    1.285   .     A
C852   C856    1.424   .     S
C852   O886    1.293   .     A
C853   H877    1.083   .     S
C853   C870    1.405   .     A
C854   H878    1.083   .     S
C854   C869    1.405   .     A
C854   C822    1.385   1_655 S
C856   C655    1.325   1_565 S
C856   H680    1.088   1_565 S
C857   O891    1.291   .     A
C857   C862    1.451   .     S
C857   O889    1.293   .     A
C858   C861    1.451   .     S
C858   O892    1.291   .     A
C858   O890    1.293   .     A
C859   C861    1.405   .     A
C859   C893    1.455   .     S
C859   C869    1.405   .     A
C860   C895    1.455   .     S
C860   C862    1.405   .     A
C860   C870    1.405   .     A
C861   C863    1.405   .     A
C862   C864    1.405   .     A
C863   C865    1.406   .     A
C863   C897    1.454   .     S
C864   C866    1.406   .     A
C864   C899    1.454   .     S
C865   C871    1.405   .     A
C865   C867    1.418   .     A
C866   C872    1.405   .     A
C866   C868    1.418   .     A
C867   C869    1.418   .     A
C867   C818    1.414   1_655 S
C868   C870    1.418   .     A
C871   H875    1.083   .     S
C871   C803    1.385   1_655 S
C872   H876    1.083   .     S
Cu873  Cu874   2.691   .     S
Cu873  O888    1.946   .     S
Cu873  O885    1.952   .     S
Cu873  N884    2.022   .     S
Cu873  O892    1.954   .     S
Cu873  O889    1.970   .     S
Cu874  O887    1.946   .     S
Cu874  O891    1.954   .     S
Cu874  O886    1.952   .     S
Cu874  O890    1.970   .     S
Cu874  N883    2.022   .     S
H879   C655    1.088   1_565 S
H881   N283    1.029   1_556 S
N884   N283    1.294   1_556 S
N884   H282    1.029   1_556 S
C893   N894    1.157   .     T
C895   N896    1.157   .     T
C897   N898    1.157   .     T
C899   N900    1.157   .     T
