data_str_m3_o1_o18_pcu_sym.139
_audit_creation_date              2020-01-03
_audit_creation_method            'Materials Studio'
_symmetry_space_group_name_H-M    'P1'
_symmetry_Int_Tables_number       1
_symmetry_cell_setting            triclinic
loop_
_symmetry_equiv_pos_as_xyz
  x,y,z
_cell_length_a                    29.5376
_cell_length_b                    32.1821
_cell_length_c                    31.0915
_cell_angle_alpha                 90.2110
_cell_angle_beta                  66.8232
_cell_angle_gamma                 90.0876
loop_
_atom_site_label
_atom_site_type_symbol
_atom_site_fract_x
_atom_site_fract_y
_atom_site_fract_z
_atom_site_U_iso_or_equiv
_atom_site_adp_type
_atom_site_occupancy
C1     C     0.16667   0.24671   0.25008   0.00000  Uiso   1.00
C2     C     0.16665   0.08662   0.24995   0.00000  Uiso   1.00
C3     C     0.11961   0.20637   0.04579   0.00000  Uiso   1.00
C4     C     0.22529   0.16055   0.44631   0.00000  Uiso   1.00
C5     C     0.08558   0.21263   0.02591   0.00000  Uiso   1.00
C6     C     0.25958   0.15483   0.46596   0.00000  Uiso   1.00
C7     C     0.20902   0.31211   0.24729   0.00000  Uiso   1.00
C8     C     0.12428   0.02122   0.25282   0.00000  Uiso   1.00
C9     C     0.20903   0.02133   0.24717   0.00000  Uiso   1.00
C10    C     0.12426   0.31200   0.25293   0.00000  Uiso   1.00
C11    C     0.16665   0.04246   0.24995   0.00000  Uiso   1.00
C12    C     0.16665   0.29087   0.25013   0.00000  Uiso   1.00
C13    C     0.32078   0.13990   0.22199   0.00000  Uiso   1.00
C14    C     0.01254   0.19342   0.27803   0.00000  Uiso   1.00
C15    C     0.03575   0.13969   0.22188   0.00000  Uiso   1.00
C16    C     0.29756   0.19360   0.27818   0.00000  Uiso   1.00
C17    C     0.13547   0.16706   0.33832   0.00000  Uiso   1.00
C18    C     0.19787   0.16725   0.16165   0.00000  Uiso   1.00
C19    C     0.11528   0.17175   0.38942   0.00000  Uiso   1.00
C20    C     0.21851   0.16916   0.11025   0.00000  Uiso   1.00
C21    C     0.06046   0.20472   0.46125   0.00000  Uiso   1.00
C22    C     0.28064   0.15343   0.03342   0.00000  Uiso   1.00
C23    C     0.06994   0.19174   0.41565   0.00000  Uiso   1.00
C24    C     0.26762   0.15811   0.08141   0.00000  Uiso   1.00
C25    C     0.14752   0.16239   0.41081   0.00000  Uiso   1.00
C26    C     0.18582   0.17977   0.08963   0.00000  Uiso   1.00
C27    C     0.14030   0.17813   0.45491   0.00000  Uiso   1.00
C28    C     0.19908   0.17699   0.04138   0.00000  Uiso   1.00
C29    C     0.09522   0.19839   0.48088   0.00000  Uiso   1.00
C30    C     0.24665   0.16191   0.01344   0.00000  Uiso   1.00
C31    C     0.17685   0.17436   0.47362   0.00000  Uiso   1.00
C32    C     0.16497   0.18597   0.02084   0.00000  Uiso   1.00
H33    H     0.05144   0.22864   0.04599   0.00000  Uiso   1.00
H34    H     0.29600   0.14361   0.44411   0.00000  Uiso   1.00
H35    H     0.14871   0.18776   0.11239   0.00000  Uiso   1.00
H36    H     0.17921   0.14358   0.39137   0.00000  Uiso   1.00
H37    H     0.02604   0.22044   0.48111   0.00000  Uiso   1.00
H38    H     0.31745   0.14280   0.01176   0.00000  Uiso   1.00
H39    H     0.11000   0.21939   0.08025   0.00000  Uiso   1.00
H40    H     0.23845   0.15497   0.40918   0.00000  Uiso   1.00
H41    H     0.24208   0.29601   0.24503   0.00000  Uiso   1.00
H42    H     0.09122   0.03732   0.25507   0.00000  Uiso   1.00
H43    H     0.24211   0.03752   0.24482   0.00000  Uiso   1.00
H44    H     0.09118   0.29581   0.25528   0.00000  Uiso   1.00
H45    H     0.31128   0.11869   0.19975   0.00000  Uiso   1.00
H46    H     0.02204   0.21463   0.30026   0.00000  Uiso   1.00
N47    N     0.04759   0.16668   0.25001   0.00000  Uiso   1.00
N48    N     0.28574   0.16666   0.24999   0.00000  Uiso   1.00
O49    O     0.12846   0.22775   0.25001   0.00000  Uiso   1.00
O50    O     0.20488   0.10558   0.25000   0.00000  Uiso   1.00
O51    O     0.20490   0.22774   0.25000   0.00000  Uiso   1.00
O52    O     0.12843   0.10559   0.25000   0.00000  Uiso   1.00
O53    O     0.10661   0.16667   0.31613   0.00000  Uiso   1.00
O54    O     0.22672   0.16666   0.18388   0.00000  Uiso   1.00
O55    O     0.18305   0.16666   0.31612   0.00000  Uiso   1.00
O56    O     0.15028   0.16667   0.18388   0.00000  Uiso   1.00
Zn57   Zn    0.11562   0.16667   0.25000   0.00000  Uiso   1.00
Zn58   Zn    0.21771   0.16666   0.25000   0.00000  Uiso   1.00
O59    O     0.30295   0.14966   0.09866   0.00000  Uiso   1.00
H60    H     0.30209   0.17257   0.12029   0.00000  Uiso   1.00
O61    O     0.03527   0.20088   0.39777   0.00000  Uiso   1.00
H62    H     0.03268   0.17661   0.37928   0.00000  Uiso   1.00
O63    O     0.07129   0.11259   0.19384   0.00000  Uiso   1.00
H64    H     0.05709   0.09532   0.17576   0.00000  Uiso   1.00
O65    O     0.26197   0.22060   0.30635   0.00000  Uiso   1.00
H66    H     0.27608   0.23771   0.32462   0.00000  Uiso   1.00
C67    C     0.50000   0.24671   0.25008   0.00000  Uiso   1.00
C68    C     0.49999   0.08662   0.24995   0.00000  Uiso   1.00
C69    C     0.45294   0.20637   0.04579   0.00000  Uiso   1.00
C70    C     0.55862   0.16055   0.44631   0.00000  Uiso   1.00
C71    C     0.41891   0.21263   0.02591   0.00000  Uiso   1.00
C72    C     0.59291   0.15483   0.46596   0.00000  Uiso   1.00
C73    C     0.54235   0.31211   0.24729   0.00000  Uiso   1.00
C74    C     0.45761   0.02122   0.25282   0.00000  Uiso   1.00
C75    C     0.54236   0.02133   0.24717   0.00000  Uiso   1.00
C76    C     0.45760   0.31200   0.25293   0.00000  Uiso   1.00
C77    C     0.49998   0.04246   0.24995   0.00000  Uiso   1.00
C78    C     0.49998   0.29087   0.25013   0.00000  Uiso   1.00
C79    C     0.65412   0.13990   0.22199   0.00000  Uiso   1.00
C80    C     0.34587   0.19342   0.27803   0.00000  Uiso   1.00
C81    C     0.36908   0.13969   0.22188   0.00000  Uiso   1.00
C82    C     0.63089   0.19360   0.27818   0.00000  Uiso   1.00
C83    C     0.46880   0.16706   0.33832   0.00000  Uiso   1.00
C84    C     0.53120   0.16725   0.16165   0.00000  Uiso   1.00
C85    C     0.44862   0.17175   0.38942   0.00000  Uiso   1.00
C86    C     0.55185   0.16916   0.11025   0.00000  Uiso   1.00
C87    C     0.39379   0.20472   0.46125   0.00000  Uiso   1.00
C88    C     0.61397   0.15343   0.03342   0.00000  Uiso   1.00
C89    C     0.40327   0.19174   0.41565   0.00000  Uiso   1.00
C90    C     0.60096   0.15811   0.08141   0.00000  Uiso   1.00
C91    C     0.48086   0.16239   0.41081   0.00000  Uiso   1.00
C92    C     0.51915   0.17977   0.08963   0.00000  Uiso   1.00
C93    C     0.47363   0.17813   0.45491   0.00000  Uiso   1.00
C94    C     0.53242   0.17699   0.04138   0.00000  Uiso   1.00
C95    C     0.42856   0.19839   0.48088   0.00000  Uiso   1.00
C96    C     0.57998   0.16191   0.01344   0.00000  Uiso   1.00
C97    C     0.51018   0.17436   0.47362   0.00000  Uiso   1.00
C98    C     0.49831   0.18597   0.02084   0.00000  Uiso   1.00
H99    H     0.38477   0.22864   0.04599   0.00000  Uiso   1.00
H100   H     0.62934   0.14361   0.44411   0.00000  Uiso   1.00
H101   H     0.48205   0.18776   0.11239   0.00000  Uiso   1.00
H102   H     0.51254   0.14358   0.39137   0.00000  Uiso   1.00
H103   H     0.35937   0.22044   0.48111   0.00000  Uiso   1.00
H104   H     0.65078   0.14280   0.01176   0.00000  Uiso   1.00
H105   H     0.44333   0.21939   0.08025   0.00000  Uiso   1.00
H106   H     0.57178   0.15497   0.40918   0.00000  Uiso   1.00
H107   H     0.57541   0.29601   0.24503   0.00000  Uiso   1.00
H108   H     0.42455   0.03732   0.25507   0.00000  Uiso   1.00
H109   H     0.57545   0.03752   0.24482   0.00000  Uiso   1.00
H110   H     0.42451   0.29581   0.25528   0.00000  Uiso   1.00
H111   H     0.64461   0.11869   0.19975   0.00000  Uiso   1.00
H112   H     0.35537   0.21463   0.30026   0.00000  Uiso   1.00
N113   N     0.38093   0.16668   0.25001   0.00000  Uiso   1.00
N114   N     0.61907   0.16666   0.24999   0.00000  Uiso   1.00
O115   O     0.46179   0.22775   0.25001   0.00000  Uiso   1.00
O116   O     0.53821   0.10558   0.25000   0.00000  Uiso   1.00
O117   O     0.53823   0.22774   0.25000   0.00000  Uiso   1.00
O118   O     0.46177   0.10559   0.25000   0.00000  Uiso   1.00
O119   O     0.43994   0.16667   0.31613   0.00000  Uiso   1.00
O120   O     0.56006   0.16666   0.18388   0.00000  Uiso   1.00
O121   O     0.51639   0.16666   0.31612   0.00000  Uiso   1.00
O122   O     0.48361   0.16667   0.18388   0.00000  Uiso   1.00
Zn123  Zn    0.44896   0.16667   0.25000   0.00000  Uiso   1.00
Zn124  Zn    0.55104   0.16666   0.25000   0.00000  Uiso   1.00
O125   O     0.63628   0.14966   0.09866   0.00000  Uiso   1.00
H126   H     0.63543   0.17257   0.12029   0.00000  Uiso   1.00
O127   O     0.36860   0.20088   0.39777   0.00000  Uiso   1.00
H128   H     0.36601   0.17661   0.37928   0.00000  Uiso   1.00
O129   O     0.40462   0.11259   0.19384   0.00000  Uiso   1.00
H130   H     0.39043   0.09532   0.17576   0.00000  Uiso   1.00
O131   O     0.59530   0.22060   0.30635   0.00000  Uiso   1.00
H132   H     0.60942   0.23771   0.32462   0.00000  Uiso   1.00
C133   C     0.83334   0.24671   0.25008   0.00000  Uiso   1.00
C134   C     0.83332   0.08662   0.24995   0.00000  Uiso   1.00
C135   C     0.78627   0.20637   0.04579   0.00000  Uiso   1.00
C136   C     0.89196   0.16055   0.44631   0.00000  Uiso   1.00
C137   C     0.75225   0.21263   0.02591   0.00000  Uiso   1.00
C138   C     0.92624   0.15483   0.46596   0.00000  Uiso   1.00
C139   C     0.87568   0.31211   0.24729   0.00000  Uiso   1.00
C140   C     0.79094   0.02122   0.25282   0.00000  Uiso   1.00
C141   C     0.87569   0.02133   0.24717   0.00000  Uiso   1.00
C142   C     0.79093   0.31200   0.25293   0.00000  Uiso   1.00
C143   C     0.83332   0.04246   0.24995   0.00000  Uiso   1.00
C144   C     0.83332   0.29087   0.25013   0.00000  Uiso   1.00
C145   C     0.98745   0.13990   0.22199   0.00000  Uiso   1.00
C146   C     0.67921   0.19342   0.27803   0.00000  Uiso   1.00
C147   C     0.70242   0.13969   0.22188   0.00000  Uiso   1.00
C148   C     0.96422   0.19360   0.27818   0.00000  Uiso   1.00
C149   C     0.80214   0.16706   0.33832   0.00000  Uiso   1.00
C150   C     0.86453   0.16725   0.16165   0.00000  Uiso   1.00
C151   C     0.78195   0.17175   0.38942   0.00000  Uiso   1.00
C152   C     0.88518   0.16916   0.11025   0.00000  Uiso   1.00
C153   C     0.72713   0.20472   0.46125   0.00000  Uiso   1.00
C154   C     0.94731   0.15343   0.03342   0.00000  Uiso   1.00
C155   C     0.73661   0.19174   0.41565   0.00000  Uiso   1.00
C156   C     0.93429   0.15811   0.08141   0.00000  Uiso   1.00
C157   C     0.81419   0.16239   0.41081   0.00000  Uiso   1.00
C158   C     0.85249   0.17977   0.08963   0.00000  Uiso   1.00
C159   C     0.80696   0.17813   0.45491   0.00000  Uiso   1.00
C160   C     0.86575   0.17699   0.04138   0.00000  Uiso   1.00
C161   C     0.76189   0.19839   0.48088   0.00000  Uiso   1.00
C162   C     0.91331   0.16191   0.01344   0.00000  Uiso   1.00
C163   C     0.84352   0.17436   0.47362   0.00000  Uiso   1.00
C164   C     0.83164   0.18597   0.02084   0.00000  Uiso   1.00
H165   H     0.71811   0.22864   0.04599   0.00000  Uiso   1.00
H166   H     0.96267   0.14361   0.44411   0.00000  Uiso   1.00
H167   H     0.81538   0.18776   0.11239   0.00000  Uiso   1.00
H168   H     0.84588   0.14358   0.39137   0.00000  Uiso   1.00
H169   H     0.69270   0.22044   0.48111   0.00000  Uiso   1.00
H170   H     0.98411   0.14280   0.01176   0.00000  Uiso   1.00
H171   H     0.77666   0.21939   0.08025   0.00000  Uiso   1.00
H172   H     0.90512   0.15497   0.40918   0.00000  Uiso   1.00
H173   H     0.90874   0.29601   0.24503   0.00000  Uiso   1.00
H174   H     0.75788   0.03732   0.25507   0.00000  Uiso   1.00
H175   H     0.90878   0.03752   0.24482   0.00000  Uiso   1.00
H176   H     0.75785   0.29581   0.25528   0.00000  Uiso   1.00
H177   H     0.97795   0.11869   0.19975   0.00000  Uiso   1.00
H178   H     0.68871   0.21463   0.30026   0.00000  Uiso   1.00
N179   N     0.71426   0.16668   0.25001   0.00000  Uiso   1.00
N180   N     0.95241   0.16666   0.24999   0.00000  Uiso   1.00
O181   O     0.79512   0.22775   0.25001   0.00000  Uiso   1.00
O182   O     0.87154   0.10558   0.25000   0.00000  Uiso   1.00
O183   O     0.87157   0.22774   0.25000   0.00000  Uiso   1.00
O184   O     0.79510   0.10559   0.25000   0.00000  Uiso   1.00
O185   O     0.77328   0.16667   0.31613   0.00000  Uiso   1.00
O186   O     0.89339   0.16666   0.18388   0.00000  Uiso   1.00
O187   O     0.84972   0.16666   0.31612   0.00000  Uiso   1.00
O188   O     0.81695   0.16667   0.18388   0.00000  Uiso   1.00
Zn189  Zn    0.78229   0.16667   0.25000   0.00000  Uiso   1.00
Zn190  Zn    0.88438   0.16666   0.25000   0.00000  Uiso   1.00
O191   O     0.96961   0.14966   0.09866   0.00000  Uiso   1.00
H192   H     0.96876   0.17257   0.12029   0.00000  Uiso   1.00
O193   O     0.70194   0.20088   0.39777   0.00000  Uiso   1.00
H194   H     0.69935   0.17661   0.37928   0.00000  Uiso   1.00
O195   O     0.73796   0.11259   0.19384   0.00000  Uiso   1.00
H196   H     0.72376   0.09532   0.17576   0.00000  Uiso   1.00
O197   O     0.92863   0.22060   0.30635   0.00000  Uiso   1.00
H198   H     0.94275   0.23771   0.32462   0.00000  Uiso   1.00
C199   C     0.16667   0.58005   0.25008   0.00000  Uiso   1.00
C200   C     0.16665   0.41995   0.24995   0.00000  Uiso   1.00
C201   C     0.11961   0.53970   0.04579   0.00000  Uiso   1.00
C202   C     0.22529   0.49388   0.44631   0.00000  Uiso   1.00
C203   C     0.08558   0.54597   0.02591   0.00000  Uiso   1.00
C204   C     0.25958   0.48817   0.46596   0.00000  Uiso   1.00
C205   C     0.20902   0.64544   0.24729   0.00000  Uiso   1.00
C206   C     0.12428   0.35456   0.25282   0.00000  Uiso   1.00
C207   C     0.20903   0.35467   0.24717   0.00000  Uiso   1.00
C208   C     0.12426   0.64533   0.25293   0.00000  Uiso   1.00
C209   C     0.16665   0.37580   0.24995   0.00000  Uiso   1.00
C210   C     0.16665   0.62420   0.25013   0.00000  Uiso   1.00
C211   C     0.32078   0.47323   0.22199   0.00000  Uiso   1.00
C212   C     0.01254   0.52675   0.27803   0.00000  Uiso   1.00
C213   C     0.03575   0.47302   0.22188   0.00000  Uiso   1.00
C214   C     0.29756   0.52693   0.27818   0.00000  Uiso   1.00
C215   C     0.13547   0.50039   0.33832   0.00000  Uiso   1.00
C216   C     0.19787   0.50058   0.16165   0.00000  Uiso   1.00
C217   C     0.11528   0.50509   0.38942   0.00000  Uiso   1.00
C218   C     0.21851   0.50250   0.11025   0.00000  Uiso   1.00
C219   C     0.06046   0.53805   0.46125   0.00000  Uiso   1.00
C220   C     0.28064   0.48676   0.03342   0.00000  Uiso   1.00
C221   C     0.06994   0.52507   0.41565   0.00000  Uiso   1.00
C222   C     0.26762   0.49145   0.08141   0.00000  Uiso   1.00
C223   C     0.14752   0.49572   0.41081   0.00000  Uiso   1.00
C224   C     0.18582   0.51310   0.08963   0.00000  Uiso   1.00
C225   C     0.14030   0.51146   0.45491   0.00000  Uiso   1.00
C226   C     0.19908   0.51033   0.04138   0.00000  Uiso   1.00
C227   C     0.09522   0.53173   0.48088   0.00000  Uiso   1.00
C228   C     0.24665   0.49524   0.01344   0.00000  Uiso   1.00
C229   C     0.17685   0.50770   0.47362   0.00000  Uiso   1.00
C230   C     0.16497   0.51931   0.02084   0.00000  Uiso   1.00
H231   H     0.05144   0.56197   0.04599   0.00000  Uiso   1.00
H232   H     0.29600   0.47695   0.44411   0.00000  Uiso   1.00
H233   H     0.14871   0.52109   0.11239   0.00000  Uiso   1.00
H234   H     0.17921   0.47691   0.39137   0.00000  Uiso   1.00
H235   H     0.02604   0.55377   0.48111   0.00000  Uiso   1.00
H236   H     0.31745   0.47613   0.01176   0.00000  Uiso   1.00
H237   H     0.11000   0.55272   0.08025   0.00000  Uiso   1.00
H238   H     0.23845   0.48831   0.40918   0.00000  Uiso   1.00
H239   H     0.24208   0.62934   0.24503   0.00000  Uiso   1.00
H240   H     0.09122   0.37065   0.25507   0.00000  Uiso   1.00
H241   H     0.24211   0.37085   0.24482   0.00000  Uiso   1.00
H242   H     0.09118   0.62914   0.25528   0.00000  Uiso   1.00
H243   H     0.31128   0.45202   0.19975   0.00000  Uiso   1.00
H244   H     0.02204   0.54797   0.30026   0.00000  Uiso   1.00
N245   N     0.04759   0.50001   0.25001   0.00000  Uiso   1.00
N246   N     0.28574   0.49999   0.24999   0.00000  Uiso   1.00
O247   O     0.12846   0.56108   0.25001   0.00000  Uiso   1.00
O248   O     0.20488   0.43892   0.25000   0.00000  Uiso   1.00
O249   O     0.20490   0.56107   0.25000   0.00000  Uiso   1.00
O250   O     0.12843   0.43893   0.25000   0.00000  Uiso   1.00
O251   O     0.10661   0.50001   0.31613   0.00000  Uiso   1.00
O252   O     0.22672   0.49999   0.18388   0.00000  Uiso   1.00
O253   O     0.18305   0.50000   0.31612   0.00000  Uiso   1.00
O254   O     0.15028   0.50000   0.18388   0.00000  Uiso   1.00
Zn255  Zn    0.11562   0.50001   0.25000   0.00000  Uiso   1.00
Zn256  Zn    0.21771   0.49999   0.25000   0.00000  Uiso   1.00
O257   O     0.30295   0.48299   0.09866   0.00000  Uiso   1.00
H258   H     0.30209   0.50590   0.12029   0.00000  Uiso   1.00
O259   O     0.03527   0.53422   0.39777   0.00000  Uiso   1.00
H260   H     0.03268   0.50995   0.37928   0.00000  Uiso   1.00
O261   O     0.07129   0.44592   0.19384   0.00000  Uiso   1.00
H262   H     0.05709   0.42865   0.17576   0.00000  Uiso   1.00
O263   O     0.26197   0.55393   0.30635   0.00000  Uiso   1.00
H264   H     0.27608   0.57104   0.32462   0.00000  Uiso   1.00
C265   C     0.50000   0.58005   0.25008   0.00000  Uiso   1.00
C266   C     0.49999   0.41995   0.24995   0.00000  Uiso   1.00
C267   C     0.45294   0.53970   0.04579   0.00000  Uiso   1.00
C268   C     0.55862   0.49388   0.44631   0.00000  Uiso   1.00
C269   C     0.41891   0.54597   0.02591   0.00000  Uiso   1.00
C270   C     0.59291   0.48817   0.46596   0.00000  Uiso   1.00
C271   C     0.54235   0.64544   0.24729   0.00000  Uiso   1.00
C272   C     0.45761   0.35456   0.25282   0.00000  Uiso   1.00
C273   C     0.54236   0.35467   0.24717   0.00000  Uiso   1.00
C274   C     0.45760   0.64533   0.25293   0.00000  Uiso   1.00
C275   C     0.49998   0.37580   0.24995   0.00000  Uiso   1.00
C276   C     0.49998   0.62420   0.25013   0.00000  Uiso   1.00
C277   C     0.65412   0.47323   0.22199   0.00000  Uiso   1.00
C278   C     0.34587   0.52675   0.27803   0.00000  Uiso   1.00
C279   C     0.36908   0.47302   0.22188   0.00000  Uiso   1.00
C280   C     0.63089   0.52693   0.27818   0.00000  Uiso   1.00
C281   C     0.46880   0.50039   0.33832   0.00000  Uiso   1.00
C282   C     0.53120   0.50058   0.16165   0.00000  Uiso   1.00
C283   C     0.44862   0.50509   0.38942   0.00000  Uiso   1.00
C284   C     0.55185   0.50250   0.11025   0.00000  Uiso   1.00
C285   C     0.39379   0.53805   0.46125   0.00000  Uiso   1.00
C286   C     0.61397   0.48676   0.03342   0.00000  Uiso   1.00
C287   C     0.40327   0.52507   0.41565   0.00000  Uiso   1.00
C288   C     0.60096   0.49145   0.08141   0.00000  Uiso   1.00
C289   C     0.48086   0.49572   0.41081   0.00000  Uiso   1.00
C290   C     0.51915   0.51310   0.08963   0.00000  Uiso   1.00
C291   C     0.47363   0.51146   0.45491   0.00000  Uiso   1.00
C292   C     0.53242   0.51033   0.04138   0.00000  Uiso   1.00
C293   C     0.42856   0.53173   0.48088   0.00000  Uiso   1.00
C294   C     0.57998   0.49524   0.01344   0.00000  Uiso   1.00
C295   C     0.51018   0.50770   0.47362   0.00000  Uiso   1.00
C296   C     0.49831   0.51931   0.02084   0.00000  Uiso   1.00
H297   H     0.38477   0.56197   0.04599   0.00000  Uiso   1.00
H298   H     0.62934   0.47695   0.44411   0.00000  Uiso   1.00
H299   H     0.48205   0.52109   0.11239   0.00000  Uiso   1.00
H300   H     0.51254   0.47691   0.39137   0.00000  Uiso   1.00
H301   H     0.35937   0.55377   0.48111   0.00000  Uiso   1.00
H302   H     0.65078   0.47613   0.01176   0.00000  Uiso   1.00
H303   H     0.44333   0.55272   0.08025   0.00000  Uiso   1.00
H304   H     0.57178   0.48831   0.40918   0.00000  Uiso   1.00
H305   H     0.57541   0.62934   0.24503   0.00000  Uiso   1.00
H306   H     0.42455   0.37065   0.25507   0.00000  Uiso   1.00
H307   H     0.57545   0.37085   0.24482   0.00000  Uiso   1.00
H308   H     0.42451   0.62914   0.25528   0.00000  Uiso   1.00
H309   H     0.64461   0.45202   0.19975   0.00000  Uiso   1.00
H310   H     0.35537   0.54797   0.30026   0.00000  Uiso   1.00
N311   N     0.38093   0.50001   0.25001   0.00000  Uiso   1.00
N312   N     0.61907   0.49999   0.24999   0.00000  Uiso   1.00
O313   O     0.46179   0.56108   0.25001   0.00000  Uiso   1.00
O314   O     0.53821   0.43892   0.25000   0.00000  Uiso   1.00
O315   O     0.53823   0.56107   0.25000   0.00000  Uiso   1.00
O316   O     0.46177   0.43893   0.25000   0.00000  Uiso   1.00
O317   O     0.43994   0.50001   0.31613   0.00000  Uiso   1.00
O318   O     0.56006   0.49999   0.18388   0.00000  Uiso   1.00
O319   O     0.51639   0.50000   0.31612   0.00000  Uiso   1.00
O320   O     0.48361   0.50000   0.18388   0.00000  Uiso   1.00
Zn321  Zn    0.44896   0.50001   0.25000   0.00000  Uiso   1.00
Zn322  Zn    0.55104   0.49999   0.25000   0.00000  Uiso   1.00
O323   O     0.63628   0.48299   0.09866   0.00000  Uiso   1.00
H324   H     0.63543   0.50590   0.12029   0.00000  Uiso   1.00
O325   O     0.36860   0.53422   0.39777   0.00000  Uiso   1.00
H326   H     0.36601   0.50995   0.37928   0.00000  Uiso   1.00
O327   O     0.40462   0.44592   0.19384   0.00000  Uiso   1.00
H328   H     0.39043   0.42865   0.17576   0.00000  Uiso   1.00
O329   O     0.59530   0.55393   0.30635   0.00000  Uiso   1.00
H330   H     0.60942   0.57104   0.32462   0.00000  Uiso   1.00
C331   C     0.83334   0.58005   0.25008   0.00000  Uiso   1.00
C332   C     0.83332   0.41995   0.24995   0.00000  Uiso   1.00
C333   C     0.78627   0.53970   0.04579   0.00000  Uiso   1.00
C334   C     0.89196   0.49388   0.44631   0.00000  Uiso   1.00
C335   C     0.75225   0.54597   0.02591   0.00000  Uiso   1.00
C336   C     0.92624   0.48817   0.46596   0.00000  Uiso   1.00
C337   C     0.87568   0.64544   0.24729   0.00000  Uiso   1.00
C338   C     0.79094   0.35456   0.25282   0.00000  Uiso   1.00
C339   C     0.87569   0.35467   0.24717   0.00000  Uiso   1.00
C340   C     0.79093   0.64533   0.25293   0.00000  Uiso   1.00
C341   C     0.83332   0.37580   0.24995   0.00000  Uiso   1.00
C342   C     0.83332   0.62420   0.25013   0.00000  Uiso   1.00
C343   C     0.98745   0.47323   0.22199   0.00000  Uiso   1.00
C344   C     0.67921   0.52675   0.27803   0.00000  Uiso   1.00
C345   C     0.70242   0.47302   0.22188   0.00000  Uiso   1.00
C346   C     0.96422   0.52693   0.27818   0.00000  Uiso   1.00
C347   C     0.80214   0.50039   0.33832   0.00000  Uiso   1.00
C348   C     0.86453   0.50058   0.16165   0.00000  Uiso   1.00
C349   C     0.78195   0.50509   0.38942   0.00000  Uiso   1.00
C350   C     0.88518   0.50250   0.11025   0.00000  Uiso   1.00
C351   C     0.72713   0.53805   0.46125   0.00000  Uiso   1.00
C352   C     0.94731   0.48676   0.03342   0.00000  Uiso   1.00
C353   C     0.73661   0.52507   0.41565   0.00000  Uiso   1.00
C354   C     0.93429   0.49145   0.08141   0.00000  Uiso   1.00
C355   C     0.81419   0.49572   0.41081   0.00000  Uiso   1.00
C356   C     0.85249   0.51310   0.08963   0.00000  Uiso   1.00
C357   C     0.80696   0.51146   0.45491   0.00000  Uiso   1.00
C358   C     0.86575   0.51033   0.04138   0.00000  Uiso   1.00
C359   C     0.76189   0.53173   0.48088   0.00000  Uiso   1.00
C360   C     0.91331   0.49524   0.01344   0.00000  Uiso   1.00
C361   C     0.84352   0.50770   0.47362   0.00000  Uiso   1.00
C362   C     0.83164   0.51931   0.02084   0.00000  Uiso   1.00
H363   H     0.71811   0.56197   0.04599   0.00000  Uiso   1.00
H364   H     0.96267   0.47695   0.44411   0.00000  Uiso   1.00
H365   H     0.81538   0.52109   0.11239   0.00000  Uiso   1.00
H366   H     0.84588   0.47691   0.39137   0.00000  Uiso   1.00
H367   H     0.69270   0.55377   0.48111   0.00000  Uiso   1.00
H368   H     0.98411   0.47613   0.01176   0.00000  Uiso   1.00
H369   H     0.77666   0.55272   0.08025   0.00000  Uiso   1.00
H370   H     0.90512   0.48831   0.40918   0.00000  Uiso   1.00
H371   H     0.90874   0.62934   0.24503   0.00000  Uiso   1.00
H372   H     0.75788   0.37065   0.25507   0.00000  Uiso   1.00
H373   H     0.90878   0.37085   0.24482   0.00000  Uiso   1.00
H374   H     0.75785   0.62914   0.25528   0.00000  Uiso   1.00
H375   H     0.97795   0.45202   0.19975   0.00000  Uiso   1.00
H376   H     0.68871   0.54797   0.30026   0.00000  Uiso   1.00
N377   N     0.71426   0.50001   0.25001   0.00000  Uiso   1.00
N378   N     0.95241   0.49999   0.24999   0.00000  Uiso   1.00
O379   O     0.79512   0.56108   0.25001   0.00000  Uiso   1.00
O380   O     0.87154   0.43892   0.25000   0.00000  Uiso   1.00
O381   O     0.87157   0.56107   0.25000   0.00000  Uiso   1.00
O382   O     0.79510   0.43893   0.25000   0.00000  Uiso   1.00
O383   O     0.77328   0.50001   0.31613   0.00000  Uiso   1.00
O384   O     0.89339   0.49999   0.18388   0.00000  Uiso   1.00
O385   O     0.84972   0.50000   0.31612   0.00000  Uiso   1.00
O386   O     0.81695   0.50000   0.18388   0.00000  Uiso   1.00
Zn387  Zn    0.78229   0.50001   0.25000   0.00000  Uiso   1.00
Zn388  Zn    0.88438   0.49999   0.25000   0.00000  Uiso   1.00
O389   O     0.96961   0.48299   0.09866   0.00000  Uiso   1.00
H390   H     0.96876   0.50590   0.12029   0.00000  Uiso   1.00
O391   O     0.70194   0.53422   0.39777   0.00000  Uiso   1.00
H392   H     0.69935   0.50995   0.37928   0.00000  Uiso   1.00
O393   O     0.73796   0.44592   0.19384   0.00000  Uiso   1.00
H394   H     0.72376   0.42865   0.17576   0.00000  Uiso   1.00
O395   O     0.92863   0.55393   0.30635   0.00000  Uiso   1.00
H396   H     0.94275   0.57104   0.32462   0.00000  Uiso   1.00
C397   C     0.16667   0.91338   0.25008   0.00000  Uiso   1.00
C398   C     0.16665   0.75329   0.24995   0.00000  Uiso   1.00
C399   C     0.11961   0.87304   0.04579   0.00000  Uiso   1.00
C400   C     0.22529   0.82721   0.44631   0.00000  Uiso   1.00
C401   C     0.08558   0.87930   0.02591   0.00000  Uiso   1.00
C402   C     0.25958   0.82150   0.46596   0.00000  Uiso   1.00
C403   C     0.20902   0.97877   0.24729   0.00000  Uiso   1.00
C404   C     0.12428   0.68789   0.25282   0.00000  Uiso   1.00
C405   C     0.20903   0.68800   0.24717   0.00000  Uiso   1.00
C406   C     0.12426   0.97866   0.25293   0.00000  Uiso   1.00
C407   C     0.16665   0.70913   0.24995   0.00000  Uiso   1.00
C408   C     0.16665   0.95753   0.25013   0.00000  Uiso   1.00
C409   C     0.32078   0.80657   0.22199   0.00000  Uiso   1.00
C410   C     0.01254   0.86009   0.27803   0.00000  Uiso   1.00
C411   C     0.03575   0.80635   0.22188   0.00000  Uiso   1.00
C412   C     0.29756   0.86027   0.27818   0.00000  Uiso   1.00
C413   C     0.13547   0.83373   0.33832   0.00000  Uiso   1.00
C414   C     0.19787   0.83391   0.16165   0.00000  Uiso   1.00
C415   C     0.11528   0.83842   0.38942   0.00000  Uiso   1.00
C416   C     0.21851   0.83583   0.11025   0.00000  Uiso   1.00
C417   C     0.06046   0.87138   0.46125   0.00000  Uiso   1.00
C418   C     0.28064   0.82009   0.03342   0.00000  Uiso   1.00
C419   C     0.06994   0.85840   0.41565   0.00000  Uiso   1.00
C420   C     0.26762   0.82478   0.08141   0.00000  Uiso   1.00
C421   C     0.14752   0.82905   0.41081   0.00000  Uiso   1.00
C422   C     0.18582   0.84643   0.08963   0.00000  Uiso   1.00
C423   C     0.14030   0.84479   0.45491   0.00000  Uiso   1.00
C424   C     0.19908   0.84366   0.04138   0.00000  Uiso   1.00
C425   C     0.09522   0.86506   0.48088   0.00000  Uiso   1.00
C426   C     0.24665   0.82858   0.01344   0.00000  Uiso   1.00
C427   C     0.17685   0.84103   0.47362   0.00000  Uiso   1.00
C428   C     0.16497   0.85264   0.02084   0.00000  Uiso   1.00
H429   H     0.05144   0.89531   0.04599   0.00000  Uiso   1.00
H430   H     0.29600   0.81028   0.44411   0.00000  Uiso   1.00
H431   H     0.14871   0.85443   0.11239   0.00000  Uiso   1.00
H432   H     0.17921   0.81024   0.39137   0.00000  Uiso   1.00
H433   H     0.02604   0.88711   0.48111   0.00000  Uiso   1.00
H434   H     0.31745   0.80947   0.01176   0.00000  Uiso   1.00
H435   H     0.11000   0.88605   0.08025   0.00000  Uiso   1.00
H436   H     0.23845   0.82164   0.40918   0.00000  Uiso   1.00
H437   H     0.24208   0.96268   0.24503   0.00000  Uiso   1.00
H438   H     0.09122   0.70399   0.25507   0.00000  Uiso   1.00
H439   H     0.24211   0.70418   0.24482   0.00000  Uiso   1.00
H440   H     0.09118   0.96248   0.25528   0.00000  Uiso   1.00
H441   H     0.31128   0.78536   0.19975   0.00000  Uiso   1.00
H442   H     0.02204   0.88130   0.30026   0.00000  Uiso   1.00
N443   N     0.04759   0.83334   0.25001   0.00000  Uiso   1.00
N444   N     0.28574   0.83332   0.24999   0.00000  Uiso   1.00
O445   O     0.12846   0.89442   0.25001   0.00000  Uiso   1.00
O446   O     0.20488   0.77225   0.25000   0.00000  Uiso   1.00
O447   O     0.20490   0.89441   0.25000   0.00000  Uiso   1.00
O448   O     0.12843   0.77226   0.25000   0.00000  Uiso   1.00
O449   O     0.10661   0.83334   0.31613   0.00000  Uiso   1.00
O450   O     0.22672   0.83333   0.18388   0.00000  Uiso   1.00
O451   O     0.18305   0.83333   0.31612   0.00000  Uiso   1.00
O452   O     0.15028   0.83334   0.18388   0.00000  Uiso   1.00
Zn453  Zn    0.11562   0.83334   0.25000   0.00000  Uiso   1.00
Zn454  Zn    0.21771   0.83333   0.25000   0.00000  Uiso   1.00
O455   O     0.30295   0.81632   0.09866   0.00000  Uiso   1.00
H456   H     0.30209   0.83923   0.12029   0.00000  Uiso   1.00
O457   O     0.03527   0.86755   0.39777   0.00000  Uiso   1.00
H458   H     0.03268   0.84328   0.37928   0.00000  Uiso   1.00
O459   O     0.07129   0.77926   0.19384   0.00000  Uiso   1.00
H460   H     0.05709   0.76199   0.17576   0.00000  Uiso   1.00
O461   O     0.26197   0.88727   0.30635   0.00000  Uiso   1.00
H462   H     0.27608   0.90438   0.32462   0.00000  Uiso   1.00
C463   C     0.50000   0.91338   0.25008   0.00000  Uiso   1.00
C464   C     0.49999   0.75329   0.24995   0.00000  Uiso   1.00
C465   C     0.45294   0.87304   0.04579   0.00000  Uiso   1.00
C466   C     0.55862   0.82721   0.44631   0.00000  Uiso   1.00
C467   C     0.41891   0.87930   0.02591   0.00000  Uiso   1.00
C468   C     0.59291   0.82150   0.46596   0.00000  Uiso   1.00
C469   C     0.54235   0.97877   0.24729   0.00000  Uiso   1.00
C470   C     0.45761   0.68789   0.25282   0.00000  Uiso   1.00
C471   C     0.54236   0.68800   0.24717   0.00000  Uiso   1.00
C472   C     0.45760   0.97866   0.25293   0.00000  Uiso   1.00
C473   C     0.49998   0.70913   0.24995   0.00000  Uiso   1.00
C474   C     0.49998   0.95753   0.25013   0.00000  Uiso   1.00
C475   C     0.65412   0.80657   0.22199   0.00000  Uiso   1.00
C476   C     0.34587   0.86009   0.27803   0.00000  Uiso   1.00
C477   C     0.36908   0.80635   0.22188   0.00000  Uiso   1.00
C478   C     0.63089   0.86027   0.27818   0.00000  Uiso   1.00
C479   C     0.46880   0.83373   0.33832   0.00000  Uiso   1.00
C480   C     0.53120   0.83391   0.16165   0.00000  Uiso   1.00
C481   C     0.44862   0.83842   0.38942   0.00000  Uiso   1.00
C482   C     0.55185   0.83583   0.11025   0.00000  Uiso   1.00
C483   C     0.39379   0.87138   0.46125   0.00000  Uiso   1.00
C484   C     0.61397   0.82009   0.03342   0.00000  Uiso   1.00
C485   C     0.40327   0.85840   0.41565   0.00000  Uiso   1.00
C486   C     0.60096   0.82478   0.08141   0.00000  Uiso   1.00
C487   C     0.48086   0.82905   0.41081   0.00000  Uiso   1.00
C488   C     0.51915   0.84643   0.08963   0.00000  Uiso   1.00
C489   C     0.47363   0.84479   0.45491   0.00000  Uiso   1.00
C490   C     0.53242   0.84366   0.04138   0.00000  Uiso   1.00
C491   C     0.42856   0.86506   0.48088   0.00000  Uiso   1.00
C492   C     0.57998   0.82858   0.01344   0.00000  Uiso   1.00
C493   C     0.51018   0.84103   0.47362   0.00000  Uiso   1.00
C494   C     0.49831   0.85264   0.02084   0.00000  Uiso   1.00
H495   H     0.38477   0.89531   0.04599   0.00000  Uiso   1.00
H496   H     0.62934   0.81028   0.44411   0.00000  Uiso   1.00
H497   H     0.48205   0.85443   0.11239   0.00000  Uiso   1.00
H498   H     0.51254   0.81024   0.39137   0.00000  Uiso   1.00
H499   H     0.35937   0.88711   0.48111   0.00000  Uiso   1.00
H500   H     0.65078   0.80947   0.01176   0.00000  Uiso   1.00
H501   H     0.44333   0.88605   0.08025   0.00000  Uiso   1.00
H502   H     0.57178   0.82164   0.40918   0.00000  Uiso   1.00
H503   H     0.57541   0.96268   0.24503   0.00000  Uiso   1.00
H504   H     0.42455   0.70399   0.25507   0.00000  Uiso   1.00
H505   H     0.57545   0.70418   0.24482   0.00000  Uiso   1.00
H506   H     0.42451   0.96248   0.25528   0.00000  Uiso   1.00
H507   H     0.64461   0.78536   0.19975   0.00000  Uiso   1.00
H508   H     0.35537   0.88130   0.30026   0.00000  Uiso   1.00
N509   N     0.38093   0.83334   0.25001   0.00000  Uiso   1.00
N510   N     0.61907   0.83332   0.24999   0.00000  Uiso   1.00
O511   O     0.46179   0.89442   0.25001   0.00000  Uiso   1.00
O512   O     0.53821   0.77225   0.25000   0.00000  Uiso   1.00
O513   O     0.53823   0.89441   0.25000   0.00000  Uiso   1.00
O514   O     0.46177   0.77226   0.25000   0.00000  Uiso   1.00
O515   O     0.43994   0.83334   0.31613   0.00000  Uiso   1.00
O516   O     0.56006   0.83333   0.18388   0.00000  Uiso   1.00
O517   O     0.51639   0.83333   0.31612   0.00000  Uiso   1.00
O518   O     0.48361   0.83334   0.18388   0.00000  Uiso   1.00
Zn519  Zn    0.44896   0.83334   0.25000   0.00000  Uiso   1.00
Zn520  Zn    0.55104   0.83333   0.25000   0.00000  Uiso   1.00
O521   O     0.63628   0.81632   0.09866   0.00000  Uiso   1.00
H522   H     0.63543   0.83923   0.12029   0.00000  Uiso   1.00
O523   O     0.36860   0.86755   0.39777   0.00000  Uiso   1.00
H524   H     0.36601   0.84328   0.37928   0.00000  Uiso   1.00
O525   O     0.40462   0.77926   0.19384   0.00000  Uiso   1.00
H526   H     0.39043   0.76199   0.17576   0.00000  Uiso   1.00
O527   O     0.59530   0.88727   0.30635   0.00000  Uiso   1.00
H528   H     0.60942   0.90438   0.32462   0.00000  Uiso   1.00
C529   C     0.83334   0.91338   0.25008   0.00000  Uiso   1.00
C530   C     0.83332   0.75329   0.24995   0.00000  Uiso   1.00
C531   C     0.78627   0.87304   0.04579   0.00000  Uiso   1.00
C532   C     0.89196   0.82721   0.44631   0.00000  Uiso   1.00
C533   C     0.75225   0.87930   0.02591   0.00000  Uiso   1.00
C534   C     0.92624   0.82150   0.46596   0.00000  Uiso   1.00
C535   C     0.87568   0.97877   0.24729   0.00000  Uiso   1.00
C536   C     0.79094   0.68789   0.25282   0.00000  Uiso   1.00
C537   C     0.87569   0.68800   0.24717   0.00000  Uiso   1.00
C538   C     0.79093   0.97866   0.25293   0.00000  Uiso   1.00
C539   C     0.83332   0.70913   0.24995   0.00000  Uiso   1.00
C540   C     0.83332   0.95753   0.25013   0.00000  Uiso   1.00
C541   C     0.98745   0.80657   0.22199   0.00000  Uiso   1.00
C542   C     0.67921   0.86009   0.27803   0.00000  Uiso   1.00
C543   C     0.70242   0.80635   0.22188   0.00000  Uiso   1.00
C544   C     0.96422   0.86027   0.27818   0.00000  Uiso   1.00
C545   C     0.80214   0.83373   0.33832   0.00000  Uiso   1.00
C546   C     0.86453   0.83391   0.16165   0.00000  Uiso   1.00
C547   C     0.78195   0.83842   0.38942   0.00000  Uiso   1.00
C548   C     0.88518   0.83583   0.11025   0.00000  Uiso   1.00
C549   C     0.72713   0.87138   0.46125   0.00000  Uiso   1.00
C550   C     0.94731   0.82009   0.03342   0.00000  Uiso   1.00
C551   C     0.73661   0.85840   0.41565   0.00000  Uiso   1.00
C552   C     0.93429   0.82478   0.08141   0.00000  Uiso   1.00
C553   C     0.81419   0.82905   0.41081   0.00000  Uiso   1.00
C554   C     0.85249   0.84643   0.08963   0.00000  Uiso   1.00
C555   C     0.80696   0.84479   0.45491   0.00000  Uiso   1.00
C556   C     0.86575   0.84366   0.04138   0.00000  Uiso   1.00
C557   C     0.76189   0.86506   0.48088   0.00000  Uiso   1.00
C558   C     0.91331   0.82858   0.01344   0.00000  Uiso   1.00
C559   C     0.84352   0.84103   0.47362   0.00000  Uiso   1.00
C560   C     0.83164   0.85264   0.02084   0.00000  Uiso   1.00
H561   H     0.71811   0.89531   0.04599   0.00000  Uiso   1.00
H562   H     0.96267   0.81028   0.44411   0.00000  Uiso   1.00
H563   H     0.81538   0.85443   0.11239   0.00000  Uiso   1.00
H564   H     0.84588   0.81024   0.39137   0.00000  Uiso   1.00
H565   H     0.69270   0.88711   0.48111   0.00000  Uiso   1.00
H566   H     0.98411   0.80947   0.01176   0.00000  Uiso   1.00
H567   H     0.77666   0.88605   0.08025   0.00000  Uiso   1.00
H568   H     0.90512   0.82164   0.40918   0.00000  Uiso   1.00
H569   H     0.90874   0.96268   0.24503   0.00000  Uiso   1.00
H570   H     0.75788   0.70399   0.25507   0.00000  Uiso   1.00
H571   H     0.90878   0.70418   0.24482   0.00000  Uiso   1.00
H572   H     0.75785   0.96248   0.25528   0.00000  Uiso   1.00
H573   H     0.97795   0.78536   0.19975   0.00000  Uiso   1.00
H574   H     0.68871   0.88130   0.30026   0.00000  Uiso   1.00
N575   N     0.71426   0.83334   0.25001   0.00000  Uiso   1.00
N576   N     0.95241   0.83332   0.24999   0.00000  Uiso   1.00
O577   O     0.79512   0.89442   0.25001   0.00000  Uiso   1.00
O578   O     0.87154   0.77225   0.25000   0.00000  Uiso   1.00
O579   O     0.87157   0.89441   0.25000   0.00000  Uiso   1.00
O580   O     0.79510   0.77226   0.25000   0.00000  Uiso   1.00
O581   O     0.77328   0.83334   0.31613   0.00000  Uiso   1.00
O582   O     0.89339   0.83333   0.18388   0.00000  Uiso   1.00
O583   O     0.84972   0.83333   0.31612   0.00000  Uiso   1.00
O584   O     0.81695   0.83334   0.18388   0.00000  Uiso   1.00
Zn585  Zn    0.78229   0.83334   0.25000   0.00000  Uiso   1.00
Zn586  Zn    0.88438   0.83333   0.25000   0.00000  Uiso   1.00
O587   O     0.96961   0.81632   0.09866   0.00000  Uiso   1.00
H588   H     0.96876   0.83923   0.12029   0.00000  Uiso   1.00
O589   O     0.70194   0.86755   0.39777   0.00000  Uiso   1.00
H590   H     0.69935   0.84328   0.37928   0.00000  Uiso   1.00
O591   O     0.73796   0.77926   0.19384   0.00000  Uiso   1.00
H592   H     0.72376   0.76199   0.17576   0.00000  Uiso   1.00
O593   O     0.92863   0.88727   0.30635   0.00000  Uiso   1.00
H594   H     0.94275   0.90438   0.32462   0.00000  Uiso   1.00
C595   C     0.16667   0.24671   0.75008   0.00000  Uiso   1.00
C596   C     0.16665   0.08662   0.74995   0.00000  Uiso   1.00
C597   C     0.11961   0.20637   0.54579   0.00000  Uiso   1.00
C598   C     0.22529   0.16055   0.94631   0.00000  Uiso   1.00
C599   C     0.08558   0.21263   0.52591   0.00000  Uiso   1.00
C600   C     0.25958   0.15483   0.96596   0.00000  Uiso   1.00
C601   C     0.20902   0.31211   0.74729   0.00000  Uiso   1.00
C602   C     0.12428   0.02122   0.75282   0.00000  Uiso   1.00
C603   C     0.20903   0.02133   0.74717   0.00000  Uiso   1.00
C604   C     0.12426   0.31200   0.75293   0.00000  Uiso   1.00
C605   C     0.16665   0.04246   0.74995   0.00000  Uiso   1.00
C606   C     0.16665   0.29087   0.75013   0.00000  Uiso   1.00
C607   C     0.32078   0.13990   0.72199   0.00000  Uiso   1.00
C608   C     0.01254   0.19342   0.77803   0.00000  Uiso   1.00
C609   C     0.03575   0.13969   0.72188   0.00000  Uiso   1.00
C610   C     0.29756   0.19360   0.77818   0.00000  Uiso   1.00
C611   C     0.13547   0.16706   0.83832   0.00000  Uiso   1.00
C612   C     0.19787   0.16725   0.66165   0.00000  Uiso   1.00
C613   C     0.11528   0.17175   0.88942   0.00000  Uiso   1.00
C614   C     0.21851   0.16916   0.61025   0.00000  Uiso   1.00
C615   C     0.06046   0.20472   0.96125   0.00000  Uiso   1.00
C616   C     0.28064   0.15343   0.53342   0.00000  Uiso   1.00
C617   C     0.06994   0.19174   0.91565   0.00000  Uiso   1.00
C618   C     0.26762   0.15811   0.58141   0.00000  Uiso   1.00
C619   C     0.14752   0.16239   0.91081   0.00000  Uiso   1.00
C620   C     0.18582   0.17977   0.58963   0.00000  Uiso   1.00
C621   C     0.14030   0.17813   0.95491   0.00000  Uiso   1.00
C622   C     0.19908   0.17699   0.54138   0.00000  Uiso   1.00
C623   C     0.09522   0.19839   0.98088   0.00000  Uiso   1.00
C624   C     0.24665   0.16191   0.51344   0.00000  Uiso   1.00
C625   C     0.17685   0.17436   0.97362   0.00000  Uiso   1.00
C626   C     0.16497   0.18597   0.52084   0.00000  Uiso   1.00
H627   H     0.05144   0.22864   0.54599   0.00000  Uiso   1.00
H628   H     0.29600   0.14361   0.94411   0.00000  Uiso   1.00
H629   H     0.14871   0.18776   0.61239   0.00000  Uiso   1.00
H630   H     0.17921   0.14358   0.89137   0.00000  Uiso   1.00
H631   H     0.02604   0.22044   0.98111   0.00000  Uiso   1.00
H632   H     0.31745   0.14280   0.51176   0.00000  Uiso   1.00
H633   H     0.11000   0.21939   0.58025   0.00000  Uiso   1.00
H634   H     0.23845   0.15497   0.90918   0.00000  Uiso   1.00
H635   H     0.24208   0.29601   0.74503   0.00000  Uiso   1.00
H636   H     0.09122   0.03732   0.75507   0.00000  Uiso   1.00
H637   H     0.24211   0.03752   0.74482   0.00000  Uiso   1.00
H638   H     0.09118   0.29581   0.75528   0.00000  Uiso   1.00
H639   H     0.31128   0.11869   0.69975   0.00000  Uiso   1.00
H640   H     0.02204   0.21463   0.80026   0.00000  Uiso   1.00
N641   N     0.04759   0.16668   0.75001   0.00000  Uiso   1.00
N642   N     0.28574   0.16666   0.74999   0.00000  Uiso   1.00
O643   O     0.12846   0.22775   0.75001   0.00000  Uiso   1.00
O644   O     0.20488   0.10558   0.75000   0.00000  Uiso   1.00
O645   O     0.20490   0.22774   0.75000   0.00000  Uiso   1.00
O646   O     0.12843   0.10559   0.75000   0.00000  Uiso   1.00
O647   O     0.10661   0.16667   0.81613   0.00000  Uiso   1.00
O648   O     0.22672   0.16666   0.68388   0.00000  Uiso   1.00
O649   O     0.18305   0.16666   0.81612   0.00000  Uiso   1.00
O650   O     0.15028   0.16667   0.68388   0.00000  Uiso   1.00
Zn651  Zn    0.11562   0.16667   0.75000   0.00000  Uiso   1.00
Zn652  Zn    0.21771   0.16666   0.75000   0.00000  Uiso   1.00
O653   O     0.30295   0.14966   0.59866   0.00000  Uiso   1.00
H654   H     0.30209   0.17257   0.62029   0.00000  Uiso   1.00
O655   O     0.03527   0.20088   0.89777   0.00000  Uiso   1.00
H656   H     0.03268   0.17661   0.87928   0.00000  Uiso   1.00
O657   O     0.07129   0.11259   0.69384   0.00000  Uiso   1.00
H658   H     0.05709   0.09532   0.67576   0.00000  Uiso   1.00
O659   O     0.26197   0.22060   0.80635   0.00000  Uiso   1.00
H660   H     0.27608   0.23771   0.82462   0.00000  Uiso   1.00
C661   C     0.50000   0.24671   0.75008   0.00000  Uiso   1.00
C662   C     0.49999   0.08662   0.74995   0.00000  Uiso   1.00
C663   C     0.45294   0.20637   0.54579   0.00000  Uiso   1.00
C664   C     0.55862   0.16055   0.94631   0.00000  Uiso   1.00
C665   C     0.41891   0.21263   0.52591   0.00000  Uiso   1.00
C666   C     0.59291   0.15483   0.96596   0.00000  Uiso   1.00
C667   C     0.54235   0.31211   0.74729   0.00000  Uiso   1.00
C668   C     0.45761   0.02122   0.75282   0.00000  Uiso   1.00
C669   C     0.54236   0.02133   0.74717   0.00000  Uiso   1.00
C670   C     0.45760   0.31200   0.75293   0.00000  Uiso   1.00
C671   C     0.49998   0.04246   0.74995   0.00000  Uiso   1.00
C672   C     0.49998   0.29087   0.75013   0.00000  Uiso   1.00
C673   C     0.65412   0.13990   0.72199   0.00000  Uiso   1.00
C674   C     0.34587   0.19342   0.77803   0.00000  Uiso   1.00
C675   C     0.36908   0.13969   0.72188   0.00000  Uiso   1.00
C676   C     0.63089   0.19360   0.77818   0.00000  Uiso   1.00
C677   C     0.46880   0.16706   0.83832   0.00000  Uiso   1.00
C678   C     0.53120   0.16725   0.66165   0.00000  Uiso   1.00
C679   C     0.44862   0.17175   0.88942   0.00000  Uiso   1.00
C680   C     0.55185   0.16916   0.61025   0.00000  Uiso   1.00
C681   C     0.39379   0.20472   0.96125   0.00000  Uiso   1.00
C682   C     0.61397   0.15343   0.53342   0.00000  Uiso   1.00
C683   C     0.40327   0.19174   0.91565   0.00000  Uiso   1.00
C684   C     0.60096   0.15811   0.58141   0.00000  Uiso   1.00
C685   C     0.48086   0.16239   0.91081   0.00000  Uiso   1.00
C686   C     0.51915   0.17977   0.58963   0.00000  Uiso   1.00
C687   C     0.47363   0.17813   0.95491   0.00000  Uiso   1.00
C688   C     0.53242   0.17699   0.54138   0.00000  Uiso   1.00
C689   C     0.42856   0.19839   0.98088   0.00000  Uiso   1.00
C690   C     0.57998   0.16191   0.51344   0.00000  Uiso   1.00
C691   C     0.51018   0.17436   0.97362   0.00000  Uiso   1.00
C692   C     0.49831   0.18597   0.52084   0.00000  Uiso   1.00
H693   H     0.38477   0.22864   0.54599   0.00000  Uiso   1.00
H694   H     0.62934   0.14361   0.94411   0.00000  Uiso   1.00
H695   H     0.48205   0.18776   0.61239   0.00000  Uiso   1.00
H696   H     0.51254   0.14358   0.89137   0.00000  Uiso   1.00
H697   H     0.35937   0.22044   0.98111   0.00000  Uiso   1.00
H698   H     0.65078   0.14280   0.51176   0.00000  Uiso   1.00
H699   H     0.44333   0.21939   0.58025   0.00000  Uiso   1.00
H700   H     0.57178   0.15497   0.90918   0.00000  Uiso   1.00
H701   H     0.57541   0.29601   0.74503   0.00000  Uiso   1.00
H702   H     0.42455   0.03732   0.75507   0.00000  Uiso   1.00
H703   H     0.57545   0.03752   0.74482   0.00000  Uiso   1.00
H704   H     0.42451   0.29581   0.75528   0.00000  Uiso   1.00
H705   H     0.64461   0.11869   0.69975   0.00000  Uiso   1.00
H706   H     0.35537   0.21463   0.80026   0.00000  Uiso   1.00
N707   N     0.38093   0.16668   0.75001   0.00000  Uiso   1.00
N708   N     0.61907   0.16666   0.74999   0.00000  Uiso   1.00
O709   O     0.46179   0.22775   0.75001   0.00000  Uiso   1.00
O710   O     0.53821   0.10558   0.75000   0.00000  Uiso   1.00
O711   O     0.53823   0.22774   0.75000   0.00000  Uiso   1.00
O712   O     0.46177   0.10559   0.75000   0.00000  Uiso   1.00
O713   O     0.43994   0.16667   0.81613   0.00000  Uiso   1.00
O714   O     0.56006   0.16666   0.68388   0.00000  Uiso   1.00
O715   O     0.51639   0.16666   0.81612   0.00000  Uiso   1.00
O716   O     0.48361   0.16667   0.68388   0.00000  Uiso   1.00
Zn717  Zn    0.44896   0.16667   0.75000   0.00000  Uiso   1.00
Zn718  Zn    0.55104   0.16666   0.75000   0.00000  Uiso   1.00
O719   O     0.63628   0.14966   0.59866   0.00000  Uiso   1.00
H720   H     0.63543   0.17257   0.62029   0.00000  Uiso   1.00
O721   O     0.36860   0.20088   0.89777   0.00000  Uiso   1.00
H722   H     0.36601   0.17661   0.87928   0.00000  Uiso   1.00
O723   O     0.40462   0.11259   0.69384   0.00000  Uiso   1.00
H724   H     0.39043   0.09532   0.67576   0.00000  Uiso   1.00
O725   O     0.59530   0.22060   0.80635   0.00000  Uiso   1.00
H726   H     0.60942   0.23771   0.82462   0.00000  Uiso   1.00
C727   C     0.83334   0.24671   0.75008   0.00000  Uiso   1.00
C728   C     0.83332   0.08662   0.74995   0.00000  Uiso   1.00
C729   C     0.78627   0.20637   0.54579   0.00000  Uiso   1.00
C730   C     0.89196   0.16055   0.94631   0.00000  Uiso   1.00
C731   C     0.75225   0.21263   0.52591   0.00000  Uiso   1.00
C732   C     0.92624   0.15483   0.96596   0.00000  Uiso   1.00
C733   C     0.87568   0.31211   0.74729   0.00000  Uiso   1.00
C734   C     0.79094   0.02122   0.75282   0.00000  Uiso   1.00
C735   C     0.87569   0.02133   0.74717   0.00000  Uiso   1.00
C736   C     0.79093   0.31200   0.75293   0.00000  Uiso   1.00
C737   C     0.83332   0.04246   0.74995   0.00000  Uiso   1.00
C738   C     0.83332   0.29087   0.75013   0.00000  Uiso   1.00
C739   C     0.98745   0.13990   0.72199   0.00000  Uiso   1.00
C740   C     0.67921   0.19342   0.77803   0.00000  Uiso   1.00
C741   C     0.70242   0.13969   0.72188   0.00000  Uiso   1.00
C742   C     0.96422   0.19360   0.77818   0.00000  Uiso   1.00
C743   C     0.80214   0.16706   0.83832   0.00000  Uiso   1.00
C744   C     0.86453   0.16725   0.66165   0.00000  Uiso   1.00
C745   C     0.78195   0.17175   0.88942   0.00000  Uiso   1.00
C746   C     0.88518   0.16916   0.61025   0.00000  Uiso   1.00
C747   C     0.72713   0.20472   0.96125   0.00000  Uiso   1.00
C748   C     0.94731   0.15343   0.53342   0.00000  Uiso   1.00
C749   C     0.73661   0.19174   0.91565   0.00000  Uiso   1.00
C750   C     0.93429   0.15811   0.58141   0.00000  Uiso   1.00
C751   C     0.81419   0.16239   0.91081   0.00000  Uiso   1.00
C752   C     0.85249   0.17977   0.58963   0.00000  Uiso   1.00
C753   C     0.80696   0.17813   0.95491   0.00000  Uiso   1.00
C754   C     0.86575   0.17699   0.54138   0.00000  Uiso   1.00
C755   C     0.76189   0.19839   0.98088   0.00000  Uiso   1.00
C756   C     0.91331   0.16191   0.51344   0.00000  Uiso   1.00
C757   C     0.84352   0.17436   0.97362   0.00000  Uiso   1.00
C758   C     0.83164   0.18597   0.52084   0.00000  Uiso   1.00
H759   H     0.71811   0.22864   0.54599   0.00000  Uiso   1.00
H760   H     0.96267   0.14361   0.94411   0.00000  Uiso   1.00
H761   H     0.81538   0.18776   0.61239   0.00000  Uiso   1.00
H762   H     0.84588   0.14358   0.89137   0.00000  Uiso   1.00
H763   H     0.69270   0.22044   0.98111   0.00000  Uiso   1.00
H764   H     0.98411   0.14280   0.51176   0.00000  Uiso   1.00
H765   H     0.77666   0.21939   0.58025   0.00000  Uiso   1.00
H766   H     0.90512   0.15497   0.90918   0.00000  Uiso   1.00
H767   H     0.90874   0.29601   0.74503   0.00000  Uiso   1.00
H768   H     0.75788   0.03732   0.75507   0.00000  Uiso   1.00
H769   H     0.90878   0.03752   0.74482   0.00000  Uiso   1.00
H770   H     0.75785   0.29581   0.75528   0.00000  Uiso   1.00
H771   H     0.97795   0.11869   0.69975   0.00000  Uiso   1.00
H772   H     0.68871   0.21463   0.80026   0.00000  Uiso   1.00
N773   N     0.71426   0.16668   0.75001   0.00000  Uiso   1.00
N774   N     0.95241   0.16666   0.74999   0.00000  Uiso   1.00
O775   O     0.79512   0.22775   0.75001   0.00000  Uiso   1.00
O776   O     0.87154   0.10558   0.75000   0.00000  Uiso   1.00
O777   O     0.87157   0.22774   0.75000   0.00000  Uiso   1.00
O778   O     0.79510   0.10559   0.75000   0.00000  Uiso   1.00
O779   O     0.77328   0.16667   0.81613   0.00000  Uiso   1.00
O780   O     0.89339   0.16666   0.68388   0.00000  Uiso   1.00
O781   O     0.84972   0.16666   0.81612   0.00000  Uiso   1.00
O782   O     0.81695   0.16667   0.68388   0.00000  Uiso   1.00
Zn783  Zn    0.78229   0.16667   0.75000   0.00000  Uiso   1.00
Zn784  Zn    0.88438   0.16666   0.75000   0.00000  Uiso   1.00
O785   O     0.96961   0.14966   0.59866   0.00000  Uiso   1.00
H786   H     0.96876   0.17257   0.62029   0.00000  Uiso   1.00
O787   O     0.70194   0.20088   0.89777   0.00000  Uiso   1.00
H788   H     0.69935   0.17661   0.87928   0.00000  Uiso   1.00
O789   O     0.73796   0.11259   0.69384   0.00000  Uiso   1.00
H790   H     0.72376   0.09532   0.67576   0.00000  Uiso   1.00
O791   O     0.92863   0.22060   0.80635   0.00000  Uiso   1.00
H792   H     0.94275   0.23771   0.82462   0.00000  Uiso   1.00
C793   C     0.16667   0.58005   0.75008   0.00000  Uiso   1.00
C794   C     0.16665   0.41995   0.74995   0.00000  Uiso   1.00
C795   C     0.11961   0.53970   0.54579   0.00000  Uiso   1.00
C796   C     0.22529   0.49388   0.94631   0.00000  Uiso   1.00
C797   C     0.08558   0.54597   0.52591   0.00000  Uiso   1.00
C798   C     0.25958   0.48817   0.96596   0.00000  Uiso   1.00
C799   C     0.20902   0.64544   0.74729   0.00000  Uiso   1.00
C800   C     0.12428   0.35456   0.75282   0.00000  Uiso   1.00
C801   C     0.20903   0.35467   0.74717   0.00000  Uiso   1.00
C802   C     0.12426   0.64533   0.75293   0.00000  Uiso   1.00
C803   C     0.16665   0.37580   0.74995   0.00000  Uiso   1.00
C804   C     0.16665   0.62420   0.75013   0.00000  Uiso   1.00
C805   C     0.32078   0.47323   0.72199   0.00000  Uiso   1.00
C806   C     0.01254   0.52675   0.77803   0.00000  Uiso   1.00
C807   C     0.03575   0.47302   0.72188   0.00000  Uiso   1.00
C808   C     0.29756   0.52693   0.77818   0.00000  Uiso   1.00
C809   C     0.13547   0.50039   0.83832   0.00000  Uiso   1.00
C810   C     0.19787   0.50058   0.66165   0.00000  Uiso   1.00
C811   C     0.11528   0.50509   0.88942   0.00000  Uiso   1.00
C812   C     0.21851   0.50250   0.61025   0.00000  Uiso   1.00
C813   C     0.06046   0.53805   0.96125   0.00000  Uiso   1.00
C814   C     0.28064   0.48676   0.53342   0.00000  Uiso   1.00
C815   C     0.06994   0.52507   0.91565   0.00000  Uiso   1.00
C816   C     0.26762   0.49145   0.58141   0.00000  Uiso   1.00
C817   C     0.14752   0.49572   0.91081   0.00000  Uiso   1.00
C818   C     0.18582   0.51310   0.58963   0.00000  Uiso   1.00
C819   C     0.14030   0.51146   0.95491   0.00000  Uiso   1.00
C820   C     0.19908   0.51033   0.54138   0.00000  Uiso   1.00
C821   C     0.09522   0.53173   0.98088   0.00000  Uiso   1.00
C822   C     0.24665   0.49524   0.51344   0.00000  Uiso   1.00
C823   C     0.17685   0.50770   0.97362   0.00000  Uiso   1.00
C824   C     0.16497   0.51931   0.52084   0.00000  Uiso   1.00
H825   H     0.05144   0.56197   0.54599   0.00000  Uiso   1.00
H826   H     0.29600   0.47695   0.94411   0.00000  Uiso   1.00
H827   H     0.14871   0.52109   0.61239   0.00000  Uiso   1.00
H828   H     0.17921   0.47691   0.89137   0.00000  Uiso   1.00
H829   H     0.02604   0.55377   0.98111   0.00000  Uiso   1.00
H830   H     0.31745   0.47613   0.51176   0.00000  Uiso   1.00
H831   H     0.11000   0.55272   0.58025   0.00000  Uiso   1.00
H832   H     0.23845   0.48831   0.90918   0.00000  Uiso   1.00
H833   H     0.24208   0.62934   0.74503   0.00000  Uiso   1.00
H834   H     0.09122   0.37065   0.75507   0.00000  Uiso   1.00
H835   H     0.24211   0.37085   0.74482   0.00000  Uiso   1.00
H836   H     0.09118   0.62914   0.75528   0.00000  Uiso   1.00
H837   H     0.31128   0.45202   0.69975   0.00000  Uiso   1.00
H838   H     0.02204   0.54797   0.80026   0.00000  Uiso   1.00
N839   N     0.04759   0.50001   0.75001   0.00000  Uiso   1.00
N840   N     0.28574   0.49999   0.74999   0.00000  Uiso   1.00
O841   O     0.12846   0.56108   0.75001   0.00000  Uiso   1.00
O842   O     0.20488   0.43892   0.75000   0.00000  Uiso   1.00
O843   O     0.20490   0.56107   0.75000   0.00000  Uiso   1.00
O844   O     0.12843   0.43893   0.75000   0.00000  Uiso   1.00
O845   O     0.10661   0.50001   0.81613   0.00000  Uiso   1.00
O846   O     0.22672   0.49999   0.68388   0.00000  Uiso   1.00
O847   O     0.18305   0.50000   0.81612   0.00000  Uiso   1.00
O848   O     0.15028   0.50000   0.68388   0.00000  Uiso   1.00
Zn849  Zn    0.11562   0.50001   0.75000   0.00000  Uiso   1.00
Zn850  Zn    0.21771   0.49999   0.75000   0.00000  Uiso   1.00
O851   O     0.30295   0.48299   0.59866   0.00000  Uiso   1.00
H852   H     0.30209   0.50590   0.62029   0.00000  Uiso   1.00
O853   O     0.03527   0.53422   0.89777   0.00000  Uiso   1.00
H854   H     0.03268   0.50995   0.87928   0.00000  Uiso   1.00
O855   O     0.07129   0.44592   0.69384   0.00000  Uiso   1.00
H856   H     0.05709   0.42865   0.67576   0.00000  Uiso   1.00
O857   O     0.26197   0.55393   0.80635   0.00000  Uiso   1.00
H858   H     0.27608   0.57104   0.82462   0.00000  Uiso   1.00
C859   C     0.50000   0.58005   0.75008   0.00000  Uiso   1.00
C860   C     0.49999   0.41995   0.74995   0.00000  Uiso   1.00
C861   C     0.45294   0.53970   0.54579   0.00000  Uiso   1.00
C862   C     0.55862   0.49388   0.94631   0.00000  Uiso   1.00
C863   C     0.41891   0.54597   0.52591   0.00000  Uiso   1.00
C864   C     0.59291   0.48817   0.96596   0.00000  Uiso   1.00
C865   C     0.54235   0.64544   0.74729   0.00000  Uiso   1.00
C866   C     0.45761   0.35456   0.75282   0.00000  Uiso   1.00
C867   C     0.54236   0.35467   0.74717   0.00000  Uiso   1.00
C868   C     0.45760   0.64533   0.75293   0.00000  Uiso   1.00
C869   C     0.49998   0.37580   0.74995   0.00000  Uiso   1.00
C870   C     0.49998   0.62420   0.75013   0.00000  Uiso   1.00
C871   C     0.65412   0.47323   0.72199   0.00000  Uiso   1.00
C872   C     0.34587   0.52675   0.77803   0.00000  Uiso   1.00
C873   C     0.36908   0.47302   0.72188   0.00000  Uiso   1.00
C874   C     0.63089   0.52693   0.77818   0.00000  Uiso   1.00
C875   C     0.46880   0.50039   0.83832   0.00000  Uiso   1.00
C876   C     0.53120   0.50058   0.66165   0.00000  Uiso   1.00
C877   C     0.44862   0.50509   0.88942   0.00000  Uiso   1.00
C878   C     0.55185   0.50250   0.61025   0.00000  Uiso   1.00
C879   C     0.39379   0.53805   0.96125   0.00000  Uiso   1.00
C880   C     0.61397   0.48676   0.53342   0.00000  Uiso   1.00
C881   C     0.40327   0.52507   0.91565   0.00000  Uiso   1.00
C882   C     0.60096   0.49145   0.58141   0.00000  Uiso   1.00
C883   C     0.48086   0.49572   0.91081   0.00000  Uiso   1.00
C884   C     0.51915   0.51310   0.58963   0.00000  Uiso   1.00
C885   C     0.47363   0.51146   0.95491   0.00000  Uiso   1.00
C886   C     0.53242   0.51033   0.54138   0.00000  Uiso   1.00
C887   C     0.42856   0.53173   0.98088   0.00000  Uiso   1.00
C888   C     0.57998   0.49524   0.51344   0.00000  Uiso   1.00
C889   C     0.51018   0.50770   0.97362   0.00000  Uiso   1.00
C890   C     0.49831   0.51931   0.52084   0.00000  Uiso   1.00
H891   H     0.38477   0.56197   0.54599   0.00000  Uiso   1.00
H892   H     0.62934   0.47695   0.94411   0.00000  Uiso   1.00
H893   H     0.48205   0.52109   0.61239   0.00000  Uiso   1.00
H894   H     0.51254   0.47691   0.89137   0.00000  Uiso   1.00
H895   H     0.35937   0.55377   0.98111   0.00000  Uiso   1.00
H896   H     0.65078   0.47613   0.51176   0.00000  Uiso   1.00
H897   H     0.44333   0.55272   0.58025   0.00000  Uiso   1.00
H898   H     0.57178   0.48831   0.90918   0.00000  Uiso   1.00
H899   H     0.57541   0.62934   0.74503   0.00000  Uiso   1.00
H900   H     0.42455   0.37065   0.75507   0.00000  Uiso   1.00
H901   H     0.57545   0.37085   0.74482   0.00000  Uiso   1.00
H902   H     0.42451   0.62914   0.75528   0.00000  Uiso   1.00
H903   H     0.64461   0.45202   0.69975   0.00000  Uiso   1.00
H904   H     0.35537   0.54797   0.80026   0.00000  Uiso   1.00
N905   N     0.38093   0.50001   0.75001   0.00000  Uiso   1.00
N906   N     0.61907   0.49999   0.74999   0.00000  Uiso   1.00
O907   O     0.46179   0.56108   0.75001   0.00000  Uiso   1.00
O908   O     0.53821   0.43892   0.75000   0.00000  Uiso   1.00
O909   O     0.53823   0.56107   0.75000   0.00000  Uiso   1.00
O910   O     0.46177   0.43893   0.75000   0.00000  Uiso   1.00
O911   O     0.43994   0.50001   0.81613   0.00000  Uiso   1.00
O912   O     0.56006   0.49999   0.68388   0.00000  Uiso   1.00
O913   O     0.51639   0.50000   0.81612   0.00000  Uiso   1.00
O914   O     0.48361   0.50000   0.68388   0.00000  Uiso   1.00
Zn915  Zn    0.44896   0.50001   0.75000   0.00000  Uiso   1.00
Zn916  Zn    0.55104   0.49999   0.75000   0.00000  Uiso   1.00
O917   O     0.63628   0.48299   0.59866   0.00000  Uiso   1.00
H918   H     0.63543   0.50590   0.62029   0.00000  Uiso   1.00
O919   O     0.36860   0.53422   0.89777   0.00000  Uiso   1.00
H920   H     0.36601   0.50995   0.87928   0.00000  Uiso   1.00
O921   O     0.40462   0.44592   0.69384   0.00000  Uiso   1.00
H922   H     0.39043   0.42865   0.67576   0.00000  Uiso   1.00
O923   O     0.59530   0.55393   0.80635   0.00000  Uiso   1.00
H924   H     0.60942   0.57104   0.82462   0.00000  Uiso   1.00
C925   C     0.83334   0.58005   0.75008   0.00000  Uiso   1.00
C926   C     0.83332   0.41995   0.74995   0.00000  Uiso   1.00
C927   C     0.78627   0.53970   0.54579   0.00000  Uiso   1.00
C928   C     0.89196   0.49388   0.94631   0.00000  Uiso   1.00
C929   C     0.75225   0.54597   0.52591   0.00000  Uiso   1.00
C930   C     0.92624   0.48817   0.96596   0.00000  Uiso   1.00
C931   C     0.87568   0.64544   0.74729   0.00000  Uiso   1.00
C932   C     0.79094   0.35456   0.75282   0.00000  Uiso   1.00
C933   C     0.87569   0.35467   0.74717   0.00000  Uiso   1.00
C934   C     0.79093   0.64533   0.75293   0.00000  Uiso   1.00
C935   C     0.83332   0.37580   0.74995   0.00000  Uiso   1.00
C936   C     0.83332   0.62420   0.75013   0.00000  Uiso   1.00
C937   C     0.98745   0.47323   0.72199   0.00000  Uiso   1.00
C938   C     0.67921   0.52675   0.77803   0.00000  Uiso   1.00
C939   C     0.70242   0.47302   0.72188   0.00000  Uiso   1.00
C940   C     0.96422   0.52693   0.77818   0.00000  Uiso   1.00
C941   C     0.80214   0.50039   0.83832   0.00000  Uiso   1.00
C942   C     0.86453   0.50058   0.66165   0.00000  Uiso   1.00
C943   C     0.78195   0.50509   0.88942   0.00000  Uiso   1.00
C944   C     0.88518   0.50250   0.61025   0.00000  Uiso   1.00
C945   C     0.72713   0.53805   0.96125   0.00000  Uiso   1.00
C946   C     0.94731   0.48676   0.53342   0.00000  Uiso   1.00
C947   C     0.73661   0.52507   0.91565   0.00000  Uiso   1.00
C948   C     0.93429   0.49145   0.58141   0.00000  Uiso   1.00
C949   C     0.81419   0.49572   0.91081   0.00000  Uiso   1.00
C950   C     0.85249   0.51310   0.58963   0.00000  Uiso   1.00
C951   C     0.80696   0.51146   0.95491   0.00000  Uiso   1.00
C952   C     0.86575   0.51033   0.54138   0.00000  Uiso   1.00
C953   C     0.76189   0.53173   0.98088   0.00000  Uiso   1.00
C954   C     0.91331   0.49524   0.51344   0.00000  Uiso   1.00
C955   C     0.84352   0.50770   0.97362   0.00000  Uiso   1.00
C956   C     0.83164   0.51931   0.52084   0.00000  Uiso   1.00
H957   H     0.71811   0.56197   0.54599   0.00000  Uiso   1.00
H958   H     0.96267   0.47695   0.94411   0.00000  Uiso   1.00
H959   H     0.81538   0.52109   0.61239   0.00000  Uiso   1.00
H960   H     0.84588   0.47691   0.89137   0.00000  Uiso   1.00
H961   H     0.69270   0.55377   0.98111   0.00000  Uiso   1.00
H962   H     0.98411   0.47613   0.51176   0.00000  Uiso   1.00
H963   H     0.77666   0.55272   0.58025   0.00000  Uiso   1.00
H964   H     0.90512   0.48831   0.90918   0.00000  Uiso   1.00
H965   H     0.90874   0.62934   0.74503   0.00000  Uiso   1.00
H966   H     0.75788   0.37065   0.75507   0.00000  Uiso   1.00
H967   H     0.90878   0.37085   0.74482   0.00000  Uiso   1.00
H968   H     0.75785   0.62914   0.75528   0.00000  Uiso   1.00
H969   H     0.97795   0.45202   0.69975   0.00000  Uiso   1.00
H970   H     0.68871   0.54797   0.80026   0.00000  Uiso   1.00
N971   N     0.71426   0.50001   0.75001   0.00000  Uiso   1.00
N972   N     0.95241   0.49999   0.74999   0.00000  Uiso   1.00
O973   O     0.79512   0.56108   0.75001   0.00000  Uiso   1.00
O974   O     0.87154   0.43892   0.75000   0.00000  Uiso   1.00
O975   O     0.87157   0.56107   0.75000   0.00000  Uiso   1.00
O976   O     0.79510   0.43893   0.75000   0.00000  Uiso   1.00
O977   O     0.77328   0.50001   0.81613   0.00000  Uiso   1.00
O978   O     0.89339   0.49999   0.68388   0.00000  Uiso   1.00
O979   O     0.84972   0.50000   0.81612   0.00000  Uiso   1.00
O980   O     0.81695   0.50000   0.68388   0.00000  Uiso   1.00
Zn981  Zn    0.78229   0.50001   0.75000   0.00000  Uiso   1.00
Zn982  Zn    0.88438   0.49999   0.75000   0.00000  Uiso   1.00
O983   O     0.96961   0.48299   0.59866   0.00000  Uiso   1.00
H984   H     0.96876   0.50590   0.62029   0.00000  Uiso   1.00
O985   O     0.70194   0.53422   0.89777   0.00000  Uiso   1.00
H986   H     0.69935   0.50995   0.87928   0.00000  Uiso   1.00
O987   O     0.73796   0.44592   0.69384   0.00000  Uiso   1.00
H988   H     0.72376   0.42865   0.67576   0.00000  Uiso   1.00
O989   O     0.92863   0.55393   0.80635   0.00000  Uiso   1.00
H990   H     0.94275   0.57104   0.82462   0.00000  Uiso   1.00
C991   C     0.16667   0.91338   0.75008   0.00000  Uiso   1.00
C992   C     0.16665   0.75329   0.74995   0.00000  Uiso   1.00
C993   C     0.11961   0.87304   0.54579   0.00000  Uiso   1.00
C994   C     0.22529   0.82721   0.94631   0.00000  Uiso   1.00
C995   C     0.08558   0.87930   0.52591   0.00000  Uiso   1.00
C996   C     0.25958   0.82150   0.96596   0.00000  Uiso   1.00
C997   C     0.20902   0.97877   0.74729   0.00000  Uiso   1.00
C998   C     0.12428   0.68789   0.75282   0.00000  Uiso   1.00
C999   C     0.20903   0.68800   0.74717   0.00000  Uiso   1.00
C1000  C     0.12426   0.97866   0.75293   0.00000  Uiso   1.00
C1001  C     0.16665   0.70913   0.74995   0.00000  Uiso   1.00
C1002  C     0.16665   0.95753   0.75013   0.00000  Uiso   1.00
C1003  C     0.32078   0.80657   0.72199   0.00000  Uiso   1.00
C1004  C     0.01254   0.86009   0.77803   0.00000  Uiso   1.00
C1005  C     0.03575   0.80635   0.72188   0.00000  Uiso   1.00
C1006  C     0.29756   0.86027   0.77818   0.00000  Uiso   1.00
C1007  C     0.13547   0.83373   0.83832   0.00000  Uiso   1.00
C1008  C     0.19787   0.83391   0.66165   0.00000  Uiso   1.00
C1009  C     0.11528   0.83842   0.88942   0.00000  Uiso   1.00
C1010  C     0.21851   0.83583   0.61025   0.00000  Uiso   1.00
C1011  C     0.06046   0.87138   0.96125   0.00000  Uiso   1.00
C1012  C     0.28064   0.82009   0.53342   0.00000  Uiso   1.00
C1013  C     0.06994   0.85840   0.91565   0.00000  Uiso   1.00
C1014  C     0.26762   0.82478   0.58141   0.00000  Uiso   1.00
C1015  C     0.14752   0.82905   0.91081   0.00000  Uiso   1.00
C1016  C     0.18582   0.84643   0.58963   0.00000  Uiso   1.00
C1017  C     0.14030   0.84479   0.95491   0.00000  Uiso   1.00
C1018  C     0.19908   0.84366   0.54138   0.00000  Uiso   1.00
C1019  C     0.09522   0.86506   0.98088   0.00000  Uiso   1.00
C1020  C     0.24665   0.82858   0.51344   0.00000  Uiso   1.00
C1021  C     0.17685   0.84103   0.97362   0.00000  Uiso   1.00
C1022  C     0.16497   0.85264   0.52084   0.00000  Uiso   1.00
H1023  H     0.05144   0.89531   0.54599   0.00000  Uiso   1.00
H1024  H     0.29600   0.81028   0.94411   0.00000  Uiso   1.00
H1025  H     0.14871   0.85443   0.61239   0.00000  Uiso   1.00
H1026  H     0.17921   0.81024   0.89137   0.00000  Uiso   1.00
H1027  H     0.02604   0.88711   0.98111   0.00000  Uiso   1.00
H1028  H     0.31745   0.80947   0.51176   0.00000  Uiso   1.00
H1029  H     0.11000   0.88605   0.58025   0.00000  Uiso   1.00
H1030  H     0.23845   0.82164   0.90918   0.00000  Uiso   1.00
H1031  H     0.24208   0.96268   0.74503   0.00000  Uiso   1.00
H1032  H     0.09122   0.70399   0.75507   0.00000  Uiso   1.00
H1033  H     0.24211   0.70418   0.74482   0.00000  Uiso   1.00
H1034  H     0.09118   0.96248   0.75528   0.00000  Uiso   1.00
H1035  H     0.31128   0.78536   0.69975   0.00000  Uiso   1.00
H1036  H     0.02204   0.88130   0.80026   0.00000  Uiso   1.00
N1037  N     0.04759   0.83334   0.75001   0.00000  Uiso   1.00
N1038  N     0.28574   0.83332   0.74999   0.00000  Uiso   1.00
O1039  O     0.12846   0.89442   0.75001   0.00000  Uiso   1.00
O1040  O     0.20488   0.77225   0.75000   0.00000  Uiso   1.00
O1041  O     0.20490   0.89441   0.75000   0.00000  Uiso   1.00
O1042  O     0.12843   0.77226   0.75000   0.00000  Uiso   1.00
O1043  O     0.10661   0.83334   0.81613   0.00000  Uiso   1.00
O1044  O     0.22672   0.83333   0.68388   0.00000  Uiso   1.00
O1045  O     0.18305   0.83333   0.81612   0.00000  Uiso   1.00
O1046  O     0.15028   0.83334   0.68388   0.00000  Uiso   1.00
Zn1047 Zn    0.11562   0.83334   0.75000   0.00000  Uiso   1.00
Zn1048 Zn    0.21771   0.83333   0.75000   0.00000  Uiso   1.00
O1049  O     0.30295   0.81632   0.59866   0.00000  Uiso   1.00
H1050  H     0.30209   0.83923   0.62029   0.00000  Uiso   1.00
O1051  O     0.03527   0.86755   0.89777   0.00000  Uiso   1.00
H1052  H     0.03268   0.84328   0.87928   0.00000  Uiso   1.00
O1053  O     0.07129   0.77926   0.69384   0.00000  Uiso   1.00
H1054  H     0.05709   0.76199   0.67576   0.00000  Uiso   1.00
O1055  O     0.26197   0.88727   0.80635   0.00000  Uiso   1.00
H1056  H     0.27608   0.90438   0.82462   0.00000  Uiso   1.00
C1057  C     0.50000   0.91338   0.75008   0.00000  Uiso   1.00
C1058  C     0.49999   0.75329   0.74995   0.00000  Uiso   1.00
C1059  C     0.45294   0.87304   0.54579   0.00000  Uiso   1.00
C1060  C     0.55862   0.82721   0.94631   0.00000  Uiso   1.00
C1061  C     0.41891   0.87930   0.52591   0.00000  Uiso   1.00
C1062  C     0.59291   0.82150   0.96596   0.00000  Uiso   1.00
C1063  C     0.54235   0.97877   0.74729   0.00000  Uiso   1.00
C1064  C     0.45761   0.68789   0.75282   0.00000  Uiso   1.00
C1065  C     0.54236   0.68800   0.74717   0.00000  Uiso   1.00
C1066  C     0.45760   0.97866   0.75293   0.00000  Uiso   1.00
C1067  C     0.49998   0.70913   0.74995   0.00000  Uiso   1.00
C1068  C     0.49998   0.95753   0.75013   0.00000  Uiso   1.00
C1069  C     0.65412   0.80657   0.72199   0.00000  Uiso   1.00
C1070  C     0.34587   0.86009   0.77803   0.00000  Uiso   1.00
C1071  C     0.36908   0.80635   0.72188   0.00000  Uiso   1.00
C1072  C     0.63089   0.86027   0.77818   0.00000  Uiso   1.00
C1073  C     0.46880   0.83373   0.83832   0.00000  Uiso   1.00
C1074  C     0.53120   0.83391   0.66165   0.00000  Uiso   1.00
C1075  C     0.44862   0.83842   0.88942   0.00000  Uiso   1.00
C1076  C     0.55185   0.83583   0.61025   0.00000  Uiso   1.00
C1077  C     0.39379   0.87138   0.96125   0.00000  Uiso   1.00
C1078  C     0.61397   0.82009   0.53342   0.00000  Uiso   1.00
C1079  C     0.40327   0.85840   0.91565   0.00000  Uiso   1.00
C1080  C     0.60096   0.82478   0.58141   0.00000  Uiso   1.00
C1081  C     0.48086   0.82905   0.91081   0.00000  Uiso   1.00
C1082  C     0.51915   0.84643   0.58963   0.00000  Uiso   1.00
C1083  C     0.47363   0.84479   0.95491   0.00000  Uiso   1.00
C1084  C     0.53242   0.84366   0.54138   0.00000  Uiso   1.00
C1085  C     0.42856   0.86506   0.98088   0.00000  Uiso   1.00
C1086  C     0.57998   0.82858   0.51344   0.00000  Uiso   1.00
C1087  C     0.51018   0.84103   0.97362   0.00000  Uiso   1.00
C1088  C     0.49831   0.85264   0.52084   0.00000  Uiso   1.00
H1089  H     0.38477   0.89531   0.54599   0.00000  Uiso   1.00
H1090  H     0.62934   0.81028   0.94411   0.00000  Uiso   1.00
H1091  H     0.48205   0.85443   0.61239   0.00000  Uiso   1.00
H1092  H     0.51254   0.81024   0.89137   0.00000  Uiso   1.00
H1093  H     0.35937   0.88711   0.98111   0.00000  Uiso   1.00
H1094  H     0.65078   0.80947   0.51176   0.00000  Uiso   1.00
H1095  H     0.44333   0.88605   0.58025   0.00000  Uiso   1.00
H1096  H     0.57178   0.82164   0.90918   0.00000  Uiso   1.00
H1097  H     0.57541   0.96268   0.74503   0.00000  Uiso   1.00
H1098  H     0.42455   0.70399   0.75507   0.00000  Uiso   1.00
H1099  H     0.57545   0.70418   0.74482   0.00000  Uiso   1.00
H1100  H     0.42451   0.96248   0.75528   0.00000  Uiso   1.00
H1101  H     0.64461   0.78536   0.69975   0.00000  Uiso   1.00
H1102  H     0.35537   0.88130   0.80026   0.00000  Uiso   1.00
N1103  N     0.38093   0.83334   0.75001   0.00000  Uiso   1.00
N1104  N     0.61907   0.83332   0.74999   0.00000  Uiso   1.00
O1105  O     0.46179   0.89442   0.75001   0.00000  Uiso   1.00
O1106  O     0.53821   0.77225   0.75000   0.00000  Uiso   1.00
O1107  O     0.53823   0.89441   0.75000   0.00000  Uiso   1.00
O1108  O     0.46177   0.77226   0.75000   0.00000  Uiso   1.00
O1109  O     0.43994   0.83334   0.81613   0.00000  Uiso   1.00
O1110  O     0.56006   0.83333   0.68388   0.00000  Uiso   1.00
O1111  O     0.51639   0.83333   0.81612   0.00000  Uiso   1.00
O1112  O     0.48361   0.83334   0.68388   0.00000  Uiso   1.00
Zn1113 Zn    0.44896   0.83334   0.75000   0.00000  Uiso   1.00
Zn1114 Zn    0.55104   0.83333   0.75000   0.00000  Uiso   1.00
O1115  O     0.63628   0.81632   0.59866   0.00000  Uiso   1.00
H1116  H     0.63543   0.83923   0.62029   0.00000  Uiso   1.00
O1117  O     0.36860   0.86755   0.89777   0.00000  Uiso   1.00
H1118  H     0.36601   0.84328   0.87928   0.00000  Uiso   1.00
O1119  O     0.40462   0.77926   0.69384   0.00000  Uiso   1.00
H1120  H     0.39043   0.76199   0.67576   0.00000  Uiso   1.00
O1121  O     0.59530   0.88727   0.80635   0.00000  Uiso   1.00
H1122  H     0.60942   0.90438   0.82462   0.00000  Uiso   1.00
C1123  C     0.83334   0.91338   0.75008   0.00000  Uiso   1.00
C1124  C     0.83332   0.75329   0.74995   0.00000  Uiso   1.00
C1125  C     0.78627   0.87304   0.54579   0.00000  Uiso   1.00
C1126  C     0.89196   0.82721   0.94631   0.00000  Uiso   1.00
C1127  C     0.75225   0.87930   0.52591   0.00000  Uiso   1.00
C1128  C     0.92624   0.82150   0.96596   0.00000  Uiso   1.00
C1129  C     0.87568   0.97877   0.74729   0.00000  Uiso   1.00
C1130  C     0.79094   0.68789   0.75282   0.00000  Uiso   1.00
C1131  C     0.87569   0.68800   0.74717   0.00000  Uiso   1.00
C1132  C     0.79093   0.97866   0.75293   0.00000  Uiso   1.00
C1133  C     0.83332   0.70913   0.74995   0.00000  Uiso   1.00
C1134  C     0.83332   0.95753   0.75013   0.00000  Uiso   1.00
C1135  C     0.98745   0.80657   0.72199   0.00000  Uiso   1.00
C1136  C     0.67921   0.86009   0.77803   0.00000  Uiso   1.00
C1137  C     0.70242   0.80635   0.72188   0.00000  Uiso   1.00
C1138  C     0.96422   0.86027   0.77818   0.00000  Uiso   1.00
C1139  C     0.80214   0.83373   0.83832   0.00000  Uiso   1.00
C1140  C     0.86453   0.83391   0.66165   0.00000  Uiso   1.00
C1141  C     0.78195   0.83842   0.88942   0.00000  Uiso   1.00
C1142  C     0.88518   0.83583   0.61025   0.00000  Uiso   1.00
C1143  C     0.72713   0.87138   0.96125   0.00000  Uiso   1.00
C1144  C     0.94731   0.82009   0.53342   0.00000  Uiso   1.00
C1145  C     0.73661   0.85840   0.91565   0.00000  Uiso   1.00
C1146  C     0.93429   0.82478   0.58141   0.00000  Uiso   1.00
C1147  C     0.81419   0.82905   0.91081   0.00000  Uiso   1.00
C1148  C     0.85249   0.84643   0.58963   0.00000  Uiso   1.00
C1149  C     0.80696   0.84479   0.95491   0.00000  Uiso   1.00
C1150  C     0.86575   0.84366   0.54138   0.00000  Uiso   1.00
C1151  C     0.76189   0.86506   0.98088   0.00000  Uiso   1.00
C1152  C     0.91331   0.82858   0.51344   0.00000  Uiso   1.00
C1153  C     0.84352   0.84103   0.97362   0.00000  Uiso   1.00
C1154  C     0.83164   0.85264   0.52084   0.00000  Uiso   1.00
H1155  H     0.71811   0.89531   0.54599   0.00000  Uiso   1.00
H1156  H     0.96267   0.81028   0.94411   0.00000  Uiso   1.00
H1157  H     0.81538   0.85443   0.61239   0.00000  Uiso   1.00
H1158  H     0.84588   0.81024   0.89137   0.00000  Uiso   1.00
H1159  H     0.69270   0.88711   0.98111   0.00000  Uiso   1.00
H1160  H     0.98411   0.80947   0.51176   0.00000  Uiso   1.00
H1161  H     0.77666   0.88605   0.58025   0.00000  Uiso   1.00
H1162  H     0.90512   0.82164   0.90918   0.00000  Uiso   1.00
H1163  H     0.90874   0.96268   0.74503   0.00000  Uiso   1.00
H1164  H     0.75788   0.70399   0.75507   0.00000  Uiso   1.00
H1165  H     0.90878   0.70418   0.74482   0.00000  Uiso   1.00
H1166  H     0.75785   0.96248   0.75528   0.00000  Uiso   1.00
H1167  H     0.97795   0.78536   0.69975   0.00000  Uiso   1.00
H1168  H     0.68871   0.88130   0.80026   0.00000  Uiso   1.00
N1169  N     0.71426   0.83334   0.75001   0.00000  Uiso   1.00
N1170  N     0.95241   0.83332   0.74999   0.00000  Uiso   1.00
O1171  O     0.79512   0.89442   0.75001   0.00000  Uiso   1.00
O1172  O     0.87154   0.77225   0.75000   0.00000  Uiso   1.00
O1173  O     0.87157   0.89441   0.75000   0.00000  Uiso   1.00
O1174  O     0.79510   0.77226   0.75000   0.00000  Uiso   1.00
O1175  O     0.77328   0.83334   0.81613   0.00000  Uiso   1.00
O1176  O     0.89339   0.83333   0.68388   0.00000  Uiso   1.00
O1177  O     0.84972   0.83333   0.81612   0.00000  Uiso   1.00
O1178  O     0.81695   0.83334   0.68388   0.00000  Uiso   1.00
Zn1179 Zn    0.78229   0.83334   0.75000   0.00000  Uiso   1.00
Zn1180 Zn    0.88438   0.83333   0.75000   0.00000  Uiso   1.00
O1181  O     0.96961   0.81632   0.59866   0.00000  Uiso   1.00
H1182  H     0.96876   0.83923   0.62029   0.00000  Uiso   1.00
O1183  O     0.70194   0.86755   0.89777   0.00000  Uiso   1.00
H1184  H     0.69935   0.84328   0.87928   0.00000  Uiso   1.00
O1185  O     0.73796   0.77926   0.69384   0.00000  Uiso   1.00
H1186  H     0.72376   0.76199   0.67576   0.00000  Uiso   1.00
O1187  O     0.92863   0.88727   0.80635   0.00000  Uiso   1.00
H1188  H     0.94275   0.90438   0.82462   0.00000  Uiso   1.00
loop_
_geom_bond_atom_site_label_1
_geom_bond_atom_site_label_2
_geom_bond_distance
_geom_bond_site_symmetry_2
_ccdc_geom_bond_type
C1     O51     1.284   .     A
C1     C12     1.421   .     S
C1     O49     1.283   .     A
C2     O52     1.284   .     A
C2     C11     1.421   .     S
C2     O50     1.283   .     A
C3     C5      1.387   .     A
C3     H39     1.078   .     S
C3     C32     1.417   .     A
C4     C31     1.417   .     A
C4     C6      1.386   .     A
C4     H40     1.078   .     S
C5     H33     1.084   .     S
C5     C623    1.390   1_554 S
C6     H34     1.083   .     S
C6     C624    1.390   .     S
C7     C12     1.397   .     A
C7     H41     1.084   .     S
C7     C207    1.370   .     S
C8     C11     1.397   .     A
C8     H42     1.084   .     S
C8     C406    1.370   1_545 S
C9     C11     1.398   .     A
C9     H43     1.084   .     S
C9     C403    1.370   1_545 S
C10    C12     1.398   .     A
C10    H44     1.084   .     S
C10    C206    1.370   .     S
C13    N48     1.363   .     A
C13    H45     1.082   .     S
C13    C81     1.425   .     S
C14    N47     1.363   .     A
C14    H46     1.082   .     S
C14    C148    1.425   1_455 S
C15    N47     1.370   .     A
C15    O63     1.378   .     S
C15    C145    1.425   1_455 S
C16    N48     1.370   .     A
C16    O65     1.378   .     S
C16    C80     1.425   .     S
C17    O55     1.299   .     A
C17    O53     1.291   .     A
C17    C19     1.468   .     S
C18    O56     1.300   .     A
C18    O54     1.291   .     A
C18    C20     1.471   .     S
C19    C23     1.418   .     A
C19    C25     1.393   .     A
C20    C24     1.418   .     A
C20    C26     1.396   .     A
C21    C29     1.401   .     A
C21    H37     1.084   .     S
C21    C23     1.395   .     A
C22    C24     1.394   .     A
C22    H38     1.084   .     S
C22    C30     1.401   .     A
C23    O61     1.377   .     S
C24    O59     1.376   .     S
C25    H36     1.078   .     S
C25    C27     1.396   .     A
C26    C28     1.396   .     A
C26    H35     1.076   .     S
C27    C29     1.415   .     A
C27    C31     1.419   .     A
C28    C30     1.415   .     A
C28    C32     1.420   .     A
C29    C599    1.390   .     S
C30    C600    1.390   1_554 S
C31    C626    1.417   .     S
C32    C625    1.417   1_554 S
N47    Zn57    2.009   .     S
N48    Zn58    2.009   .     S
O49    Zn57    2.001   .     S
O50    Zn58    2.001   .     S
O51    Zn58    2.002   .     S
O52    Zn57    2.002   .     S
O53    Zn57    1.966   .     S
O54    Zn58    1.966   .     S
O55    Zn58    1.902   .     S
O56    Zn57    1.902   .     S
O59    H60     0.990   .     S
O61    H62     0.989   .     S
O63    H64     0.992   .     S
O65    H66     0.992   .     S
C67    O117    1.284   .     A
C67    C78     1.421   .     S
C67    O115    1.283   .     A
C68    O118    1.284   .     A
C68    C77     1.421   .     S
C68    O116    1.283   .     A
C69    C71     1.387   .     A
C69    H105    1.078   .     S
C69    C98     1.417   .     A
C70    C97     1.417   .     A
C70    C72     1.386   .     A
C70    H106    1.078   .     S
C71    H99     1.084   .     S
C71    C689    1.390   1_554 S
C72    H100    1.083   .     S
C72    C690    1.390   .     S
C73    C78     1.397   .     A
C73    H107    1.084   .     S
C73    C273    1.370   .     S
C74    C77     1.397   .     A
C74    H108    1.084   .     S
C74    C472    1.370   1_545 S
C75    C77     1.398   .     A
C75    H109    1.084   .     S
C75    C469    1.370   1_545 S
C76    C78     1.398   .     A
C76    H110    1.084   .     S
C76    C272    1.370   .     S
C79    N114    1.363   .     A
C79    H111    1.082   .     S
C79    C147    1.425   .     S
C80    N113    1.363   .     A
C80    H112    1.082   .     S
C81    N113    1.370   .     A
C81    O129    1.378   .     S
C82    N114    1.370   .     A
C82    O131    1.378   .     S
C82    C146    1.425   .     S
C83    O121    1.299   .     A
C83    O119    1.291   .     A
C83    C85     1.468   .     S
C84    O122    1.300   .     A
C84    O120    1.291   .     A
C84    C86     1.471   .     S
C85    C89     1.418   .     A
C85    C91     1.393   .     A
C86    C90     1.418   .     A
C86    C92     1.396   .     A
C87    C95     1.401   .     A
C87    H103    1.084   .     S
C87    C89     1.395   .     A
C88    C90     1.394   .     A
C88    H104    1.084   .     S
C88    C96     1.401   .     A
C89    O127    1.377   .     S
C90    O125    1.376   .     S
C91    H102    1.078   .     S
C91    C93     1.396   .     A
C92    C94     1.396   .     A
C92    H101    1.076   .     S
C93    C95     1.415   .     A
C93    C97     1.419   .     A
C94    C96     1.415   .     A
C94    C98     1.420   .     A
C95    C665    1.390   .     S
C96    C666    1.390   1_554 S
C97    C692    1.417   .     S
C98    C691    1.417   1_554 S
N113   Zn123   2.009   .     S
N114   Zn124   2.009   .     S
O115   Zn123   2.001   .     S
O116   Zn124   2.001   .     S
O117   Zn124   2.002   .     S
O118   Zn123   2.002   .     S
O119   Zn123   1.966   .     S
O120   Zn124   1.966   .     S
O121   Zn124   1.902   .     S
O122   Zn123   1.902   .     S
O125   H126    0.990   .     S
O127   H128    0.989   .     S
O129   H130    0.992   .     S
O131   H132    0.992   .     S
C133   O183    1.284   .     A
C133   C144    1.421   .     S
C133   O181    1.283   .     A
C134   O184    1.284   .     A
C134   C143    1.421   .     S
C134   O182    1.283   .     A
C135   C137    1.387   .     A
C135   H171    1.078   .     S
C135   C164    1.417   .     A
C136   C163    1.417   .     A
C136   C138    1.386   .     A
C136   H172    1.078   .     S
C137   H165    1.084   .     S
C137   C755    1.390   1_554 S
C138   H166    1.083   .     S
C138   C756    1.390   .     S
C139   C144    1.397   .     A
C139   H173    1.084   .     S
C139   C339    1.370   .     S
C140   C143    1.397   .     A
C140   H174    1.084   .     S
C140   C538    1.370   1_545 S
C141   C143    1.398   .     A
C141   H175    1.084   .     S
C141   C535    1.370   1_545 S
C142   C144    1.398   .     A
C142   H176    1.084   .     S
C142   C338    1.370   .     S
C145   N180    1.363   .     A
C145   H177    1.082   .     S
C145   C15     1.425   1_655 S
C146   N179    1.363   .     A
C146   H178    1.082   .     S
C147   N179    1.370   .     A
C147   O195    1.378   .     S
C148   N180    1.370   .     A
C148   O197    1.378   .     S
C148   C14     1.425   1_655 S
C149   O187    1.299   .     A
C149   O185    1.291   .     A
C149   C151    1.468   .     S
C150   O188    1.300   .     A
C150   O186    1.291   .     A
C150   C152    1.471   .     S
C151   C155    1.418   .     A
C151   C157    1.393   .     A
C152   C156    1.418   .     A
C152   C158    1.396   .     A
C153   C161    1.401   .     A
C153   H169    1.084   .     S
C153   C155    1.395   .     A
C154   C156    1.394   .     A
C154   H170    1.084   .     S
C154   C162    1.401   .     A
C155   O193    1.377   .     S
C156   O191    1.376   .     S
C157   H168    1.078   .     S
C157   C159    1.396   .     A
C158   C160    1.396   .     A
C158   H167    1.076   .     S
C159   C161    1.415   .     A
C159   C163    1.419   .     A
C160   C162    1.415   .     A
C160   C164    1.420   .     A
C161   C731    1.390   .     S
C162   C732    1.390   1_554 S
C163   C758    1.417   .     S
C164   C757    1.417   1_554 S
N179   Zn189   2.009   .     S
N180   Zn190   2.009   .     S
O181   Zn189   2.001   .     S
O182   Zn190   2.001   .     S
O183   Zn190   2.002   .     S
O184   Zn189   2.002   .     S
O185   Zn189   1.966   .     S
O186   Zn190   1.966   .     S
O187   Zn190   1.902   .     S
O188   Zn189   1.902   .     S
O191   H192    0.990   .     S
O193   H194    0.989   .     S
O195   H196    0.992   .     S
O197   H198    0.992   .     S
C199   O249    1.284   .     A
C199   C210    1.421   .     S
C199   O247    1.283   .     A
C200   O250    1.284   .     A
C200   C209    1.421   .     S
C200   O248    1.283   .     A
C201   C203    1.387   .     A
C201   H237    1.078   .     S
C201   C230    1.417   .     A
C202   C229    1.417   .     A
C202   C204    1.386   .     A
C202   H238    1.078   .     S
C203   H231    1.084   .     S
C203   C821    1.390   1_554 S
C204   H232    1.083   .     S
C204   C822    1.390   .     S
C205   C210    1.397   .     A
C205   H239    1.084   .     S
C205   C405    1.370   .     S
C206   C209    1.397   .     A
C206   H240    1.084   .     S
C207   C209    1.398   .     A
C207   H241    1.084   .     S
C208   C210    1.398   .     A
C208   H242    1.084   .     S
C208   C404    1.370   .     S
C211   N246    1.363   .     A
C211   H243    1.082   .     S
C211   C279    1.425   .     S
C212   N245    1.363   .     A
C212   H244    1.082   .     S
C212   C346    1.425   1_455 S
C213   N245    1.370   .     A
C213   O261    1.378   .     S
C213   C343    1.425   1_455 S
C214   N246    1.370   .     A
C214   O263    1.378   .     S
C214   C278    1.425   .     S
C215   O253    1.299   .     A
C215   O251    1.291   .     A
C215   C217    1.468   .     S
C216   O254    1.300   .     A
C216   O252    1.291   .     A
C216   C218    1.471   .     S
C217   C221    1.418   .     A
C217   C223    1.393   .     A
C218   C222    1.418   .     A
C218   C224    1.396   .     A
C219   C227    1.401   .     A
C219   H235    1.084   .     S
C219   C221    1.395   .     A
C220   C222    1.394   .     A
C220   H236    1.084   .     S
C220   C228    1.401   .     A
C221   O259    1.377   .     S
C222   O257    1.376   .     S
C223   H234    1.078   .     S
C223   C225    1.396   .     A
C224   C226    1.396   .     A
C224   H233    1.076   .     S
C225   C227    1.415   .     A
C225   C229    1.419   .     A
C226   C228    1.415   .     A
C226   C230    1.420   .     A
C227   C797    1.390   .     S
C228   C798    1.390   1_554 S
C229   C824    1.417   .     S
C230   C823    1.417   1_554 S
N245   Zn255   2.009   .     S
N246   Zn256   2.009   .     S
O247   Zn255   2.001   .     S
O248   Zn256   2.001   .     S
O249   Zn256   2.002   .     S
O250   Zn255   2.002   .     S
O251   Zn255   1.966   .     S
O252   Zn256   1.966   .     S
O253   Zn256   1.902   .     S
O254   Zn255   1.902   .     S
O257   H258    0.990   .     S
O259   H260    0.989   .     S
O261   H262    0.992   .     S
O263   H264    0.992   .     S
C265   O315    1.284   .     A
C265   C276    1.421   .     S
C265   O313    1.283   .     A
C266   O316    1.284   .     A
C266   C275    1.421   .     S
C266   O314    1.283   .     A
C267   C269    1.387   .     A
C267   H303    1.078   .     S
C267   C296    1.417   .     A
C268   C295    1.417   .     A
C268   C270    1.386   .     A
C268   H304    1.078   .     S
C269   H297    1.084   .     S
C269   C887    1.390   1_554 S
C270   H298    1.083   .     S
C270   C888    1.390   .     S
C271   C276    1.397   .     A
C271   H305    1.084   .     S
C271   C471    1.370   .     S
C272   C275    1.397   .     A
C272   H306    1.084   .     S
C273   C275    1.398   .     A
C273   H307    1.084   .     S
C274   C276    1.398   .     A
C274   H308    1.084   .     S
C274   C470    1.370   .     S
C277   N312    1.363   .     A
C277   H309    1.082   .     S
C277   C345    1.425   .     S
C278   N311    1.363   .     A
C278   H310    1.082   .     S
C279   N311    1.370   .     A
C279   O327    1.378   .     S
C280   N312    1.370   .     A
C280   O329    1.378   .     S
C280   C344    1.425   .     S
C281   O319    1.299   .     A
C281   O317    1.291   .     A
C281   C283    1.468   .     S
C282   O320    1.300   .     A
C282   O318    1.291   .     A
C282   C284    1.471   .     S
C283   C287    1.418   .     A
C283   C289    1.393   .     A
C284   C288    1.418   .     A
C284   C290    1.396   .     A
C285   C293    1.401   .     A
C285   H301    1.084   .     S
C285   C287    1.395   .     A
C286   C288    1.394   .     A
C286   H302    1.084   .     S
C286   C294    1.401   .     A
C287   O325    1.377   .     S
C288   O323    1.376   .     S
C289   H300    1.078   .     S
C289   C291    1.396   .     A
C290   C292    1.396   .     A
C290   H299    1.076   .     S
C291   C293    1.415   .     A
C291   C295    1.419   .     A
C292   C294    1.415   .     A
C292   C296    1.420   .     A
C293   C863    1.390   .     S
C294   C864    1.390   1_554 S
C295   C890    1.417   .     S
C296   C889    1.417   1_554 S
N311   Zn321   2.009   .     S
N312   Zn322   2.009   .     S
O313   Zn321   2.001   .     S
O314   Zn322   2.001   .     S
O315   Zn322   2.002   .     S
O316   Zn321   2.002   .     S
O317   Zn321   1.966   .     S
O318   Zn322   1.966   .     S
O319   Zn322   1.902   .     S
O320   Zn321   1.902   .     S
O323   H324    0.990   .     S
O325   H326    0.989   .     S
O327   H328    0.992   .     S
O329   H330    0.992   .     S
C331   O381    1.284   .     A
C331   C342    1.421   .     S
C331   O379    1.283   .     A
C332   O382    1.284   .     A
C332   C341    1.421   .     S
C332   O380    1.283   .     A
C333   C335    1.387   .     A
C333   H369    1.078   .     S
C333   C362    1.417   .     A
C334   C361    1.417   .     A
C334   C336    1.386   .     A
C334   H370    1.078   .     S
C335   H363    1.084   .     S
C335   C953    1.390   1_554 S
C336   H364    1.083   .     S
C336   C954    1.390   .     S
C337   C342    1.397   .     A
C337   H371    1.084   .     S
C337   C537    1.370   .     S
C338   C341    1.397   .     A
C338   H372    1.084   .     S
C339   C341    1.398   .     A
C339   H373    1.084   .     S
C340   C342    1.398   .     A
C340   H374    1.084   .     S
C340   C536    1.370   .     S
C343   N378    1.363   .     A
C343   H375    1.082   .     S
C343   C213    1.425   1_655 S
C344   N377    1.363   .     A
C344   H376    1.082   .     S
C345   N377    1.370   .     A
C345   O393    1.378   .     S
C346   N378    1.370   .     A
C346   O395    1.378   .     S
C346   C212    1.425   1_655 S
C347   O385    1.299   .     A
C347   O383    1.291   .     A
C347   C349    1.468   .     S
C348   O386    1.300   .     A
C348   O384    1.291   .     A
C348   C350    1.471   .     S
C349   C353    1.418   .     A
C349   C355    1.393   .     A
C350   C354    1.418   .     A
C350   C356    1.396   .     A
C351   C359    1.401   .     A
C351   H367    1.084   .     S
C351   C353    1.395   .     A
C352   C354    1.394   .     A
C352   H368    1.084   .     S
C352   C360    1.401   .     A
C353   O391    1.377   .     S
C354   O389    1.376   .     S
C355   H366    1.078   .     S
C355   C357    1.396   .     A
C356   C358    1.396   .     A
C356   H365    1.076   .     S
C357   C359    1.415   .     A
C357   C361    1.419   .     A
C358   C360    1.415   .     A
C358   C362    1.420   .     A
C359   C929    1.390   .     S
C360   C930    1.390   1_554 S
C361   C956    1.417   .     S
C362   C955    1.417   1_554 S
N377   Zn387   2.009   .     S
N378   Zn388   2.009   .     S
O379   Zn387   2.001   .     S
O380   Zn388   2.001   .     S
O381   Zn388   2.002   .     S
O382   Zn387   2.002   .     S
O383   Zn387   1.966   .     S
O384   Zn388   1.966   .     S
O385   Zn388   1.902   .     S
O386   Zn387   1.902   .     S
O389   H390    0.990   .     S
O391   H392    0.989   .     S
O393   H394    0.992   .     S
O395   H396    0.992   .     S
C397   O447    1.284   .     A
C397   C408    1.421   .     S
C397   O445    1.283   .     A
C398   O448    1.284   .     A
C398   C407    1.421   .     S
C398   O446    1.283   .     A
C399   C401    1.387   .     A
C399   H435    1.078   .     S
C399   C428    1.417   .     A
C400   C427    1.417   .     A
C400   C402    1.386   .     A
C400   H436    1.078   .     S
C401   H429    1.084   .     S
C401   C1019   1.390   1_554 S
C402   H430    1.083   .     S
C402   C1020   1.390   .     S
C403   C408    1.397   .     A
C403   H437    1.084   .     S
C403   C9      1.370   1_565 S
C404   C407    1.397   .     A
C404   H438    1.084   .     S
C405   C407    1.398   .     A
C405   H439    1.084   .     S
C406   C408    1.398   .     A
C406   H440    1.084   .     S
C406   C8      1.370   1_565 S
C409   N444    1.363   .     A
C409   H441    1.082   .     S
C409   C477    1.425   .     S
C410   N443    1.363   .     A
C410   H442    1.082   .     S
C410   C544    1.425   1_455 S
C411   N443    1.370   .     A
C411   O459    1.378   .     S
C411   C541    1.425   1_455 S
C412   N444    1.370   .     A
C412   O461    1.378   .     S
C412   C476    1.425   .     S
C413   O451    1.299   .     A
C413   O449    1.291   .     A
C413   C415    1.468   .     S
C414   O452    1.300   .     A
C414   O450    1.291   .     A
C414   C416    1.471   .     S
C415   C419    1.418   .     A
C415   C421    1.393   .     A
C416   C420    1.418   .     A
C416   C422    1.396   .     A
C417   C425    1.401   .     A
C417   H433    1.084   .     S
C417   C419    1.395   .     A
C418   C420    1.394   .     A
C418   H434    1.084   .     S
C418   C426    1.401   .     A
C419   O457    1.377   .     S
C420   O455    1.376   .     S
C421   H432    1.078   .     S
C421   C423    1.396   .     A
C422   C424    1.396   .     A
C422   H431    1.076   .     S
C423   C425    1.415   .     A
C423   C427    1.419   .     A
C424   C426    1.415   .     A
C424   C428    1.420   .     A
C425   C995    1.390   .     S
C426   C996    1.390   1_554 S
C427   C1022   1.417   .     S
C428   C1021   1.417   1_554 S
N443   Zn453   2.009   .     S
N444   Zn454   2.009   .     S
O445   Zn453   2.001   .     S
O446   Zn454   2.001   .     S
O447   Zn454   2.002   .     S
O448   Zn453   2.002   .     S
O449   Zn453   1.966   .     S
O450   Zn454   1.966   .     S
O451   Zn454   1.902   .     S
O452   Zn453   1.902   .     S
O455   H456    0.990   .     S
O457   H458    0.989   .     S
O459   H460    0.992   .     S
O461   H462    0.992   .     S
C463   O513    1.284   .     A
C463   C474    1.421   .     S
C463   O511    1.283   .     A
C464   O514    1.284   .     A
C464   C473    1.421   .     S
C464   O512    1.283   .     A
C465   C467    1.387   .     A
C465   H501    1.078   .     S
C465   C494    1.417   .     A
C466   C493    1.417   .     A
C466   C468    1.386   .     A
C466   H502    1.078   .     S
C467   H495    1.084   .     S
C467   C1085   1.390   1_554 S
C468   H496    1.083   .     S
C468   C1086   1.390   .     S
C469   C474    1.397   .     A
C469   H503    1.084   .     S
C469   C75     1.370   1_565 S
C470   C473    1.397   .     A
C470   H504    1.084   .     S
C471   C473    1.398   .     A
C471   H505    1.084   .     S
C472   C474    1.398   .     A
C472   H506    1.084   .     S
C472   C74     1.370   1_565 S
C475   N510    1.363   .     A
C475   H507    1.082   .     S
C475   C543    1.425   .     S
C476   N509    1.363   .     A
C476   H508    1.082   .     S
C477   N509    1.370   .     A
C477   O525    1.378   .     S
C478   N510    1.370   .     A
C478   O527    1.378   .     S
C478   C542    1.425   .     S
C479   O517    1.299   .     A
C479   O515    1.291   .     A
C479   C481    1.468   .     S
C480   O518    1.300   .     A
C480   O516    1.291   .     A
C480   C482    1.471   .     S
C481   C485    1.418   .     A
C481   C487    1.393   .     A
C482   C486    1.418   .     A
C482   C488    1.396   .     A
C483   C491    1.401   .     A
C483   H499    1.084   .     S
C483   C485    1.395   .     A
C484   C486    1.394   .     A
C484   H500    1.084   .     S
C484   C492    1.401   .     A
C485   O523    1.377   .     S
C486   O521    1.376   .     S
C487   H498    1.078   .     S
C487   C489    1.396   .     A
C488   C490    1.396   .     A
C488   H497    1.076   .     S
C489   C491    1.415   .     A
C489   C493    1.419   .     A
C490   C492    1.415   .     A
C490   C494    1.420   .     A
C491   C1061   1.390   .     S
C492   C1062   1.390   1_554 S
C493   C1088   1.417   .     S
C494   C1087   1.417   1_554 S
N509   Zn519   2.009   .     S
N510   Zn520   2.009   .     S
O511   Zn519   2.001   .     S
O512   Zn520   2.001   .     S
O513   Zn520   2.002   .     S
O514   Zn519   2.002   .     S
O515   Zn519   1.966   .     S
O516   Zn520   1.966   .     S
O517   Zn520   1.902   .     S
O518   Zn519   1.902   .     S
O521   H522    0.990   .     S
O523   H524    0.989   .     S
O525   H526    0.992   .     S
O527   H528    0.992   .     S
C529   O579    1.284   .     A
C529   C540    1.421   .     S
C529   O577    1.283   .     A
C530   O580    1.284   .     A
C530   C539    1.421   .     S
C530   O578    1.283   .     A
C531   C533    1.387   .     A
C531   H567    1.078   .     S
C531   C560    1.417   .     A
C532   C559    1.417   .     A
C532   C534    1.386   .     A
C532   H568    1.078   .     S
C533   H561    1.084   .     S
C533   C1151   1.390   1_554 S
C534   H562    1.083   .     S
C534   C1152   1.390   .     S
C535   C540    1.397   .     A
C535   H569    1.084   .     S
C535   C141    1.370   1_565 S
C536   C539    1.397   .     A
C536   H570    1.084   .     S
C537   C539    1.398   .     A
C537   H571    1.084   .     S
C538   C540    1.398   .     A
C538   H572    1.084   .     S
C538   C140    1.370   1_565 S
C541   N576    1.363   .     A
C541   H573    1.082   .     S
C541   C411    1.425   1_655 S
C542   N575    1.363   .     A
C542   H574    1.082   .     S
C543   N575    1.370   .     A
C543   O591    1.378   .     S
C544   N576    1.370   .     A
C544   O593    1.378   .     S
C544   C410    1.425   1_655 S
C545   O583    1.299   .     A
C545   O581    1.291   .     A
C545   C547    1.468   .     S
C546   O584    1.300   .     A
C546   O582    1.291   .     A
C546   C548    1.471   .     S
C547   C551    1.418   .     A
C547   C553    1.393   .     A
C548   C552    1.418   .     A
C548   C554    1.396   .     A
C549   C557    1.401   .     A
C549   H565    1.084   .     S
C549   C551    1.395   .     A
C550   C552    1.394   .     A
C550   H566    1.084   .     S
C550   C558    1.401   .     A
C551   O589    1.377   .     S
C552   O587    1.376   .     S
C553   H564    1.078   .     S
C553   C555    1.396   .     A
C554   C556    1.396   .     A
C554   H563    1.076   .     S
C555   C557    1.415   .     A
C555   C559    1.419   .     A
C556   C558    1.415   .     A
C556   C560    1.420   .     A
C557   C1127   1.390   .     S
C558   C1128   1.390   1_554 S
C559   C1154   1.417   .     S
C560   C1153   1.417   1_554 S
N575   Zn585   2.009   .     S
N576   Zn586   2.009   .     S
O577   Zn585   2.001   .     S
O578   Zn586   2.001   .     S
O579   Zn586   2.002   .     S
O580   Zn585   2.002   .     S
O581   Zn585   1.966   .     S
O582   Zn586   1.966   .     S
O583   Zn586   1.902   .     S
O584   Zn585   1.902   .     S
O587   H588    0.990   .     S
O589   H590    0.989   .     S
O591   H592    0.992   .     S
O593   H594    0.992   .     S
C595   O645    1.284   .     A
C595   C606    1.421   .     S
C595   O643    1.283   .     A
C596   O646    1.284   .     A
C596   C605    1.421   .     S
C596   O644    1.283   .     A
C597   C599    1.387   .     A
C597   H633    1.078   .     S
C597   C626    1.417   .     A
C598   C625    1.417   .     A
C598   C600    1.386   .     A
C598   H634    1.078   .     S
C599   H627    1.084   .     S
C600   H628    1.083   .     S
C600   C30     1.390   1_556 S
C601   C606    1.397   .     A
C601   H635    1.084   .     S
C601   C801    1.370   .     S
C602   C605    1.397   .     A
C602   H636    1.084   .     S
C602   C1000   1.370   1_545 S
C603   C605    1.398   .     A
C603   H637    1.084   .     S
C603   C997    1.370   1_545 S
C604   C606    1.398   .     A
C604   H638    1.084   .     S
C604   C800    1.370   .     S
C607   N642    1.363   .     A
C607   H639    1.082   .     S
C607   C675    1.425   .     S
C608   N641    1.363   .     A
C608   H640    1.082   .     S
C608   C742    1.425   1_455 S
C609   N641    1.370   .     A
C609   O657    1.378   .     S
C609   C739    1.425   1_455 S
C610   N642    1.370   .     A
C610   O659    1.378   .     S
C610   C674    1.425   .     S
C611   O649    1.299   .     A
C611   O647    1.291   .     A
C611   C613    1.468   .     S
C612   O650    1.300   .     A
C612   O648    1.291   .     A
C612   C614    1.471   .     S
C613   C617    1.418   .     A
C613   C619    1.393   .     A
C614   C618    1.418   .     A
C614   C620    1.396   .     A
C615   C623    1.401   .     A
C615   H631    1.084   .     S
C615   C617    1.395   .     A
C616   C618    1.394   .     A
C616   H632    1.084   .     S
C616   C624    1.401   .     A
C617   O655    1.377   .     S
C618   O653    1.376   .     S
C619   H630    1.078   .     S
C619   C621    1.396   .     A
C620   C622    1.396   .     A
C620   H629    1.076   .     S
C621   C623    1.415   .     A
C621   C625    1.419   .     A
C622   C624    1.415   .     A
C622   C626    1.420   .     A
C623   C5      1.390   1_556 S
C625   C32     1.417   1_556 S
N641   Zn651   2.009   .     S
N642   Zn652   2.009   .     S
O643   Zn651   2.001   .     S
O644   Zn652   2.001   .     S
O645   Zn652   2.002   .     S
O646   Zn651   2.002   .     S
O647   Zn651   1.966   .     S
O648   Zn652   1.966   .     S
O649   Zn652   1.902   .     S
O650   Zn651   1.902   .     S
O653   H654    0.990   .     S
O655   H656    0.989   .     S
O657   H658    0.992   .     S
O659   H660    0.992   .     S
C661   O711    1.284   .     A
C661   C672    1.421   .     S
C661   O709    1.283   .     A
C662   O712    1.284   .     A
C662   C671    1.421   .     S
C662   O710    1.283   .     A
C663   C665    1.387   .     A
C663   H699    1.078   .     S
C663   C692    1.417   .     A
C664   C691    1.417   .     A
C664   C666    1.386   .     A
C664   H700    1.078   .     S
C665   H693    1.084   .     S
C666   H694    1.083   .     S
C666   C96     1.390   1_556 S
C667   C672    1.397   .     A
C667   H701    1.084   .     S
C667   C867    1.370   .     S
C668   C671    1.397   .     A
C668   H702    1.084   .     S
C668   C1066   1.370   1_545 S
C669   C671    1.398   .     A
C669   H703    1.084   .     S
C669   C1063   1.370   1_545 S
C670   C672    1.398   .     A
C670   H704    1.084   .     S
C670   C866    1.370   .     S
C673   N708    1.363   .     A
C673   H705    1.082   .     S
C673   C741    1.425   .     S
C674   N707    1.363   .     A
C674   H706    1.082   .     S
C675   N707    1.370   .     A
C675   O723    1.378   .     S
C676   N708    1.370   .     A
C676   O725    1.378   .     S
C676   C740    1.425   .     S
C677   O715    1.299   .     A
C677   O713    1.291   .     A
C677   C679    1.468   .     S
C678   O716    1.300   .     A
C678   O714    1.291   .     A
C678   C680    1.471   .     S
C679   C683    1.418   .     A
C679   C685    1.393   .     A
C680   C684    1.418   .     A
C680   C686    1.396   .     A
C681   C689    1.401   .     A
C681   H697    1.084   .     S
C681   C683    1.395   .     A
C682   C684    1.394   .     A
C682   H698    1.084   .     S
C682   C690    1.401   .     A
C683   O721    1.377   .     S
C684   O719    1.376   .     S
C685   H696    1.078   .     S
C685   C687    1.396   .     A
C686   C688    1.396   .     A
C686   H695    1.076   .     S
C687   C689    1.415   .     A
C687   C691    1.419   .     A
C688   C690    1.415   .     A
C688   C692    1.420   .     A
C689   C71     1.390   1_556 S
C691   C98     1.417   1_556 S
N707   Zn717   2.009   .     S
N708   Zn718   2.009   .     S
O709   Zn717   2.001   .     S
O710   Zn718   2.001   .     S
O711   Zn718   2.002   .     S
O712   Zn717   2.002   .     S
O713   Zn717   1.966   .     S
O714   Zn718   1.966   .     S
O715   Zn718   1.902   .     S
O716   Zn717   1.902   .     S
O719   H720    0.990   .     S
O721   H722    0.989   .     S
O723   H724    0.992   .     S
O725   H726    0.992   .     S
C727   O777    1.284   .     A
C727   C738    1.421   .     S
C727   O775    1.283   .     A
C728   O778    1.284   .     A
C728   C737    1.421   .     S
C728   O776    1.283   .     A
C729   C731    1.387   .     A
C729   H765    1.078   .     S
C729   C758    1.417   .     A
C730   C757    1.417   .     A
C730   C732    1.386   .     A
C730   H766    1.078   .     S
C731   H759    1.084   .     S
C732   H760    1.083   .     S
C732   C162    1.390   1_556 S
C733   C738    1.397   .     A
C733   H767    1.084   .     S
C733   C933    1.370   .     S
C734   C737    1.397   .     A
C734   H768    1.084   .     S
C734   C1132   1.370   1_545 S
C735   C737    1.398   .     A
C735   H769    1.084   .     S
C735   C1129   1.370   1_545 S
C736   C738    1.398   .     A
C736   H770    1.084   .     S
C736   C932    1.370   .     S
C739   N774    1.363   .     A
C739   H771    1.082   .     S
C739   C609    1.425   1_655 S
C740   N773    1.363   .     A
C740   H772    1.082   .     S
C741   N773    1.370   .     A
C741   O789    1.378   .     S
C742   N774    1.370   .     A
C742   O791    1.378   .     S
C742   C608    1.425   1_655 S
C743   O781    1.299   .     A
C743   O779    1.291   .     A
C743   C745    1.468   .     S
C744   O782    1.300   .     A
C744   O780    1.291   .     A
C744   C746    1.471   .     S
C745   C749    1.418   .     A
C745   C751    1.393   .     A
C746   C750    1.418   .     A
C746   C752    1.396   .     A
C747   C755    1.401   .     A
C747   H763    1.084   .     S
C747   C749    1.395   .     A
C748   C750    1.394   .     A
C748   H764    1.084   .     S
C748   C756    1.401   .     A
C749   O787    1.377   .     S
C750   O785    1.376   .     S
C751   H762    1.078   .     S
C751   C753    1.396   .     A
C752   C754    1.396   .     A
C752   H761    1.076   .     S
C753   C755    1.415   .     A
C753   C757    1.419   .     A
C754   C756    1.415   .     A
C754   C758    1.420   .     A
C755   C137    1.390   1_556 S
C757   C164    1.417   1_556 S
N773   Zn783   2.009   .     S
N774   Zn784   2.009   .     S
O775   Zn783   2.001   .     S
O776   Zn784   2.001   .     S
O777   Zn784   2.002   .     S
O778   Zn783   2.002   .     S
O779   Zn783   1.966   .     S
O780   Zn784   1.966   .     S
O781   Zn784   1.902   .     S
O782   Zn783   1.902   .     S
O785   H786    0.990   .     S
O787   H788    0.989   .     S
O789   H790    0.992   .     S
O791   H792    0.992   .     S
C793   O843    1.284   .     A
C793   C804    1.421   .     S
C793   O841    1.283   .     A
C794   O844    1.284   .     A
C794   C803    1.421   .     S
C794   O842    1.283   .     A
C795   C797    1.387   .     A
C795   H831    1.078   .     S
C795   C824    1.417   .     A
C796   C823    1.417   .     A
C796   C798    1.386   .     A
C796   H832    1.078   .     S
C797   H825    1.084   .     S
C798   H826    1.083   .     S
C798   C228    1.390   1_556 S
C799   C804    1.397   .     A
C799   H833    1.084   .     S
C799   C999    1.370   .     S
C800   C803    1.397   .     A
C800   H834    1.084   .     S
C801   C803    1.398   .     A
C801   H835    1.084   .     S
C802   C804    1.398   .     A
C802   H836    1.084   .     S
C802   C998    1.370   .     S
C805   N840    1.363   .     A
C805   H837    1.082   .     S
C805   C873    1.425   .     S
C806   N839    1.363   .     A
C806   H838    1.082   .     S
C806   C940    1.425   1_455 S
C807   N839    1.370   .     A
C807   O855    1.378   .     S
C807   C937    1.425   1_455 S
C808   N840    1.370   .     A
C808   O857    1.378   .     S
C808   C872    1.425   .     S
C809   O847    1.299   .     A
C809   O845    1.291   .     A
C809   C811    1.468   .     S
C810   O848    1.300   .     A
C810   O846    1.291   .     A
C810   C812    1.471   .     S
C811   C815    1.418   .     A
C811   C817    1.393   .     A
C812   C816    1.418   .     A
C812   C818    1.396   .     A
C813   C821    1.401   .     A
C813   H829    1.084   .     S
C813   C815    1.395   .     A
C814   C816    1.394   .     A
C814   H830    1.084   .     S
C814   C822    1.401   .     A
C815   O853    1.377   .     S
C816   O851    1.376   .     S
C817   H828    1.078   .     S
C817   C819    1.396   .     A
C818   C820    1.396   .     A
C818   H827    1.076   .     S
C819   C821    1.415   .     A
C819   C823    1.419   .     A
C820   C822    1.415   .     A
C820   C824    1.420   .     A
C821   C203    1.390   1_556 S
C823   C230    1.417   1_556 S
N839   Zn849   2.009   .     S
N840   Zn850   2.009   .     S
O841   Zn849   2.001   .     S
O842   Zn850   2.001   .     S
O843   Zn850   2.002   .     S
O844   Zn849   2.002   .     S
O845   Zn849   1.966   .     S
O846   Zn850   1.966   .     S
O847   Zn850   1.902   .     S
O848   Zn849   1.902   .     S
O851   H852    0.990   .     S
O853   H854    0.989   .     S
O855   H856    0.992   .     S
O857   H858    0.992   .     S
C859   O909    1.284   .     A
C859   C870    1.421   .     S
C859   O907    1.283   .     A
C860   O910    1.284   .     A
C860   C869    1.421   .     S
C860   O908    1.283   .     A
C861   C863    1.387   .     A
C861   H897    1.078   .     S
C861   C890    1.417   .     A
C862   C889    1.417   .     A
C862   C864    1.386   .     A
C862   H898    1.078   .     S
C863   H891    1.084   .     S
C864   H892    1.083   .     S
C864   C294    1.390   1_556 S
C865   C870    1.397   .     A
C865   H899    1.084   .     S
C865   C1065   1.370   .     S
C866   C869    1.397   .     A
C866   H900    1.084   .     S
C867   C869    1.398   .     A
C867   H901    1.084   .     S
C868   C870    1.398   .     A
C868   H902    1.084   .     S
C868   C1064   1.370   .     S
C871   N906    1.363   .     A
C871   H903    1.082   .     S
C871   C939    1.425   .     S
C872   N905    1.363   .     A
C872   H904    1.082   .     S
C873   N905    1.370   .     A
C873   O921    1.378   .     S
C874   N906    1.370   .     A
C874   O923    1.378   .     S
C874   C938    1.425   .     S
C875   O913    1.299   .     A
C875   O911    1.291   .     A
C875   C877    1.468   .     S
C876   O914    1.300   .     A
C876   O912    1.291   .     A
C876   C878    1.471   .     S
C877   C881    1.418   .     A
C877   C883    1.393   .     A
C878   C882    1.418   .     A
C878   C884    1.396   .     A
C879   C887    1.401   .     A
C879   H895    1.084   .     S
C879   C881    1.395   .     A
C880   C882    1.394   .     A
C880   H896    1.084   .     S
C880   C888    1.401   .     A
C881   O919    1.377   .     S
C882   O917    1.376   .     S
C883   H894    1.078   .     S
C883   C885    1.396   .     A
C884   C886    1.396   .     A
C884   H893    1.076   .     S
C885   C887    1.415   .     A
C885   C889    1.419   .     A
C886   C888    1.415   .     A
C886   C890    1.420   .     A
C887   C269    1.390   1_556 S
C889   C296    1.417   1_556 S
N905   Zn915   2.009   .     S
N906   Zn916   2.009   .     S
O907   Zn915   2.001   .     S
O908   Zn916   2.001   .     S
O909   Zn916   2.002   .     S
O910   Zn915   2.002   .     S
O911   Zn915   1.966   .     S
O912   Zn916   1.966   .     S
O913   Zn916   1.902   .     S
O914   Zn915   1.902   .     S
O917   H918    0.990   .     S
O919   H920    0.989   .     S
O921   H922    0.992   .     S
O923   H924    0.992   .     S
C925   O975    1.284   .     A
C925   C936    1.421   .     S
C925   O973    1.283   .     A
C926   O976    1.284   .     A
C926   C935    1.421   .     S
C926   O974    1.283   .     A
C927   C929    1.387   .     A
C927   H963    1.078   .     S
C927   C956    1.417   .     A
C928   C955    1.417   .     A
C928   C930    1.386   .     A
C928   H964    1.078   .     S
C929   H957    1.084   .     S
C930   H958    1.083   .     S
C930   C360    1.390   1_556 S
C931   C936    1.397   .     A
C931   H965    1.084   .     S
C931   C1131   1.370   .     S
C932   C935    1.397   .     A
C932   H966    1.084   .     S
C933   C935    1.398   .     A
C933   H967    1.084   .     S
C934   C936    1.398   .     A
C934   H968    1.084   .     S
C934   C1130   1.370   .     S
C937   N972    1.363   .     A
C937   H969    1.082   .     S
C937   C807    1.425   1_655 S
C938   N971    1.363   .     A
C938   H970    1.082   .     S
C939   N971    1.370   .     A
C939   O987    1.378   .     S
C940   N972    1.370   .     A
C940   O989    1.378   .     S
C940   C806    1.425   1_655 S
C941   O979    1.299   .     A
C941   O977    1.291   .     A
C941   C943    1.468   .     S
C942   O980    1.300   .     A
C942   O978    1.291   .     A
C942   C944    1.471   .     S
C943   C947    1.418   .     A
C943   C949    1.393   .     A
C944   C948    1.418   .     A
C944   C950    1.396   .     A
C945   C953    1.401   .     A
C945   H961    1.084   .     S
C945   C947    1.395   .     A
C946   C948    1.394   .     A
C946   H962    1.084   .     S
C946   C954    1.401   .     A
C947   O985    1.377   .     S
C948   O983    1.376   .     S
C949   H960    1.078   .     S
C949   C951    1.396   .     A
C950   C952    1.396   .     A
C950   H959    1.076   .     S
C951   C953    1.415   .     A
C951   C955    1.419   .     A
C952   C954    1.415   .     A
C952   C956    1.420   .     A
C953   C335    1.390   1_556 S
C955   C362    1.417   1_556 S
N971   Zn981   2.009   .     S
N972   Zn982   2.009   .     S
O973   Zn981   2.001   .     S
O974   Zn982   2.001   .     S
O975   Zn982   2.002   .     S
O976   Zn981   2.002   .     S
O977   Zn981   1.966   .     S
O978   Zn982   1.966   .     S
O979   Zn982   1.902   .     S
O980   Zn981   1.902   .     S
O983   H984    0.990   .     S
O985   H986    0.989   .     S
O987   H988    0.992   .     S
O989   H990    0.992   .     S
C991   O1041   1.284   .     A
C991   C1002   1.421   .     S
C991   O1039   1.283   .     A
C992   O1042   1.284   .     A
C992   C1001   1.421   .     S
C992   O1040   1.283   .     A
C993   C995    1.387   .     A
C993   H1029   1.078   .     S
C993   C1022   1.417   .     A
C994   C1021   1.417   .     A
C994   C996    1.386   .     A
C994   H1030   1.078   .     S
C995   H1023   1.084   .     S
C996   H1024   1.083   .     S
C996   C426    1.390   1_556 S
C997   C1002   1.397   .     A
C997   H1031   1.084   .     S
C997   C603    1.370   1_565 S
C998   C1001   1.397   .     A
C998   H1032   1.084   .     S
C999   C1001   1.398   .     A
C999   H1033   1.084   .     S
C1000  C1002   1.398   .     A
C1000  H1034   1.084   .     S
C1000  C602    1.370   1_565 S
C1003  N1038   1.363   .     A
C1003  H1035   1.082   .     S
C1003  C1071   1.425   .     S
C1004  N1037   1.363   .     A
C1004  H1036   1.082   .     S
C1004  C1138   1.425   1_455 S
C1005  N1037   1.370   .     A
C1005  O1053   1.378   .     S
C1005  C1135   1.425   1_455 S
C1006  N1038   1.370   .     A
C1006  O1055   1.378   .     S
C1006  C1070   1.425   .     S
C1007  O1045   1.299   .     A
C1007  O1043   1.291   .     A
C1007  C1009   1.468   .     S
C1008  O1046   1.300   .     A
C1008  O1044   1.291   .     A
C1008  C1010   1.471   .     S
C1009  C1013   1.418   .     A
C1009  C1015   1.393   .     A
C1010  C1014   1.418   .     A
C1010  C1016   1.396   .     A
C1011  C1019   1.401   .     A
C1011  H1027   1.084   .     S
C1011  C1013   1.395   .     A
C1012  C1014   1.394   .     A
C1012  H1028   1.084   .     S
C1012  C1020   1.401   .     A
C1013  O1051   1.377   .     S
C1014  O1049   1.376   .     S
C1015  H1026   1.078   .     S
C1015  C1017   1.396   .     A
C1016  C1018   1.396   .     A
C1016  H1025   1.076   .     S
C1017  C1019   1.415   .     A
C1017  C1021   1.419   .     A
C1018  C1020   1.415   .     A
C1018  C1022   1.420   .     A
C1019  C401    1.390   1_556 S
C1021  C428    1.417   1_556 S
N1037  Zn1047  2.009   .     S
N1038  Zn1048  2.009   .     S
O1039  Zn1047  2.001   .     S
O1040  Zn1048  2.001   .     S
O1041  Zn1048  2.002   .     S
O1042  Zn1047  2.002   .     S
O1043  Zn1047  1.966   .     S
O1044  Zn1048  1.966   .     S
O1045  Zn1048  1.902   .     S
O1046  Zn1047  1.902   .     S
O1049  H1050   0.990   .     S
O1051  H1052   0.989   .     S
O1053  H1054   0.992   .     S
O1055  H1056   0.992   .     S
C1057  O1107   1.284   .     A
C1057  C1068   1.421   .     S
C1057  O1105   1.283   .     A
C1058  O1108   1.284   .     A
C1058  C1067   1.421   .     S
C1058  O1106   1.283   .     A
C1059  C1061   1.387   .     A
C1059  H1095   1.078   .     S
C1059  C1088   1.417   .     A
C1060  C1087   1.417   .     A
C1060  C1062   1.386   .     A
C1060  H1096   1.078   .     S
C1061  H1089   1.084   .     S
C1062  H1090   1.083   .     S
C1062  C492    1.390   1_556 S
C1063  C1068   1.397   .     A
C1063  H1097   1.084   .     S
C1063  C669    1.370   1_565 S
C1064  C1067   1.397   .     A
C1064  H1098   1.084   .     S
C1065  C1067   1.398   .     A
C1065  H1099   1.084   .     S
C1066  C1068   1.398   .     A
C1066  H1100   1.084   .     S
C1066  C668    1.370   1_565 S
C1069  N1104   1.363   .     A
C1069  H1101   1.082   .     S
C1069  C1137   1.425   .     S
C1070  N1103   1.363   .     A
C1070  H1102   1.082   .     S
C1071  N1103   1.370   .     A
C1071  O1119   1.378   .     S
C1072  N1104   1.370   .     A
C1072  O1121   1.378   .     S
C1072  C1136   1.425   .     S
C1073  O1111   1.299   .     A
C1073  O1109   1.291   .     A
C1073  C1075   1.468   .     S
C1074  O1112   1.300   .     A
C1074  O1110   1.291   .     A
C1074  C1076   1.471   .     S
C1075  C1079   1.418   .     A
C1075  C1081   1.393   .     A
C1076  C1080   1.418   .     A
C1076  C1082   1.396   .     A
C1077  C1085   1.401   .     A
C1077  H1093   1.084   .     S
C1077  C1079   1.395   .     A
C1078  C1080   1.394   .     A
C1078  H1094   1.084   .     S
C1078  C1086   1.401   .     A
C1079  O1117   1.377   .     S
C1080  O1115   1.376   .     S
C1081  H1092   1.078   .     S
C1081  C1083   1.396   .     A
C1082  C1084   1.396   .     A
C1082  H1091   1.076   .     S
C1083  C1085   1.415   .     A
C1083  C1087   1.419   .     A
C1084  C1086   1.415   .     A
C1084  C1088   1.420   .     A
C1085  C467    1.390   1_556 S
C1087  C494    1.417   1_556 S
N1103  Zn1113  2.009   .     S
N1104  Zn1114  2.009   .     S
O1105  Zn1113  2.001   .     S
O1106  Zn1114  2.001   .     S
O1107  Zn1114  2.002   .     S
O1108  Zn1113  2.002   .     S
O1109  Zn1113  1.966   .     S
O1110  Zn1114  1.966   .     S
O1111  Zn1114  1.902   .     S
O1112  Zn1113  1.902   .     S
O1115  H1116   0.990   .     S
O1117  H1118   0.989   .     S
O1119  H1120   0.992   .     S
O1121  H1122   0.992   .     S
C1123  O1173   1.284   .     A
C1123  C1134   1.421   .     S
C1123  O1171   1.283   .     A
C1124  O1174   1.284   .     A
C1124  C1133   1.421   .     S
C1124  O1172   1.283   .     A
C1125  C1127   1.387   .     A
C1125  H1161   1.078   .     S
C1125  C1154   1.417   .     A
C1126  C1153   1.417   .     A
C1126  C1128   1.386   .     A
C1126  H1162   1.078   .     S
C1127  H1155   1.084   .     S
C1128  H1156   1.083   .     S
C1128  C558    1.390   1_556 S
C1129  C1134   1.397   .     A
C1129  H1163   1.084   .     S
C1129  C735    1.370   1_565 S
C1130  C1133   1.397   .     A
C1130  H1164   1.084   .     S
C1131  C1133   1.398   .     A
C1131  H1165   1.084   .     S
C1132  C1134   1.398   .     A
C1132  H1166   1.084   .     S
C1132  C734    1.370   1_565 S
C1135  N1170   1.363   .     A
C1135  H1167   1.082   .     S
C1135  C1005   1.425   1_655 S
C1136  N1169   1.363   .     A
C1136  H1168   1.082   .     S
C1137  N1169   1.370   .     A
C1137  O1185   1.378   .     S
C1138  N1170   1.370   .     A
C1138  O1187   1.378   .     S
C1138  C1004   1.425   1_655 S
C1139  O1177   1.299   .     A
C1139  O1175   1.291   .     A
C1139  C1141   1.468   .     S
C1140  O1178   1.300   .     A
C1140  O1176   1.291   .     A
C1140  C1142   1.471   .     S
C1141  C1145   1.418   .     A
C1141  C1147   1.393   .     A
C1142  C1146   1.418   .     A
C1142  C1148   1.396   .     A
C1143  C1151   1.401   .     A
C1143  H1159   1.084   .     S
C1143  C1145   1.395   .     A
C1144  C1146   1.394   .     A
C1144  H1160   1.084   .     S
C1144  C1152   1.401   .     A
C1145  O1183   1.377   .     S
C1146  O1181   1.376   .     S
C1147  H1158   1.078   .     S
C1147  C1149   1.396   .     A
C1148  C1150   1.396   .     A
C1148  H1157   1.076   .     S
C1149  C1151   1.415   .     A
C1149  C1153   1.419   .     A
C1150  C1152   1.415   .     A
C1150  C1154   1.420   .     A
C1151  C533    1.390   1_556 S
C1153  C560    1.417   1_556 S
N1169  Zn1179  2.009   .     S
N1170  Zn1180  2.009   .     S
O1171  Zn1179  2.001   .     S
O1172  Zn1180  2.001   .     S
O1173  Zn1180  2.002   .     S
O1174  Zn1179  2.002   .     S
O1175  Zn1179  1.966   .     S
O1176  Zn1180  1.966   .     S
O1177  Zn1180  1.902   .     S
O1178  Zn1179  1.902   .     S
O1181  H1182   0.990   .     S
O1183  H1184   0.989   .     S
O1185  H1186   0.992   .     S
O1187  H1188   0.992   .     S
