data_str_m3_o10_o17_pcu_sym.199
_audit_creation_date              2020-01-03
_audit_creation_method            'Materials Studio'
_symmetry_space_group_name_H-M    'P1'
_symmetry_Int_Tables_number       1
_symmetry_cell_setting            triclinic
loop_
_symmetry_equiv_pos_as_xyz
  x,y,z
_cell_length_a                    23.4781
_cell_length_b                    26.0198
_cell_length_c                    29.9481
_cell_angle_alpha                 90.6157
_cell_angle_beta                  86.4853
_cell_angle_gamma                 93.2659
loop_
_atom_site_label
_atom_site_type_symbol
_atom_site_fract_x
_atom_site_fract_y
_atom_site_fract_z
_atom_site_U_iso_or_equiv
_atom_site_adp_type
_atom_site_occupancy
O1     O     0.12975   0.24619   0.25298   0.00000  Uiso   1.00
O2     O     0.20358   0.08714   0.24701   0.00000  Uiso   1.00
O3     O     0.22613   0.23721   0.24518   0.00000  Uiso   1.00
O4     O     0.10720   0.09613   0.25481   0.00000  Uiso   1.00
C5     C     0.18166   0.26460   0.24831   0.00000  Uiso   1.00
C6     C     0.15167   0.06873   0.25169   0.00000  Uiso   1.00
O7     O     0.11847   0.17117   0.31997   0.00000  Uiso   1.00
O8     O     0.21486   0.16216   0.18002   0.00000  Uiso   1.00
O9     O     0.21485   0.16219   0.31217   0.00000  Uiso   1.00
O10    O     0.11848   0.17115   0.18782   0.00000  Uiso   1.00
C11    C     0.16769   0.16674   0.33606   0.00000  Uiso   1.00
C12    C     0.16564   0.16659   0.16394   0.00000  Uiso   1.00
Zn13   Zn    0.10231   0.17266   0.25521   0.00000  Uiso   1.00
Zn14   Zn    0.23102   0.16067   0.24479   0.00000  Uiso   1.00
C15    C     0.14653   0.12245   0.09426   0.00000  Uiso   1.00
C16    C     0.18680   0.21088   0.40574   0.00000  Uiso   1.00
C17    C     0.16358   0.16755   0.11633   0.00000  Uiso   1.00
C18    C     0.16976   0.16578   0.38367   0.00000  Uiso   1.00
C19    C     0.18027   0.21320   0.09367   0.00000  Uiso   1.00
C20    C     0.15306   0.12013   0.40633   0.00000  Uiso   1.00
C21    C     0.18365   0.21350   0.04650   0.00000  Uiso   1.00
C22    C     0.14968   0.11983   0.45350   0.00000  Uiso   1.00
C23    C     0.16606   0.16732   0.02356   0.00000  Uiso   1.00
C24    C     0.16727   0.16601   0.47644   0.00000  Uiso   1.00
C25    C     0.14709   0.12229   0.04767   0.00000  Uiso   1.00
C26    C     0.18624   0.21104   0.45233   0.00000  Uiso   1.00
C27    C     0.20395   0.25749   0.02110   0.00000  Uiso   1.00
C28    C     0.12937   0.07585   0.47890   0.00000  Uiso   1.00
C29    C     0.20443   0.25564   0.47502   0.00000  Uiso   1.00
C30    C     0.12889   0.07770   0.02498   0.00000  Uiso   1.00
H31    H     0.21983   0.28997   0.45678   0.00000  Uiso   1.00
H32    H     0.11349   0.04337   0.04322   0.00000  Uiso   1.00
C33    C     0.18998   0.31885   0.24926   0.00000  Uiso   1.00
C34    C     0.14335   0.01448   0.25074   0.00000  Uiso   1.00
N35    N     0.31678   0.15265   0.23783   0.00000  Uiso   1.00
N36    N     0.01656   0.18068   0.26217   0.00000  Uiso   1.00
C37    C     0.12778   0.07677   0.12007   0.00000  Uiso   1.00
N38    N     0.11238   0.04069   0.14066   0.00000  Uiso   1.00
C39    C     0.20555   0.25656   0.37993   0.00000  Uiso   1.00
N40    N     0.22096   0.29264   0.35934   0.00000  Uiso   1.00
C41    C     0.19099   0.25917   0.12029   0.00000  Uiso   1.00
N42    N     0.19919   0.29559   0.14187   0.00000  Uiso   1.00
C43    C     0.14235   0.07416   0.37972   0.00000  Uiso   1.00
N44    N     0.13416   0.03774   0.35813   0.00000  Uiso   1.00
C45    C     0.22702   0.30538   0.03959   0.00000  Uiso   1.00
N46    N     0.24572   0.01058   0.05373   0.00000  Uiso   1.00
C47    C     0.10630   0.02796   0.46041   0.00000  Uiso   1.00
N48    N     0.08760   0.32276   0.44627   0.00000  Uiso   1.00
O49    O     0.24486   0.00579   0.25648   0.00000  Uiso   1.00
C50    C     0.27747   0.00890   0.21521   0.00000  Uiso   1.00
H51    H     0.25578   0.02999   0.18960   0.00000  Uiso   1.00
H52    H     0.28831   0.30352   0.20250   0.00000  Uiso   1.00
H53    H     0.31820   0.03113   0.22046   0.00000  Uiso   1.00
O54    O     0.08847   0.32754   0.24353   0.00000  Uiso   1.00
C55    C     0.05586   0.32444   0.28480   0.00000  Uiso   1.00
H56    H     0.04504   0.02981   0.29752   0.00000  Uiso   1.00
H57    H     0.07756   0.30333   0.31041   0.00000  Uiso   1.00
H58    H     0.01513   0.30222   0.27955   0.00000  Uiso   1.00
C59    C     0.00449   0.14030   0.19516   0.00000  Uiso   1.00
N60    N     0.02015   0.12953   0.15907   0.00000  Uiso   1.00
C61    C     0.32885   0.19303   0.30484   0.00000  Uiso   1.00
N62    N     0.31319   0.20380   0.34093   0.00000  Uiso   1.00
O63    O     0.46308   0.24619   0.25298   0.00000  Uiso   1.00
O64    O     0.53692   0.08714   0.24701   0.00000  Uiso   1.00
O65    O     0.55946   0.23721   0.24518   0.00000  Uiso   1.00
O66    O     0.44054   0.09613   0.25481   0.00000  Uiso   1.00
C67    C     0.51499   0.26460   0.24831   0.00000  Uiso   1.00
C68    C     0.48501   0.06873   0.25169   0.00000  Uiso   1.00
O69    O     0.45181   0.17117   0.31997   0.00000  Uiso   1.00
O70    O     0.54819   0.16216   0.18002   0.00000  Uiso   1.00
O71    O     0.54819   0.16219   0.31217   0.00000  Uiso   1.00
O72    O     0.45181   0.17115   0.18782   0.00000  Uiso   1.00
C73    C     0.50102   0.16674   0.33606   0.00000  Uiso   1.00
C74    C     0.49898   0.16659   0.16394   0.00000  Uiso   1.00
Zn75   Zn    0.43565   0.17266   0.25521   0.00000  Uiso   1.00
Zn76   Zn    0.56435   0.16067   0.24479   0.00000  Uiso   1.00
C77    C     0.47986   0.12245   0.09426   0.00000  Uiso   1.00
C78    C     0.52014   0.21088   0.40574   0.00000  Uiso   1.00
C79    C     0.49691   0.16755   0.11633   0.00000  Uiso   1.00
C80    C     0.50309   0.16578   0.38367   0.00000  Uiso   1.00
C81    C     0.51361   0.21320   0.09367   0.00000  Uiso   1.00
C82    C     0.48639   0.12013   0.40633   0.00000  Uiso   1.00
C83    C     0.51698   0.21350   0.04650   0.00000  Uiso   1.00
C84    C     0.48301   0.11983   0.45350   0.00000  Uiso   1.00
C85    C     0.49939   0.16732   0.02356   0.00000  Uiso   1.00
C86    C     0.50060   0.16601   0.47644   0.00000  Uiso   1.00
C87    C     0.48042   0.12229   0.04767   0.00000  Uiso   1.00
C88    C     0.51957   0.21104   0.45233   0.00000  Uiso   1.00
C89    C     0.53729   0.25749   0.02110   0.00000  Uiso   1.00
C90    C     0.46271   0.07585   0.47890   0.00000  Uiso   1.00
C91    C     0.53777   0.25564   0.47502   0.00000  Uiso   1.00
C92    C     0.46223   0.07770   0.02498   0.00000  Uiso   1.00
H93    H     0.55316   0.28997   0.45678   0.00000  Uiso   1.00
H94    H     0.44683   0.04337   0.04322   0.00000  Uiso   1.00
C95    C     0.52331   0.31885   0.24926   0.00000  Uiso   1.00
C96    C     0.47669   0.01448   0.25074   0.00000  Uiso   1.00
N97    N     0.65011   0.15265   0.23783   0.00000  Uiso   1.00
N98    N     0.34989   0.18068   0.26217   0.00000  Uiso   1.00
C99    C     0.46112   0.07677   0.12007   0.00000  Uiso   1.00
N100   N     0.44572   0.04069   0.14066   0.00000  Uiso   1.00
C101   C     0.53889   0.25656   0.37993   0.00000  Uiso   1.00
N102   N     0.55429   0.29264   0.35934   0.00000  Uiso   1.00
C103   C     0.52433   0.25917   0.12029   0.00000  Uiso   1.00
N104   N     0.53252   0.29559   0.14187   0.00000  Uiso   1.00
C105   C     0.47568   0.07416   0.37972   0.00000  Uiso   1.00
N106   N     0.46749   0.03774   0.35813   0.00000  Uiso   1.00
C107   C     0.56035   0.30538   0.03959   0.00000  Uiso   1.00
N108   N     0.57905   0.01058   0.05373   0.00000  Uiso   1.00
C109   C     0.43964   0.02796   0.46041   0.00000  Uiso   1.00
N110   N     0.42094   0.32276   0.44627   0.00000  Uiso   1.00
O111   O     0.57820   0.00579   0.25648   0.00000  Uiso   1.00
C112   C     0.61081   0.00890   0.21521   0.00000  Uiso   1.00
H113   H     0.58911   0.02999   0.18960   0.00000  Uiso   1.00
H114   H     0.62164   0.30352   0.20250   0.00000  Uiso   1.00
H115   H     0.65153   0.03113   0.22046   0.00000  Uiso   1.00
O116   O     0.42180   0.32754   0.24353   0.00000  Uiso   1.00
C117   C     0.38920   0.32444   0.28480   0.00000  Uiso   1.00
H118   H     0.37838   0.02981   0.29752   0.00000  Uiso   1.00
H119   H     0.41089   0.30333   0.31041   0.00000  Uiso   1.00
H120   H     0.34846   0.30222   0.27955   0.00000  Uiso   1.00
C121   C     0.33782   0.14030   0.19516   0.00000  Uiso   1.00
N122   N     0.35348   0.12953   0.15907   0.00000  Uiso   1.00
C123   C     0.66218   0.19303   0.30484   0.00000  Uiso   1.00
N124   N     0.64652   0.20380   0.34093   0.00000  Uiso   1.00
O125   O     0.79642   0.24619   0.25298   0.00000  Uiso   1.00
O126   O     0.87025   0.08714   0.24701   0.00000  Uiso   1.00
O127   O     0.89280   0.23721   0.24518   0.00000  Uiso   1.00
O128   O     0.77387   0.09613   0.25481   0.00000  Uiso   1.00
C129   C     0.84833   0.26460   0.24831   0.00000  Uiso   1.00
C130   C     0.81834   0.06873   0.25169   0.00000  Uiso   1.00
O131   O     0.78514   0.17117   0.31997   0.00000  Uiso   1.00
O132   O     0.88153   0.16216   0.18002   0.00000  Uiso   1.00
O133   O     0.88152   0.16219   0.31217   0.00000  Uiso   1.00
O134   O     0.78515   0.17115   0.18782   0.00000  Uiso   1.00
C135   C     0.83436   0.16674   0.33606   0.00000  Uiso   1.00
C136   C     0.83231   0.16659   0.16394   0.00000  Uiso   1.00
Zn137  Zn    0.76898   0.17266   0.25521   0.00000  Uiso   1.00
Zn138  Zn    0.89769   0.16067   0.24479   0.00000  Uiso   1.00
C139   C     0.81320   0.12245   0.09426   0.00000  Uiso   1.00
C140   C     0.85347   0.21088   0.40574   0.00000  Uiso   1.00
C141   C     0.83024   0.16755   0.11633   0.00000  Uiso   1.00
C142   C     0.83642   0.16578   0.38367   0.00000  Uiso   1.00
C143   C     0.84694   0.21320   0.09367   0.00000  Uiso   1.00
C144   C     0.81973   0.12013   0.40633   0.00000  Uiso   1.00
C145   C     0.85032   0.21350   0.04650   0.00000  Uiso   1.00
C146   C     0.81635   0.11983   0.45350   0.00000  Uiso   1.00
C147   C     0.83273   0.16732   0.02356   0.00000  Uiso   1.00
C148   C     0.83393   0.16601   0.47644   0.00000  Uiso   1.00
C149   C     0.81376   0.12229   0.04767   0.00000  Uiso   1.00
C150   C     0.85291   0.21104   0.45233   0.00000  Uiso   1.00
C151   C     0.87062   0.25749   0.02110   0.00000  Uiso   1.00
C152   C     0.79604   0.07585   0.47890   0.00000  Uiso   1.00
C153   C     0.87110   0.25564   0.47502   0.00000  Uiso   1.00
C154   C     0.79556   0.07770   0.02498   0.00000  Uiso   1.00
H155   H     0.88650   0.28997   0.45678   0.00000  Uiso   1.00
H156   H     0.78016   0.04337   0.04322   0.00000  Uiso   1.00
C157   C     0.85665   0.31885   0.24926   0.00000  Uiso   1.00
C158   C     0.81002   0.01448   0.25074   0.00000  Uiso   1.00
N159   N     0.98344   0.15265   0.23783   0.00000  Uiso   1.00
N160   N     0.68322   0.18068   0.26217   0.00000  Uiso   1.00
C161   C     0.79445   0.07677   0.12007   0.00000  Uiso   1.00
N162   N     0.77905   0.04069   0.14066   0.00000  Uiso   1.00
C163   C     0.87222   0.25656   0.37993   0.00000  Uiso   1.00
N164   N     0.88762   0.29264   0.35934   0.00000  Uiso   1.00
C165   C     0.85766   0.25917   0.12029   0.00000  Uiso   1.00
N166   N     0.86585   0.29559   0.14187   0.00000  Uiso   1.00
C167   C     0.80901   0.07416   0.37972   0.00000  Uiso   1.00
N168   N     0.80083   0.03774   0.35813   0.00000  Uiso   1.00
C169   C     0.89369   0.30538   0.03959   0.00000  Uiso   1.00
N170   N     0.91238   0.01058   0.05373   0.00000  Uiso   1.00
C171   C     0.77297   0.02796   0.46041   0.00000  Uiso   1.00
N172   N     0.75427   0.32276   0.44627   0.00000  Uiso   1.00
O173   O     0.91153   0.00579   0.25648   0.00000  Uiso   1.00
C174   C     0.94414   0.00890   0.21521   0.00000  Uiso   1.00
H175   H     0.92244   0.02999   0.18960   0.00000  Uiso   1.00
H176   H     0.95498   0.30352   0.20250   0.00000  Uiso   1.00
H177   H     0.98487   0.03113   0.22046   0.00000  Uiso   1.00
O178   O     0.75514   0.32754   0.24353   0.00000  Uiso   1.00
C179   C     0.72253   0.32444   0.28480   0.00000  Uiso   1.00
H180   H     0.71171   0.02981   0.29752   0.00000  Uiso   1.00
H181   H     0.74423   0.30333   0.31041   0.00000  Uiso   1.00
H182   H     0.68180   0.30222   0.27955   0.00000  Uiso   1.00
C183   C     0.67115   0.14030   0.19516   0.00000  Uiso   1.00
N184   N     0.68681   0.12953   0.15907   0.00000  Uiso   1.00
C185   C     0.99552   0.19303   0.30484   0.00000  Uiso   1.00
N186   N     0.97985   0.20380   0.34093   0.00000  Uiso   1.00
O187   O     0.12975   0.57952   0.25298   0.00000  Uiso   1.00
O188   O     0.20358   0.42048   0.24701   0.00000  Uiso   1.00
O189   O     0.22613   0.57054   0.24518   0.00000  Uiso   1.00
O190   O     0.10720   0.42946   0.25481   0.00000  Uiso   1.00
C191   C     0.18166   0.59794   0.24831   0.00000  Uiso   1.00
C192   C     0.15167   0.40206   0.25169   0.00000  Uiso   1.00
O193   O     0.11847   0.50450   0.31997   0.00000  Uiso   1.00
O194   O     0.21486   0.49550   0.18002   0.00000  Uiso   1.00
O195   O     0.21485   0.49552   0.31217   0.00000  Uiso   1.00
O196   O     0.11848   0.50448   0.18782   0.00000  Uiso   1.00
C197   C     0.16769   0.50008   0.33606   0.00000  Uiso   1.00
C198   C     0.16564   0.49992   0.16394   0.00000  Uiso   1.00
Zn199  Zn    0.10231   0.50600   0.25521   0.00000  Uiso   1.00
Zn200  Zn    0.23102   0.49400   0.24479   0.00000  Uiso   1.00
C201   C     0.14653   0.45579   0.09426   0.00000  Uiso   1.00
C202   C     0.18680   0.54421   0.40574   0.00000  Uiso   1.00
C203   C     0.16358   0.50088   0.11633   0.00000  Uiso   1.00
C204   C     0.16976   0.49912   0.38367   0.00000  Uiso   1.00
C205   C     0.18027   0.54653   0.09367   0.00000  Uiso   1.00
C206   C     0.15306   0.45347   0.40633   0.00000  Uiso   1.00
C207   C     0.18365   0.54683   0.04650   0.00000  Uiso   1.00
C208   C     0.14968   0.45317   0.45350   0.00000  Uiso   1.00
C209   C     0.16606   0.50066   0.02356   0.00000  Uiso   1.00
C210   C     0.16727   0.49935   0.47644   0.00000  Uiso   1.00
C211   C     0.14709   0.45563   0.04767   0.00000  Uiso   1.00
C212   C     0.18624   0.54438   0.45233   0.00000  Uiso   1.00
C213   C     0.20395   0.59082   0.02110   0.00000  Uiso   1.00
C214   C     0.12937   0.40918   0.47890   0.00000  Uiso   1.00
C215   C     0.20443   0.58897   0.47502   0.00000  Uiso   1.00
C216   C     0.12889   0.41103   0.02498   0.00000  Uiso   1.00
H217   H     0.21983   0.62330   0.45678   0.00000  Uiso   1.00
H218   H     0.11349   0.37670   0.04322   0.00000  Uiso   1.00
C219   C     0.18998   0.65218   0.24926   0.00000  Uiso   1.00
C220   C     0.14335   0.34782   0.25074   0.00000  Uiso   1.00
N221   N     0.31678   0.48598   0.23783   0.00000  Uiso   1.00
N222   N     0.01656   0.51402   0.26217   0.00000  Uiso   1.00
C223   C     0.12778   0.41010   0.12007   0.00000  Uiso   1.00
N224   N     0.11238   0.37403   0.14066   0.00000  Uiso   1.00
C225   C     0.20555   0.58990   0.37993   0.00000  Uiso   1.00
N226   N     0.22096   0.62597   0.35934   0.00000  Uiso   1.00
C227   C     0.19099   0.59250   0.12029   0.00000  Uiso   1.00
N228   N     0.19919   0.62892   0.14187   0.00000  Uiso   1.00
C229   C     0.14235   0.40749   0.37972   0.00000  Uiso   1.00
N230   N     0.13416   0.37108   0.35813   0.00000  Uiso   1.00
C231   C     0.22702   0.63871   0.03959   0.00000  Uiso   1.00
N232   N     0.24572   0.34391   0.05373   0.00000  Uiso   1.00
C233   C     0.10630   0.36129   0.46041   0.00000  Uiso   1.00
N234   N     0.08760   0.65609   0.44627   0.00000  Uiso   1.00
O235   O     0.24486   0.33912   0.25648   0.00000  Uiso   1.00
C236   C     0.27747   0.34223   0.21521   0.00000  Uiso   1.00
H237   H     0.25578   0.36332   0.18960   0.00000  Uiso   1.00
H238   H     0.28831   0.63686   0.20250   0.00000  Uiso   1.00
H239   H     0.31820   0.36446   0.22046   0.00000  Uiso   1.00
O240   O     0.08847   0.66088   0.24353   0.00000  Uiso   1.00
C241   C     0.05586   0.65777   0.28480   0.00000  Uiso   1.00
H242   H     0.04504   0.36315   0.29752   0.00000  Uiso   1.00
H243   H     0.07756   0.63667   0.31041   0.00000  Uiso   1.00
H244   H     0.01513   0.63555   0.27955   0.00000  Uiso   1.00
C245   C     0.00449   0.47363   0.19516   0.00000  Uiso   1.00
N246   N     0.02015   0.46287   0.15907   0.00000  Uiso   1.00
C247   C     0.32885   0.52637   0.30484   0.00000  Uiso   1.00
N248   N     0.31319   0.53713   0.34093   0.00000  Uiso   1.00
O249   O     0.46308   0.57952   0.25298   0.00000  Uiso   1.00
O250   O     0.53692   0.42048   0.24701   0.00000  Uiso   1.00
O251   O     0.55946   0.57054   0.24518   0.00000  Uiso   1.00
O252   O     0.44054   0.42946   0.25481   0.00000  Uiso   1.00
C253   C     0.51499   0.59794   0.24831   0.00000  Uiso   1.00
C254   C     0.48501   0.40206   0.25169   0.00000  Uiso   1.00
O255   O     0.45181   0.50450   0.31997   0.00000  Uiso   1.00
O256   O     0.54819   0.49550   0.18002   0.00000  Uiso   1.00
O257   O     0.54819   0.49552   0.31217   0.00000  Uiso   1.00
O258   O     0.45181   0.50448   0.18782   0.00000  Uiso   1.00
C259   C     0.50102   0.50008   0.33606   0.00000  Uiso   1.00
C260   C     0.49898   0.49992   0.16394   0.00000  Uiso   1.00
Zn261  Zn    0.43565   0.50600   0.25521   0.00000  Uiso   1.00
Zn262  Zn    0.56435   0.49400   0.24479   0.00000  Uiso   1.00
C263   C     0.47986   0.45579   0.09426   0.00000  Uiso   1.00
C264   C     0.52014   0.54421   0.40574   0.00000  Uiso   1.00
C265   C     0.49691   0.50088   0.11633   0.00000  Uiso   1.00
C266   C     0.50309   0.49912   0.38367   0.00000  Uiso   1.00
C267   C     0.51361   0.54653   0.09367   0.00000  Uiso   1.00
C268   C     0.48639   0.45347   0.40633   0.00000  Uiso   1.00
C269   C     0.51698   0.54683   0.04650   0.00000  Uiso   1.00
C270   C     0.48301   0.45317   0.45350   0.00000  Uiso   1.00
C271   C     0.49939   0.50066   0.02356   0.00000  Uiso   1.00
C272   C     0.50060   0.49935   0.47644   0.00000  Uiso   1.00
C273   C     0.48042   0.45563   0.04767   0.00000  Uiso   1.00
C274   C     0.51957   0.54438   0.45233   0.00000  Uiso   1.00
C275   C     0.53729   0.59082   0.02110   0.00000  Uiso   1.00
C276   C     0.46271   0.40918   0.47890   0.00000  Uiso   1.00
C277   C     0.53777   0.58897   0.47502   0.00000  Uiso   1.00
C278   C     0.46223   0.41103   0.02498   0.00000  Uiso   1.00
H279   H     0.55316   0.62330   0.45678   0.00000  Uiso   1.00
H280   H     0.44683   0.37670   0.04322   0.00000  Uiso   1.00
C281   C     0.52331   0.65218   0.24926   0.00000  Uiso   1.00
C282   C     0.47669   0.34782   0.25074   0.00000  Uiso   1.00
N283   N     0.65011   0.48598   0.23783   0.00000  Uiso   1.00
N284   N     0.34989   0.51402   0.26217   0.00000  Uiso   1.00
C285   C     0.46112   0.41010   0.12007   0.00000  Uiso   1.00
N286   N     0.44572   0.37403   0.14066   0.00000  Uiso   1.00
C287   C     0.53889   0.58990   0.37993   0.00000  Uiso   1.00
N288   N     0.55429   0.62597   0.35934   0.00000  Uiso   1.00
C289   C     0.52433   0.59250   0.12029   0.00000  Uiso   1.00
N290   N     0.53252   0.62892   0.14187   0.00000  Uiso   1.00
C291   C     0.47568   0.40749   0.37972   0.00000  Uiso   1.00
N292   N     0.46749   0.37108   0.35813   0.00000  Uiso   1.00
C293   C     0.56035   0.63871   0.03959   0.00000  Uiso   1.00
N294   N     0.57905   0.34391   0.05373   0.00000  Uiso   1.00
C295   C     0.43964   0.36129   0.46041   0.00000  Uiso   1.00
N296   N     0.42094   0.65609   0.44627   0.00000  Uiso   1.00
O297   O     0.57820   0.33912   0.25648   0.00000  Uiso   1.00
C298   C     0.61081   0.34223   0.21521   0.00000  Uiso   1.00
H299   H     0.58911   0.36332   0.18960   0.00000  Uiso   1.00
H300   H     0.62164   0.63686   0.20250   0.00000  Uiso   1.00
H301   H     0.65153   0.36446   0.22046   0.00000  Uiso   1.00
O302   O     0.42180   0.66088   0.24353   0.00000  Uiso   1.00
C303   C     0.38920   0.65777   0.28480   0.00000  Uiso   1.00
H304   H     0.37838   0.36315   0.29752   0.00000  Uiso   1.00
H305   H     0.41089   0.63667   0.31041   0.00000  Uiso   1.00
H306   H     0.34846   0.63555   0.27955   0.00000  Uiso   1.00
C307   C     0.33782   0.47363   0.19516   0.00000  Uiso   1.00
N308   N     0.35348   0.46287   0.15907   0.00000  Uiso   1.00
C309   C     0.66218   0.52637   0.30484   0.00000  Uiso   1.00
N310   N     0.64652   0.53713   0.34093   0.00000  Uiso   1.00
O311   O     0.79642   0.57952   0.25298   0.00000  Uiso   1.00
O312   O     0.87025   0.42048   0.24701   0.00000  Uiso   1.00
O313   O     0.89280   0.57054   0.24518   0.00000  Uiso   1.00
O314   O     0.77387   0.42946   0.25481   0.00000  Uiso   1.00
C315   C     0.84833   0.59794   0.24831   0.00000  Uiso   1.00
C316   C     0.81834   0.40206   0.25169   0.00000  Uiso   1.00
O317   O     0.78514   0.50450   0.31997   0.00000  Uiso   1.00
O318   O     0.88153   0.49550   0.18002   0.00000  Uiso   1.00
O319   O     0.88152   0.49552   0.31217   0.00000  Uiso   1.00
O320   O     0.78515   0.50448   0.18782   0.00000  Uiso   1.00
C321   C     0.83436   0.50008   0.33606   0.00000  Uiso   1.00
C322   C     0.83231   0.49992   0.16394   0.00000  Uiso   1.00
Zn323  Zn    0.76898   0.50600   0.25521   0.00000  Uiso   1.00
Zn324  Zn    0.89769   0.49400   0.24479   0.00000  Uiso   1.00
C325   C     0.81320   0.45579   0.09426   0.00000  Uiso   1.00
C326   C     0.85347   0.54421   0.40574   0.00000  Uiso   1.00
C327   C     0.83024   0.50088   0.11633   0.00000  Uiso   1.00
C328   C     0.83642   0.49912   0.38367   0.00000  Uiso   1.00
C329   C     0.84694   0.54653   0.09367   0.00000  Uiso   1.00
C330   C     0.81973   0.45347   0.40633   0.00000  Uiso   1.00
C331   C     0.85032   0.54683   0.04650   0.00000  Uiso   1.00
C332   C     0.81635   0.45317   0.45350   0.00000  Uiso   1.00
C333   C     0.83273   0.50066   0.02356   0.00000  Uiso   1.00
C334   C     0.83393   0.49935   0.47644   0.00000  Uiso   1.00
C335   C     0.81376   0.45563   0.04767   0.00000  Uiso   1.00
C336   C     0.85291   0.54438   0.45233   0.00000  Uiso   1.00
C337   C     0.87062   0.59082   0.02110   0.00000  Uiso   1.00
C338   C     0.79604   0.40918   0.47890   0.00000  Uiso   1.00
C339   C     0.87110   0.58897   0.47502   0.00000  Uiso   1.00
C340   C     0.79556   0.41103   0.02498   0.00000  Uiso   1.00
H341   H     0.88650   0.62330   0.45678   0.00000  Uiso   1.00
H342   H     0.78016   0.37670   0.04322   0.00000  Uiso   1.00
C343   C     0.85665   0.65218   0.24926   0.00000  Uiso   1.00
C344   C     0.81002   0.34782   0.25074   0.00000  Uiso   1.00
N345   N     0.98344   0.48598   0.23783   0.00000  Uiso   1.00
N346   N     0.68322   0.51402   0.26217   0.00000  Uiso   1.00
C347   C     0.79445   0.41010   0.12007   0.00000  Uiso   1.00
N348   N     0.77905   0.37403   0.14066   0.00000  Uiso   1.00
C349   C     0.87222   0.58990   0.37993   0.00000  Uiso   1.00
N350   N     0.88762   0.62597   0.35934   0.00000  Uiso   1.00
C351   C     0.85766   0.59250   0.12029   0.00000  Uiso   1.00
N352   N     0.86585   0.62892   0.14187   0.00000  Uiso   1.00
C353   C     0.80901   0.40749   0.37972   0.00000  Uiso   1.00
N354   N     0.80083   0.37108   0.35813   0.00000  Uiso   1.00
C355   C     0.89369   0.63871   0.03959   0.00000  Uiso   1.00
N356   N     0.91238   0.34391   0.05373   0.00000  Uiso   1.00
C357   C     0.77297   0.36129   0.46041   0.00000  Uiso   1.00
N358   N     0.75427   0.65609   0.44627   0.00000  Uiso   1.00
O359   O     0.91153   0.33912   0.25648   0.00000  Uiso   1.00
C360   C     0.94414   0.34223   0.21521   0.00000  Uiso   1.00
H361   H     0.92244   0.36332   0.18960   0.00000  Uiso   1.00
H362   H     0.95498   0.63686   0.20250   0.00000  Uiso   1.00
H363   H     0.98487   0.36446   0.22046   0.00000  Uiso   1.00
O364   O     0.75514   0.66088   0.24353   0.00000  Uiso   1.00
C365   C     0.72253   0.65777   0.28480   0.00000  Uiso   1.00
H366   H     0.71171   0.36315   0.29752   0.00000  Uiso   1.00
H367   H     0.74423   0.63667   0.31041   0.00000  Uiso   1.00
H368   H     0.68180   0.63555   0.27955   0.00000  Uiso   1.00
C369   C     0.67115   0.47363   0.19516   0.00000  Uiso   1.00
N370   N     0.68681   0.46287   0.15907   0.00000  Uiso   1.00
C371   C     0.99552   0.52637   0.30484   0.00000  Uiso   1.00
N372   N     0.97985   0.53713   0.34093   0.00000  Uiso   1.00
O373   O     0.12975   0.91286   0.25298   0.00000  Uiso   1.00
O374   O     0.20358   0.75381   0.24701   0.00000  Uiso   1.00
O375   O     0.22613   0.90387   0.24518   0.00000  Uiso   1.00
O376   O     0.10720   0.76279   0.25481   0.00000  Uiso   1.00
C377   C     0.18166   0.93127   0.24831   0.00000  Uiso   1.00
C378   C     0.15167   0.73540   0.25169   0.00000  Uiso   1.00
O379   O     0.11847   0.83784   0.31997   0.00000  Uiso   1.00
O380   O     0.21486   0.82883   0.18002   0.00000  Uiso   1.00
O381   O     0.21485   0.82885   0.31217   0.00000  Uiso   1.00
O382   O     0.11848   0.83781   0.18782   0.00000  Uiso   1.00
C383   C     0.16769   0.83341   0.33606   0.00000  Uiso   1.00
C384   C     0.16564   0.83326   0.16394   0.00000  Uiso   1.00
Zn385  Zn    0.10231   0.83933   0.25521   0.00000  Uiso   1.00
Zn386  Zn    0.23102   0.82734   0.24479   0.00000  Uiso   1.00
C387   C     0.14653   0.78912   0.09426   0.00000  Uiso   1.00
C388   C     0.18680   0.87755   0.40574   0.00000  Uiso   1.00
C389   C     0.16358   0.83422   0.11633   0.00000  Uiso   1.00
C390   C     0.16976   0.83245   0.38367   0.00000  Uiso   1.00
C391   C     0.18027   0.87987   0.09367   0.00000  Uiso   1.00
C392   C     0.15306   0.78680   0.40633   0.00000  Uiso   1.00
C393   C     0.18365   0.88017   0.04650   0.00000  Uiso   1.00
C394   C     0.14968   0.78650   0.45350   0.00000  Uiso   1.00
C395   C     0.16606   0.83399   0.02356   0.00000  Uiso   1.00
C396   C     0.16727   0.83268   0.47644   0.00000  Uiso   1.00
C397   C     0.14709   0.78896   0.04767   0.00000  Uiso   1.00
C398   C     0.18624   0.87771   0.45233   0.00000  Uiso   1.00
C399   C     0.20395   0.92416   0.02110   0.00000  Uiso   1.00
C400   C     0.12937   0.74251   0.47890   0.00000  Uiso   1.00
C401   C     0.20443   0.92230   0.47502   0.00000  Uiso   1.00
C402   C     0.12889   0.74437   0.02498   0.00000  Uiso   1.00
H403   H     0.21983   0.95664   0.45678   0.00000  Uiso   1.00
H404   H     0.11349   0.71003   0.04322   0.00000  Uiso   1.00
C405   C     0.18998   0.98552   0.24926   0.00000  Uiso   1.00
C406   C     0.14335   0.68115   0.25074   0.00000  Uiso   1.00
N407   N     0.31678   0.81932   0.23783   0.00000  Uiso   1.00
N408   N     0.01656   0.84735   0.26217   0.00000  Uiso   1.00
C409   C     0.12778   0.74344   0.12007   0.00000  Uiso   1.00
N410   N     0.11238   0.70736   0.14066   0.00000  Uiso   1.00
C411   C     0.20555   0.92323   0.37993   0.00000  Uiso   1.00
N412   N     0.22096   0.95931   0.35934   0.00000  Uiso   1.00
C413   C     0.19099   0.92584   0.12029   0.00000  Uiso   1.00
N414   N     0.19919   0.96225   0.14187   0.00000  Uiso   1.00
C415   C     0.14235   0.74083   0.37972   0.00000  Uiso   1.00
N416   N     0.13416   0.70441   0.35813   0.00000  Uiso   1.00
C417   C     0.22702   0.97205   0.03959   0.00000  Uiso   1.00
N418   N     0.24572   0.67725   0.05373   0.00000  Uiso   1.00
C419   C     0.10630   0.69462   0.46041   0.00000  Uiso   1.00
N420   N     0.08760   0.98943   0.44627   0.00000  Uiso   1.00
O421   O     0.24486   0.67246   0.25648   0.00000  Uiso   1.00
C422   C     0.27747   0.67556   0.21521   0.00000  Uiso   1.00
H423   H     0.25578   0.69666   0.18960   0.00000  Uiso   1.00
H424   H     0.28831   0.97019   0.20250   0.00000  Uiso   1.00
H425   H     0.31820   0.69779   0.22046   0.00000  Uiso   1.00
O426   O     0.08847   0.99421   0.24353   0.00000  Uiso   1.00
C427   C     0.05586   0.99110   0.28480   0.00000  Uiso   1.00
H428   H     0.04504   0.69648   0.29752   0.00000  Uiso   1.00
H429   H     0.07756   0.97000   0.31041   0.00000  Uiso   1.00
H430   H     0.01513   0.96889   0.27955   0.00000  Uiso   1.00
C431   C     0.00449   0.80697   0.19516   0.00000  Uiso   1.00
N432   N     0.02015   0.79620   0.15907   0.00000  Uiso   1.00
C433   C     0.32885   0.85970   0.30484   0.00000  Uiso   1.00
N434   N     0.31319   0.87047   0.34093   0.00000  Uiso   1.00
O435   O     0.46308   0.91286   0.25298   0.00000  Uiso   1.00
O436   O     0.53692   0.75381   0.24701   0.00000  Uiso   1.00
O437   O     0.55946   0.90387   0.24518   0.00000  Uiso   1.00
O438   O     0.44054   0.76279   0.25481   0.00000  Uiso   1.00
C439   C     0.51499   0.93127   0.24831   0.00000  Uiso   1.00
C440   C     0.48501   0.73540   0.25169   0.00000  Uiso   1.00
O441   O     0.45181   0.83784   0.31997   0.00000  Uiso   1.00
O442   O     0.54819   0.82883   0.18002   0.00000  Uiso   1.00
O443   O     0.54819   0.82885   0.31217   0.00000  Uiso   1.00
O444   O     0.45181   0.83781   0.18782   0.00000  Uiso   1.00
C445   C     0.50102   0.83341   0.33606   0.00000  Uiso   1.00
C446   C     0.49898   0.83326   0.16394   0.00000  Uiso   1.00
Zn447  Zn    0.43565   0.83933   0.25521   0.00000  Uiso   1.00
Zn448  Zn    0.56435   0.82734   0.24479   0.00000  Uiso   1.00
C449   C     0.47986   0.78912   0.09426   0.00000  Uiso   1.00
C450   C     0.52014   0.87755   0.40574   0.00000  Uiso   1.00
C451   C     0.49691   0.83422   0.11633   0.00000  Uiso   1.00
C452   C     0.50309   0.83245   0.38367   0.00000  Uiso   1.00
C453   C     0.51361   0.87987   0.09367   0.00000  Uiso   1.00
C454   C     0.48639   0.78680   0.40633   0.00000  Uiso   1.00
C455   C     0.51698   0.88017   0.04650   0.00000  Uiso   1.00
C456   C     0.48301   0.78650   0.45350   0.00000  Uiso   1.00
C457   C     0.49939   0.83399   0.02356   0.00000  Uiso   1.00
C458   C     0.50060   0.83268   0.47644   0.00000  Uiso   1.00
C459   C     0.48042   0.78896   0.04767   0.00000  Uiso   1.00
C460   C     0.51957   0.87771   0.45233   0.00000  Uiso   1.00
C461   C     0.53729   0.92416   0.02110   0.00000  Uiso   1.00
C462   C     0.46271   0.74251   0.47890   0.00000  Uiso   1.00
C463   C     0.53777   0.92230   0.47502   0.00000  Uiso   1.00
C464   C     0.46223   0.74437   0.02498   0.00000  Uiso   1.00
H465   H     0.55316   0.95664   0.45678   0.00000  Uiso   1.00
H466   H     0.44683   0.71003   0.04322   0.00000  Uiso   1.00
C467   C     0.52331   0.98552   0.24926   0.00000  Uiso   1.00
C468   C     0.47669   0.68115   0.25074   0.00000  Uiso   1.00
N469   N     0.65011   0.81932   0.23783   0.00000  Uiso   1.00
N470   N     0.34989   0.84735   0.26217   0.00000  Uiso   1.00
C471   C     0.46112   0.74344   0.12007   0.00000  Uiso   1.00
N472   N     0.44572   0.70736   0.14066   0.00000  Uiso   1.00
C473   C     0.53889   0.92323   0.37993   0.00000  Uiso   1.00
N474   N     0.55429   0.95931   0.35934   0.00000  Uiso   1.00
C475   C     0.52433   0.92584   0.12029   0.00000  Uiso   1.00
N476   N     0.53252   0.96225   0.14187   0.00000  Uiso   1.00
C477   C     0.47568   0.74083   0.37972   0.00000  Uiso   1.00
N478   N     0.46749   0.70441   0.35813   0.00000  Uiso   1.00
C479   C     0.56035   0.97205   0.03959   0.00000  Uiso   1.00
N480   N     0.57905   0.67725   0.05373   0.00000  Uiso   1.00
C481   C     0.43964   0.69462   0.46041   0.00000  Uiso   1.00
N482   N     0.42094   0.98943   0.44627   0.00000  Uiso   1.00
O483   O     0.57820   0.67246   0.25648   0.00000  Uiso   1.00
C484   C     0.61081   0.67556   0.21521   0.00000  Uiso   1.00
H485   H     0.58911   0.69666   0.18960   0.00000  Uiso   1.00
H486   H     0.62164   0.97019   0.20250   0.00000  Uiso   1.00
H487   H     0.65153   0.69779   0.22046   0.00000  Uiso   1.00
O488   O     0.42180   0.99421   0.24353   0.00000  Uiso   1.00
C489   C     0.38920   0.99110   0.28480   0.00000  Uiso   1.00
H490   H     0.37838   0.69648   0.29752   0.00000  Uiso   1.00
H491   H     0.41089   0.97000   0.31041   0.00000  Uiso   1.00
H492   H     0.34846   0.96889   0.27955   0.00000  Uiso   1.00
C493   C     0.33782   0.80697   0.19516   0.00000  Uiso   1.00
N494   N     0.35348   0.79620   0.15907   0.00000  Uiso   1.00
C495   C     0.66218   0.85970   0.30484   0.00000  Uiso   1.00
N496   N     0.64652   0.87047   0.34093   0.00000  Uiso   1.00
O497   O     0.79642   0.91286   0.25298   0.00000  Uiso   1.00
O498   O     0.87025   0.75381   0.24701   0.00000  Uiso   1.00
O499   O     0.89280   0.90387   0.24518   0.00000  Uiso   1.00
O500   O     0.77387   0.76279   0.25481   0.00000  Uiso   1.00
C501   C     0.84833   0.93127   0.24831   0.00000  Uiso   1.00
C502   C     0.81834   0.73540   0.25169   0.00000  Uiso   1.00
O503   O     0.78514   0.83784   0.31997   0.00000  Uiso   1.00
O504   O     0.88153   0.82883   0.18002   0.00000  Uiso   1.00
O505   O     0.88152   0.82885   0.31217   0.00000  Uiso   1.00
O506   O     0.78515   0.83781   0.18782   0.00000  Uiso   1.00
C507   C     0.83436   0.83341   0.33606   0.00000  Uiso   1.00
C508   C     0.83231   0.83326   0.16394   0.00000  Uiso   1.00
Zn509  Zn    0.76898   0.83933   0.25521   0.00000  Uiso   1.00
Zn510  Zn    0.89769   0.82734   0.24479   0.00000  Uiso   1.00
C511   C     0.81320   0.78912   0.09426   0.00000  Uiso   1.00
C512   C     0.85347   0.87755   0.40574   0.00000  Uiso   1.00
C513   C     0.83024   0.83422   0.11633   0.00000  Uiso   1.00
C514   C     0.83642   0.83245   0.38367   0.00000  Uiso   1.00
C515   C     0.84694   0.87987   0.09367   0.00000  Uiso   1.00
C516   C     0.81973   0.78680   0.40633   0.00000  Uiso   1.00
C517   C     0.85032   0.88017   0.04650   0.00000  Uiso   1.00
C518   C     0.81635   0.78650   0.45350   0.00000  Uiso   1.00
C519   C     0.83273   0.83399   0.02356   0.00000  Uiso   1.00
C520   C     0.83393   0.83268   0.47644   0.00000  Uiso   1.00
C521   C     0.81376   0.78896   0.04767   0.00000  Uiso   1.00
C522   C     0.85291   0.87771   0.45233   0.00000  Uiso   1.00
C523   C     0.87062   0.92416   0.02110   0.00000  Uiso   1.00
C524   C     0.79604   0.74251   0.47890   0.00000  Uiso   1.00
C525   C     0.87110   0.92230   0.47502   0.00000  Uiso   1.00
C526   C     0.79556   0.74437   0.02498   0.00000  Uiso   1.00
H527   H     0.88650   0.95664   0.45678   0.00000  Uiso   1.00
H528   H     0.78016   0.71003   0.04322   0.00000  Uiso   1.00
C529   C     0.85665   0.98552   0.24926   0.00000  Uiso   1.00
C530   C     0.81002   0.68115   0.25074   0.00000  Uiso   1.00
N531   N     0.98344   0.81932   0.23783   0.00000  Uiso   1.00
N532   N     0.68322   0.84735   0.26217   0.00000  Uiso   1.00
C533   C     0.79445   0.74344   0.12007   0.00000  Uiso   1.00
N534   N     0.77905   0.70736   0.14066   0.00000  Uiso   1.00
C535   C     0.87222   0.92323   0.37993   0.00000  Uiso   1.00
N536   N     0.88762   0.95931   0.35934   0.00000  Uiso   1.00
C537   C     0.85766   0.92584   0.12029   0.00000  Uiso   1.00
N538   N     0.86585   0.96225   0.14187   0.00000  Uiso   1.00
C539   C     0.80901   0.74083   0.37972   0.00000  Uiso   1.00
N540   N     0.80083   0.70441   0.35813   0.00000  Uiso   1.00
C541   C     0.89369   0.97205   0.03959   0.00000  Uiso   1.00
N542   N     0.91238   0.67725   0.05373   0.00000  Uiso   1.00
C543   C     0.77297   0.69462   0.46041   0.00000  Uiso   1.00
N544   N     0.75427   0.98943   0.44627   0.00000  Uiso   1.00
O545   O     0.91153   0.67246   0.25648   0.00000  Uiso   1.00
C546   C     0.94414   0.67556   0.21521   0.00000  Uiso   1.00
H547   H     0.92244   0.69666   0.18960   0.00000  Uiso   1.00
H548   H     0.95498   0.97019   0.20250   0.00000  Uiso   1.00
H549   H     0.98487   0.69779   0.22046   0.00000  Uiso   1.00
O550   O     0.75514   0.99421   0.24353   0.00000  Uiso   1.00
C551   C     0.72253   0.99110   0.28480   0.00000  Uiso   1.00
H552   H     0.71171   0.69648   0.29752   0.00000  Uiso   1.00
H553   H     0.74423   0.97000   0.31041   0.00000  Uiso   1.00
H554   H     0.68180   0.96889   0.27955   0.00000  Uiso   1.00
C555   C     0.67115   0.80697   0.19516   0.00000  Uiso   1.00
N556   N     0.68681   0.79620   0.15907   0.00000  Uiso   1.00
C557   C     0.99552   0.85970   0.30484   0.00000  Uiso   1.00
N558   N     0.97985   0.87047   0.34093   0.00000  Uiso   1.00
O559   O     0.12975   0.24619   0.75298   0.00000  Uiso   1.00
O560   O     0.20358   0.08714   0.74701   0.00000  Uiso   1.00
O561   O     0.22613   0.23721   0.74518   0.00000  Uiso   1.00
O562   O     0.10720   0.09613   0.75481   0.00000  Uiso   1.00
C563   C     0.18166   0.26460   0.74831   0.00000  Uiso   1.00
C564   C     0.15167   0.06873   0.75169   0.00000  Uiso   1.00
O565   O     0.11847   0.17117   0.81997   0.00000  Uiso   1.00
O566   O     0.21486   0.16216   0.68002   0.00000  Uiso   1.00
O567   O     0.21485   0.16219   0.81217   0.00000  Uiso   1.00
O568   O     0.11848   0.17115   0.68782   0.00000  Uiso   1.00
C569   C     0.16769   0.16674   0.83606   0.00000  Uiso   1.00
C570   C     0.16564   0.16659   0.66394   0.00000  Uiso   1.00
Zn571  Zn    0.10231   0.17266   0.75521   0.00000  Uiso   1.00
Zn572  Zn    0.23102   0.16067   0.74479   0.00000  Uiso   1.00
C573   C     0.14653   0.12245   0.59426   0.00000  Uiso   1.00
C574   C     0.18680   0.21088   0.90574   0.00000  Uiso   1.00
C575   C     0.16358   0.16755   0.61633   0.00000  Uiso   1.00
C576   C     0.16976   0.16578   0.88367   0.00000  Uiso   1.00
C577   C     0.18027   0.21320   0.59367   0.00000  Uiso   1.00
C578   C     0.15306   0.12013   0.90633   0.00000  Uiso   1.00
C579   C     0.18365   0.21350   0.54650   0.00000  Uiso   1.00
C580   C     0.14968   0.11983   0.95350   0.00000  Uiso   1.00
C581   C     0.16606   0.16732   0.52356   0.00000  Uiso   1.00
C582   C     0.16727   0.16601   0.97644   0.00000  Uiso   1.00
C583   C     0.14709   0.12229   0.54767   0.00000  Uiso   1.00
C584   C     0.18624   0.21104   0.95233   0.00000  Uiso   1.00
C585   C     0.20395   0.25749   0.52110   0.00000  Uiso   1.00
C586   C     0.12937   0.07585   0.97890   0.00000  Uiso   1.00
C587   C     0.20443   0.25564   0.97502   0.00000  Uiso   1.00
C588   C     0.12889   0.07770   0.52498   0.00000  Uiso   1.00
H589   H     0.21983   0.28997   0.95678   0.00000  Uiso   1.00
H590   H     0.11349   0.04337   0.54322   0.00000  Uiso   1.00
C591   C     0.18998   0.31885   0.74926   0.00000  Uiso   1.00
C592   C     0.14335   0.01448   0.75074   0.00000  Uiso   1.00
N593   N     0.31678   0.15265   0.73783   0.00000  Uiso   1.00
N594   N     0.01656   0.18068   0.76217   0.00000  Uiso   1.00
C595   C     0.12778   0.07677   0.62007   0.00000  Uiso   1.00
N596   N     0.11238   0.04069   0.64066   0.00000  Uiso   1.00
C597   C     0.20555   0.25656   0.87993   0.00000  Uiso   1.00
N598   N     0.22096   0.29264   0.85934   0.00000  Uiso   1.00
C599   C     0.19099   0.25917   0.62029   0.00000  Uiso   1.00
N600   N     0.19919   0.29559   0.64187   0.00000  Uiso   1.00
C601   C     0.14235   0.07416   0.87972   0.00000  Uiso   1.00
N602   N     0.13416   0.03774   0.85813   0.00000  Uiso   1.00
C603   C     0.22702   0.30538   0.53959   0.00000  Uiso   1.00
N604   N     0.24572   0.01058   0.55373   0.00000  Uiso   1.00
C605   C     0.10630   0.02796   0.96041   0.00000  Uiso   1.00
N606   N     0.08760   0.32276   0.94627   0.00000  Uiso   1.00
O607   O     0.24486   0.00579   0.75648   0.00000  Uiso   1.00
C608   C     0.27747   0.00890   0.71521   0.00000  Uiso   1.00
H609   H     0.25578   0.02999   0.68960   0.00000  Uiso   1.00
H610   H     0.28831   0.30352   0.70250   0.00000  Uiso   1.00
H611   H     0.31820   0.03113   0.72046   0.00000  Uiso   1.00
O612   O     0.08847   0.32754   0.74353   0.00000  Uiso   1.00
C613   C     0.05586   0.32444   0.78480   0.00000  Uiso   1.00
H614   H     0.04504   0.02981   0.79752   0.00000  Uiso   1.00
H615   H     0.07756   0.30333   0.81041   0.00000  Uiso   1.00
H616   H     0.01513   0.30222   0.77955   0.00000  Uiso   1.00
C617   C     0.00449   0.14030   0.69516   0.00000  Uiso   1.00
N618   N     0.02015   0.12953   0.65907   0.00000  Uiso   1.00
C619   C     0.32885   0.19303   0.80484   0.00000  Uiso   1.00
N620   N     0.31319   0.20380   0.84093   0.00000  Uiso   1.00
O621   O     0.46308   0.24619   0.75298   0.00000  Uiso   1.00
O622   O     0.53692   0.08714   0.74701   0.00000  Uiso   1.00
O623   O     0.55946   0.23721   0.74518   0.00000  Uiso   1.00
O624   O     0.44054   0.09613   0.75481   0.00000  Uiso   1.00
C625   C     0.51499   0.26460   0.74831   0.00000  Uiso   1.00
C626   C     0.48501   0.06873   0.75169   0.00000  Uiso   1.00
O627   O     0.45181   0.17117   0.81997   0.00000  Uiso   1.00
O628   O     0.54819   0.16216   0.68002   0.00000  Uiso   1.00
O629   O     0.54819   0.16219   0.81217   0.00000  Uiso   1.00
O630   O     0.45181   0.17115   0.68782   0.00000  Uiso   1.00
C631   C     0.50102   0.16674   0.83606   0.00000  Uiso   1.00
C632   C     0.49898   0.16659   0.66394   0.00000  Uiso   1.00
Zn633  Zn    0.43565   0.17266   0.75521   0.00000  Uiso   1.00
Zn634  Zn    0.56435   0.16067   0.74479   0.00000  Uiso   1.00
C635   C     0.47986   0.12245   0.59426   0.00000  Uiso   1.00
C636   C     0.52014   0.21088   0.90574   0.00000  Uiso   1.00
C637   C     0.49691   0.16755   0.61633   0.00000  Uiso   1.00
C638   C     0.50309   0.16578   0.88367   0.00000  Uiso   1.00
C639   C     0.51361   0.21320   0.59367   0.00000  Uiso   1.00
C640   C     0.48639   0.12013   0.90633   0.00000  Uiso   1.00
C641   C     0.51698   0.21350   0.54650   0.00000  Uiso   1.00
C642   C     0.48301   0.11983   0.95350   0.00000  Uiso   1.00
C643   C     0.49939   0.16732   0.52356   0.00000  Uiso   1.00
C644   C     0.50060   0.16601   0.97644   0.00000  Uiso   1.00
C645   C     0.48042   0.12229   0.54767   0.00000  Uiso   1.00
C646   C     0.51957   0.21104   0.95233   0.00000  Uiso   1.00
C647   C     0.53729   0.25749   0.52110   0.00000  Uiso   1.00
C648   C     0.46271   0.07585   0.97890   0.00000  Uiso   1.00
C649   C     0.53777   0.25564   0.97502   0.00000  Uiso   1.00
C650   C     0.46223   0.07770   0.52498   0.00000  Uiso   1.00
H651   H     0.55316   0.28997   0.95678   0.00000  Uiso   1.00
H652   H     0.44683   0.04337   0.54322   0.00000  Uiso   1.00
C653   C     0.52331   0.31885   0.74926   0.00000  Uiso   1.00
C654   C     0.47669   0.01448   0.75074   0.00000  Uiso   1.00
N655   N     0.65011   0.15265   0.73783   0.00000  Uiso   1.00
N656   N     0.34989   0.18068   0.76217   0.00000  Uiso   1.00
C657   C     0.46112   0.07677   0.62007   0.00000  Uiso   1.00
N658   N     0.44572   0.04069   0.64066   0.00000  Uiso   1.00
C659   C     0.53889   0.25656   0.87993   0.00000  Uiso   1.00
N660   N     0.55429   0.29264   0.85934   0.00000  Uiso   1.00
C661   C     0.52433   0.25917   0.62029   0.00000  Uiso   1.00
N662   N     0.53252   0.29559   0.64187   0.00000  Uiso   1.00
C663   C     0.47568   0.07416   0.87972   0.00000  Uiso   1.00
N664   N     0.46749   0.03774   0.85813   0.00000  Uiso   1.00
C665   C     0.56035   0.30538   0.53959   0.00000  Uiso   1.00
N666   N     0.57905   0.01058   0.55373   0.00000  Uiso   1.00
C667   C     0.43964   0.02796   0.96041   0.00000  Uiso   1.00
N668   N     0.42094   0.32276   0.94627   0.00000  Uiso   1.00
O669   O     0.57820   0.00579   0.75648   0.00000  Uiso   1.00
C670   C     0.61081   0.00890   0.71521   0.00000  Uiso   1.00
H671   H     0.58911   0.02999   0.68960   0.00000  Uiso   1.00
H672   H     0.62164   0.30352   0.70250   0.00000  Uiso   1.00
H673   H     0.65153   0.03113   0.72046   0.00000  Uiso   1.00
O674   O     0.42180   0.32754   0.74353   0.00000  Uiso   1.00
C675   C     0.38920   0.32444   0.78480   0.00000  Uiso   1.00
H676   H     0.37838   0.02981   0.79752   0.00000  Uiso   1.00
H677   H     0.41089   0.30333   0.81041   0.00000  Uiso   1.00
H678   H     0.34846   0.30222   0.77955   0.00000  Uiso   1.00
C679   C     0.33782   0.14030   0.69516   0.00000  Uiso   1.00
N680   N     0.35348   0.12953   0.65907   0.00000  Uiso   1.00
C681   C     0.66218   0.19303   0.80484   0.00000  Uiso   1.00
N682   N     0.64652   0.20380   0.84093   0.00000  Uiso   1.00
O683   O     0.79642   0.24619   0.75298   0.00000  Uiso   1.00
O684   O     0.87025   0.08714   0.74701   0.00000  Uiso   1.00
O685   O     0.89280   0.23721   0.74518   0.00000  Uiso   1.00
O686   O     0.77387   0.09613   0.75481   0.00000  Uiso   1.00
C687   C     0.84833   0.26460   0.74831   0.00000  Uiso   1.00
C688   C     0.81834   0.06873   0.75169   0.00000  Uiso   1.00
O689   O     0.78514   0.17117   0.81997   0.00000  Uiso   1.00
O690   O     0.88153   0.16216   0.68002   0.00000  Uiso   1.00
O691   O     0.88152   0.16219   0.81217   0.00000  Uiso   1.00
O692   O     0.78515   0.17115   0.68782   0.00000  Uiso   1.00
C693   C     0.83436   0.16674   0.83606   0.00000  Uiso   1.00
C694   C     0.83231   0.16659   0.66394   0.00000  Uiso   1.00
Zn695  Zn    0.76898   0.17266   0.75521   0.00000  Uiso   1.00
Zn696  Zn    0.89769   0.16067   0.74479   0.00000  Uiso   1.00
C697   C     0.81320   0.12245   0.59426   0.00000  Uiso   1.00
C698   C     0.85347   0.21088   0.90574   0.00000  Uiso   1.00
C699   C     0.83024   0.16755   0.61633   0.00000  Uiso   1.00
C700   C     0.83642   0.16578   0.88367   0.00000  Uiso   1.00
C701   C     0.84694   0.21320   0.59367   0.00000  Uiso   1.00
C702   C     0.81973   0.12013   0.90633   0.00000  Uiso   1.00
C703   C     0.85032   0.21350   0.54650   0.00000  Uiso   1.00
C704   C     0.81635   0.11983   0.95350   0.00000  Uiso   1.00
C705   C     0.83273   0.16732   0.52356   0.00000  Uiso   1.00
C706   C     0.83393   0.16601   0.97644   0.00000  Uiso   1.00
C707   C     0.81376   0.12229   0.54767   0.00000  Uiso   1.00
C708   C     0.85291   0.21104   0.95233   0.00000  Uiso   1.00
C709   C     0.87062   0.25749   0.52110   0.00000  Uiso   1.00
C710   C     0.79604   0.07585   0.97890   0.00000  Uiso   1.00
C711   C     0.87110   0.25564   0.97502   0.00000  Uiso   1.00
C712   C     0.79556   0.07770   0.52498   0.00000  Uiso   1.00
H713   H     0.88650   0.28997   0.95678   0.00000  Uiso   1.00
H714   H     0.78016   0.04337   0.54322   0.00000  Uiso   1.00
C715   C     0.85665   0.31885   0.74926   0.00000  Uiso   1.00
C716   C     0.81002   0.01448   0.75074   0.00000  Uiso   1.00
N717   N     0.98344   0.15265   0.73783   0.00000  Uiso   1.00
N718   N     0.68322   0.18068   0.76217   0.00000  Uiso   1.00
C719   C     0.79445   0.07677   0.62007   0.00000  Uiso   1.00
N720   N     0.77905   0.04069   0.64066   0.00000  Uiso   1.00
C721   C     0.87222   0.25656   0.87993   0.00000  Uiso   1.00
N722   N     0.88762   0.29264   0.85934   0.00000  Uiso   1.00
C723   C     0.85766   0.25917   0.62029   0.00000  Uiso   1.00
N724   N     0.86585   0.29559   0.64187   0.00000  Uiso   1.00
C725   C     0.80901   0.07416   0.87972   0.00000  Uiso   1.00
N726   N     0.80083   0.03774   0.85813   0.00000  Uiso   1.00
C727   C     0.89369   0.30538   0.53959   0.00000  Uiso   1.00
N728   N     0.91238   0.01058   0.55373   0.00000  Uiso   1.00
C729   C     0.77297   0.02796   0.96041   0.00000  Uiso   1.00
N730   N     0.75427   0.32276   0.94627   0.00000  Uiso   1.00
O731   O     0.91153   0.00579   0.75648   0.00000  Uiso   1.00
C732   C     0.94414   0.00890   0.71521   0.00000  Uiso   1.00
H733   H     0.92244   0.02999   0.68960   0.00000  Uiso   1.00
H734   H     0.95498   0.30352   0.70250   0.00000  Uiso   1.00
H735   H     0.98487   0.03113   0.72046   0.00000  Uiso   1.00
O736   O     0.75514   0.32754   0.74353   0.00000  Uiso   1.00
C737   C     0.72253   0.32444   0.78480   0.00000  Uiso   1.00
H738   H     0.71171   0.02981   0.79752   0.00000  Uiso   1.00
H739   H     0.74423   0.30333   0.81041   0.00000  Uiso   1.00
H740   H     0.68180   0.30222   0.77955   0.00000  Uiso   1.00
C741   C     0.67115   0.14030   0.69516   0.00000  Uiso   1.00
N742   N     0.68681   0.12953   0.65907   0.00000  Uiso   1.00
C743   C     0.99552   0.19303   0.80484   0.00000  Uiso   1.00
N744   N     0.97985   0.20380   0.84093   0.00000  Uiso   1.00
O745   O     0.12975   0.57952   0.75298   0.00000  Uiso   1.00
O746   O     0.20358   0.42048   0.74701   0.00000  Uiso   1.00
O747   O     0.22613   0.57054   0.74518   0.00000  Uiso   1.00
O748   O     0.10720   0.42946   0.75481   0.00000  Uiso   1.00
C749   C     0.18166   0.59794   0.74831   0.00000  Uiso   1.00
C750   C     0.15167   0.40206   0.75169   0.00000  Uiso   1.00
O751   O     0.11847   0.50450   0.81997   0.00000  Uiso   1.00
O752   O     0.21486   0.49550   0.68002   0.00000  Uiso   1.00
O753   O     0.21485   0.49552   0.81217   0.00000  Uiso   1.00
O754   O     0.11848   0.50448   0.68782   0.00000  Uiso   1.00
C755   C     0.16769   0.50008   0.83606   0.00000  Uiso   1.00
C756   C     0.16564   0.49992   0.66394   0.00000  Uiso   1.00
Zn757  Zn    0.10231   0.50600   0.75521   0.00000  Uiso   1.00
Zn758  Zn    0.23102   0.49400   0.74479   0.00000  Uiso   1.00
C759   C     0.14653   0.45579   0.59426   0.00000  Uiso   1.00
C760   C     0.18680   0.54421   0.90574   0.00000  Uiso   1.00
C761   C     0.16358   0.50088   0.61633   0.00000  Uiso   1.00
C762   C     0.16976   0.49912   0.88367   0.00000  Uiso   1.00
C763   C     0.18027   0.54653   0.59367   0.00000  Uiso   1.00
C764   C     0.15306   0.45347   0.90633   0.00000  Uiso   1.00
C765   C     0.18365   0.54683   0.54650   0.00000  Uiso   1.00
C766   C     0.14968   0.45317   0.95350   0.00000  Uiso   1.00
C767   C     0.16606   0.50066   0.52356   0.00000  Uiso   1.00
C768   C     0.16727   0.49935   0.97644   0.00000  Uiso   1.00
C769   C     0.14709   0.45563   0.54767   0.00000  Uiso   1.00
C770   C     0.18624   0.54438   0.95233   0.00000  Uiso   1.00
C771   C     0.20395   0.59082   0.52110   0.00000  Uiso   1.00
C772   C     0.12937   0.40918   0.97890   0.00000  Uiso   1.00
C773   C     0.20443   0.58897   0.97502   0.00000  Uiso   1.00
C774   C     0.12889   0.41103   0.52498   0.00000  Uiso   1.00
H775   H     0.21983   0.62330   0.95678   0.00000  Uiso   1.00
H776   H     0.11349   0.37670   0.54322   0.00000  Uiso   1.00
C777   C     0.18998   0.65218   0.74926   0.00000  Uiso   1.00
C778   C     0.14335   0.34782   0.75074   0.00000  Uiso   1.00
N779   N     0.31678   0.48598   0.73783   0.00000  Uiso   1.00
N780   N     0.01656   0.51402   0.76217   0.00000  Uiso   1.00
C781   C     0.12778   0.41010   0.62007   0.00000  Uiso   1.00
N782   N     0.11238   0.37403   0.64066   0.00000  Uiso   1.00
C783   C     0.20555   0.58990   0.87993   0.00000  Uiso   1.00
N784   N     0.22096   0.62597   0.85934   0.00000  Uiso   1.00
C785   C     0.19099   0.59250   0.62029   0.00000  Uiso   1.00
N786   N     0.19919   0.62892   0.64187   0.00000  Uiso   1.00
C787   C     0.14235   0.40749   0.87972   0.00000  Uiso   1.00
N788   N     0.13416   0.37108   0.85813   0.00000  Uiso   1.00
C789   C     0.22702   0.63871   0.53959   0.00000  Uiso   1.00
N790   N     0.24572   0.34391   0.55373   0.00000  Uiso   1.00
C791   C     0.10630   0.36129   0.96041   0.00000  Uiso   1.00
N792   N     0.08760   0.65609   0.94627   0.00000  Uiso   1.00
O793   O     0.24486   0.33912   0.75648   0.00000  Uiso   1.00
C794   C     0.27747   0.34223   0.71521   0.00000  Uiso   1.00
H795   H     0.25578   0.36332   0.68960   0.00000  Uiso   1.00
H796   H     0.28831   0.63686   0.70250   0.00000  Uiso   1.00
H797   H     0.31820   0.36446   0.72046   0.00000  Uiso   1.00
O798   O     0.08847   0.66088   0.74353   0.00000  Uiso   1.00
C799   C     0.05586   0.65777   0.78480   0.00000  Uiso   1.00
H800   H     0.04504   0.36315   0.79752   0.00000  Uiso   1.00
H801   H     0.07756   0.63667   0.81041   0.00000  Uiso   1.00
H802   H     0.01513   0.63555   0.77955   0.00000  Uiso   1.00
C803   C     0.00449   0.47363   0.69516   0.00000  Uiso   1.00
N804   N     0.02015   0.46287   0.65907   0.00000  Uiso   1.00
C805   C     0.32885   0.52637   0.80484   0.00000  Uiso   1.00
N806   N     0.31319   0.53713   0.84093   0.00000  Uiso   1.00
O807   O     0.46308   0.57952   0.75298   0.00000  Uiso   1.00
O808   O     0.53692   0.42048   0.74701   0.00000  Uiso   1.00
O809   O     0.55946   0.57054   0.74518   0.00000  Uiso   1.00
O810   O     0.44054   0.42946   0.75481   0.00000  Uiso   1.00
C811   C     0.51499   0.59794   0.74831   0.00000  Uiso   1.00
C812   C     0.48501   0.40206   0.75169   0.00000  Uiso   1.00
O813   O     0.45181   0.50450   0.81997   0.00000  Uiso   1.00
O814   O     0.54819   0.49550   0.68002   0.00000  Uiso   1.00
O815   O     0.54819   0.49552   0.81217   0.00000  Uiso   1.00
O816   O     0.45181   0.50448   0.68782   0.00000  Uiso   1.00
C817   C     0.50102   0.50008   0.83606   0.00000  Uiso   1.00
C818   C     0.49898   0.49992   0.66394   0.00000  Uiso   1.00
Zn819  Zn    0.43565   0.50600   0.75521   0.00000  Uiso   1.00
Zn820  Zn    0.56435   0.49400   0.74479   0.00000  Uiso   1.00
C821   C     0.47986   0.45579   0.59426   0.00000  Uiso   1.00
C822   C     0.52014   0.54421   0.90574   0.00000  Uiso   1.00
C823   C     0.49691   0.50088   0.61633   0.00000  Uiso   1.00
C824   C     0.50309   0.49912   0.88367   0.00000  Uiso   1.00
C825   C     0.51361   0.54653   0.59367   0.00000  Uiso   1.00
C826   C     0.48639   0.45347   0.90633   0.00000  Uiso   1.00
C827   C     0.51698   0.54683   0.54650   0.00000  Uiso   1.00
C828   C     0.48301   0.45317   0.95350   0.00000  Uiso   1.00
C829   C     0.49939   0.50066   0.52356   0.00000  Uiso   1.00
C830   C     0.50060   0.49935   0.97644   0.00000  Uiso   1.00
C831   C     0.48042   0.45563   0.54767   0.00000  Uiso   1.00
C832   C     0.51957   0.54438   0.95233   0.00000  Uiso   1.00
C833   C     0.53729   0.59082   0.52110   0.00000  Uiso   1.00
C834   C     0.46271   0.40918   0.97890   0.00000  Uiso   1.00
C835   C     0.53777   0.58897   0.97502   0.00000  Uiso   1.00
C836   C     0.46223   0.41103   0.52498   0.00000  Uiso   1.00
H837   H     0.55316   0.62330   0.95678   0.00000  Uiso   1.00
H838   H     0.44683   0.37670   0.54322   0.00000  Uiso   1.00
C839   C     0.52331   0.65218   0.74926   0.00000  Uiso   1.00
C840   C     0.47669   0.34782   0.75074   0.00000  Uiso   1.00
N841   N     0.65011   0.48598   0.73783   0.00000  Uiso   1.00
N842   N     0.34989   0.51402   0.76217   0.00000  Uiso   1.00
C843   C     0.46112   0.41010   0.62007   0.00000  Uiso   1.00
N844   N     0.44572   0.37403   0.64066   0.00000  Uiso   1.00
C845   C     0.53889   0.58990   0.87993   0.00000  Uiso   1.00
N846   N     0.55429   0.62597   0.85934   0.00000  Uiso   1.00
C847   C     0.52433   0.59250   0.62029   0.00000  Uiso   1.00
N848   N     0.53252   0.62892   0.64187   0.00000  Uiso   1.00
C849   C     0.47568   0.40749   0.87972   0.00000  Uiso   1.00
N850   N     0.46749   0.37108   0.85813   0.00000  Uiso   1.00
C851   C     0.56035   0.63871   0.53959   0.00000  Uiso   1.00
N852   N     0.57905   0.34391   0.55373   0.00000  Uiso   1.00
C853   C     0.43964   0.36129   0.96041   0.00000  Uiso   1.00
N854   N     0.42094   0.65609   0.94627   0.00000  Uiso   1.00
O855   O     0.57820   0.33912   0.75648   0.00000  Uiso   1.00
C856   C     0.61081   0.34223   0.71521   0.00000  Uiso   1.00
H857   H     0.58911   0.36332   0.68960   0.00000  Uiso   1.00
H858   H     0.62164   0.63686   0.70250   0.00000  Uiso   1.00
H859   H     0.65153   0.36446   0.72046   0.00000  Uiso   1.00
O860   O     0.42180   0.66088   0.74353   0.00000  Uiso   1.00
C861   C     0.38920   0.65777   0.78480   0.00000  Uiso   1.00
H862   H     0.37838   0.36315   0.79752   0.00000  Uiso   1.00
H863   H     0.41089   0.63667   0.81041   0.00000  Uiso   1.00
H864   H     0.34846   0.63555   0.77955   0.00000  Uiso   1.00
C865   C     0.33782   0.47363   0.69516   0.00000  Uiso   1.00
N866   N     0.35348   0.46287   0.65907   0.00000  Uiso   1.00
C867   C     0.66218   0.52637   0.80484   0.00000  Uiso   1.00
N868   N     0.64652   0.53713   0.84093   0.00000  Uiso   1.00
O869   O     0.79642   0.57952   0.75298   0.00000  Uiso   1.00
O870   O     0.87025   0.42048   0.74701   0.00000  Uiso   1.00
O871   O     0.89280   0.57054   0.74518   0.00000  Uiso   1.00
O872   O     0.77387   0.42946   0.75481   0.00000  Uiso   1.00
C873   C     0.84833   0.59794   0.74831   0.00000  Uiso   1.00
C874   C     0.81834   0.40206   0.75169   0.00000  Uiso   1.00
O875   O     0.78514   0.50450   0.81997   0.00000  Uiso   1.00
O876   O     0.88153   0.49550   0.68002   0.00000  Uiso   1.00
O877   O     0.88152   0.49552   0.81217   0.00000  Uiso   1.00
O878   O     0.78515   0.50448   0.68782   0.00000  Uiso   1.00
C879   C     0.83436   0.50008   0.83606   0.00000  Uiso   1.00
C880   C     0.83231   0.49992   0.66394   0.00000  Uiso   1.00
Zn881  Zn    0.76898   0.50600   0.75521   0.00000  Uiso   1.00
Zn882  Zn    0.89769   0.49400   0.74479   0.00000  Uiso   1.00
C883   C     0.81320   0.45579   0.59426   0.00000  Uiso   1.00
C884   C     0.85347   0.54421   0.90574   0.00000  Uiso   1.00
C885   C     0.83024   0.50088   0.61633   0.00000  Uiso   1.00
C886   C     0.83642   0.49912   0.88367   0.00000  Uiso   1.00
C887   C     0.84694   0.54653   0.59367   0.00000  Uiso   1.00
C888   C     0.81973   0.45347   0.90633   0.00000  Uiso   1.00
C889   C     0.85032   0.54683   0.54650   0.00000  Uiso   1.00
C890   C     0.81635   0.45317   0.95350   0.00000  Uiso   1.00
C891   C     0.83273   0.50066   0.52356   0.00000  Uiso   1.00
C892   C     0.83393   0.49935   0.97644   0.00000  Uiso   1.00
C893   C     0.81376   0.45563   0.54767   0.00000  Uiso   1.00
C894   C     0.85291   0.54438   0.95233   0.00000  Uiso   1.00
C895   C     0.87062   0.59082   0.52110   0.00000  Uiso   1.00
C896   C     0.79604   0.40918   0.97890   0.00000  Uiso   1.00
C897   C     0.87110   0.58897   0.97502   0.00000  Uiso   1.00
C898   C     0.79556   0.41103   0.52498   0.00000  Uiso   1.00
H899   H     0.88650   0.62330   0.95678   0.00000  Uiso   1.00
H900   H     0.78016   0.37670   0.54322   0.00000  Uiso   1.00
C901   C     0.85665   0.65218   0.74926   0.00000  Uiso   1.00
C902   C     0.81002   0.34782   0.75074   0.00000  Uiso   1.00
N903   N     0.98344   0.48598   0.73783   0.00000  Uiso   1.00
N904   N     0.68322   0.51402   0.76217   0.00000  Uiso   1.00
C905   C     0.79445   0.41010   0.62007   0.00000  Uiso   1.00
N906   N     0.77905   0.37403   0.64066   0.00000  Uiso   1.00
C907   C     0.87222   0.58990   0.87993   0.00000  Uiso   1.00
N908   N     0.88762   0.62597   0.85934   0.00000  Uiso   1.00
C909   C     0.85766   0.59250   0.62029   0.00000  Uiso   1.00
N910   N     0.86585   0.62892   0.64187   0.00000  Uiso   1.00
C911   C     0.80901   0.40749   0.87972   0.00000  Uiso   1.00
N912   N     0.80083   0.37108   0.85813   0.00000  Uiso   1.00
C913   C     0.89369   0.63871   0.53959   0.00000  Uiso   1.00
N914   N     0.91238   0.34391   0.55373   0.00000  Uiso   1.00
C915   C     0.77297   0.36129   0.96041   0.00000  Uiso   1.00
N916   N     0.75427   0.65609   0.94627   0.00000  Uiso   1.00
O917   O     0.91153   0.33912   0.75648   0.00000  Uiso   1.00
C918   C     0.94414   0.34223   0.71521   0.00000  Uiso   1.00
H919   H     0.92244   0.36332   0.68960   0.00000  Uiso   1.00
H920   H     0.95498   0.63686   0.70250   0.00000  Uiso   1.00
H921   H     0.98487   0.36446   0.72046   0.00000  Uiso   1.00
O922   O     0.75514   0.66088   0.74353   0.00000  Uiso   1.00
C923   C     0.72253   0.65777   0.78480   0.00000  Uiso   1.00
H924   H     0.71171   0.36315   0.79752   0.00000  Uiso   1.00
H925   H     0.74423   0.63667   0.81041   0.00000  Uiso   1.00
H926   H     0.68180   0.63555   0.77955   0.00000  Uiso   1.00
C927   C     0.67115   0.47363   0.69516   0.00000  Uiso   1.00
N928   N     0.68681   0.46287   0.65907   0.00000  Uiso   1.00
C929   C     0.99552   0.52637   0.80484   0.00000  Uiso   1.00
N930   N     0.97985   0.53713   0.84093   0.00000  Uiso   1.00
O931   O     0.12975   0.91286   0.75298   0.00000  Uiso   1.00
O932   O     0.20358   0.75381   0.74701   0.00000  Uiso   1.00
O933   O     0.22613   0.90387   0.74518   0.00000  Uiso   1.00
O934   O     0.10720   0.76279   0.75481   0.00000  Uiso   1.00
C935   C     0.18166   0.93127   0.74831   0.00000  Uiso   1.00
C936   C     0.15167   0.73540   0.75169   0.00000  Uiso   1.00
O937   O     0.11847   0.83784   0.81997   0.00000  Uiso   1.00
O938   O     0.21486   0.82883   0.68002   0.00000  Uiso   1.00
O939   O     0.21485   0.82885   0.81217   0.00000  Uiso   1.00
O940   O     0.11848   0.83781   0.68782   0.00000  Uiso   1.00
C941   C     0.16769   0.83341   0.83606   0.00000  Uiso   1.00
C942   C     0.16564   0.83326   0.66394   0.00000  Uiso   1.00
Zn943  Zn    0.10231   0.83933   0.75521   0.00000  Uiso   1.00
Zn944  Zn    0.23102   0.82734   0.74479   0.00000  Uiso   1.00
C945   C     0.14653   0.78912   0.59426   0.00000  Uiso   1.00
C946   C     0.18680   0.87755   0.90574   0.00000  Uiso   1.00
C947   C     0.16358   0.83422   0.61633   0.00000  Uiso   1.00
C948   C     0.16976   0.83245   0.88367   0.00000  Uiso   1.00
C949   C     0.18027   0.87987   0.59367   0.00000  Uiso   1.00
C950   C     0.15306   0.78680   0.90633   0.00000  Uiso   1.00
C951   C     0.18365   0.88017   0.54650   0.00000  Uiso   1.00
C952   C     0.14968   0.78650   0.95350   0.00000  Uiso   1.00
C953   C     0.16606   0.83399   0.52356   0.00000  Uiso   1.00
C954   C     0.16727   0.83268   0.97644   0.00000  Uiso   1.00
C955   C     0.14709   0.78896   0.54767   0.00000  Uiso   1.00
C956   C     0.18624   0.87771   0.95233   0.00000  Uiso   1.00
C957   C     0.20395   0.92416   0.52110   0.00000  Uiso   1.00
C958   C     0.12937   0.74251   0.97890   0.00000  Uiso   1.00
C959   C     0.20443   0.92230   0.97502   0.00000  Uiso   1.00
C960   C     0.12889   0.74437   0.52498   0.00000  Uiso   1.00
H961   H     0.21983   0.95664   0.95678   0.00000  Uiso   1.00
H962   H     0.11349   0.71003   0.54322   0.00000  Uiso   1.00
C963   C     0.18998   0.98552   0.74926   0.00000  Uiso   1.00
C964   C     0.14335   0.68115   0.75074   0.00000  Uiso   1.00
N965   N     0.31678   0.81932   0.73783   0.00000  Uiso   1.00
N966   N     0.01656   0.84735   0.76217   0.00000  Uiso   1.00
C967   C     0.12778   0.74344   0.62007   0.00000  Uiso   1.00
N968   N     0.11238   0.70736   0.64066   0.00000  Uiso   1.00
C969   C     0.20555   0.92323   0.87993   0.00000  Uiso   1.00
N970   N     0.22096   0.95931   0.85934   0.00000  Uiso   1.00
C971   C     0.19099   0.92584   0.62029   0.00000  Uiso   1.00
N972   N     0.19919   0.96225   0.64187   0.00000  Uiso   1.00
C973   C     0.14235   0.74083   0.87972   0.00000  Uiso   1.00
N974   N     0.13416   0.70441   0.85813   0.00000  Uiso   1.00
C975   C     0.22702   0.97205   0.53959   0.00000  Uiso   1.00
N976   N     0.24572   0.67725   0.55373   0.00000  Uiso   1.00
C977   C     0.10630   0.69462   0.96041   0.00000  Uiso   1.00
N978   N     0.08760   0.98943   0.94627   0.00000  Uiso   1.00
O979   O     0.24486   0.67246   0.75648   0.00000  Uiso   1.00
C980   C     0.27747   0.67556   0.71521   0.00000  Uiso   1.00
H981   H     0.25578   0.69666   0.68960   0.00000  Uiso   1.00
H982   H     0.28831   0.97019   0.70250   0.00000  Uiso   1.00
H983   H     0.31820   0.69779   0.72046   0.00000  Uiso   1.00
O984   O     0.08847   0.99421   0.74353   0.00000  Uiso   1.00
C985   C     0.05586   0.99110   0.78480   0.00000  Uiso   1.00
H986   H     0.04504   0.69648   0.79752   0.00000  Uiso   1.00
H987   H     0.07756   0.97000   0.81041   0.00000  Uiso   1.00
H988   H     0.01513   0.96889   0.77955   0.00000  Uiso   1.00
C989   C     0.00449   0.80697   0.69516   0.00000  Uiso   1.00
N990   N     0.02015   0.79620   0.65907   0.00000  Uiso   1.00
C991   C     0.32885   0.85970   0.80484   0.00000  Uiso   1.00
N992   N     0.31319   0.87047   0.84093   0.00000  Uiso   1.00
O993   O     0.46308   0.91286   0.75298   0.00000  Uiso   1.00
O994   O     0.53692   0.75381   0.74701   0.00000  Uiso   1.00
O995   O     0.55946   0.90387   0.74518   0.00000  Uiso   1.00
O996   O     0.44054   0.76279   0.75481   0.00000  Uiso   1.00
C997   C     0.51499   0.93127   0.74831   0.00000  Uiso   1.00
C998   C     0.48501   0.73540   0.75169   0.00000  Uiso   1.00
O999   O     0.45181   0.83784   0.81997   0.00000  Uiso   1.00
O1000  O     0.54819   0.82883   0.68002   0.00000  Uiso   1.00
O1001  O     0.54819   0.82885   0.81217   0.00000  Uiso   1.00
O1002  O     0.45181   0.83781   0.68782   0.00000  Uiso   1.00
C1003  C     0.50102   0.83341   0.83606   0.00000  Uiso   1.00
C1004  C     0.49898   0.83326   0.66394   0.00000  Uiso   1.00
Zn1005 Zn    0.43565   0.83933   0.75521   0.00000  Uiso   1.00
Zn1006 Zn    0.56435   0.82734   0.74479   0.00000  Uiso   1.00
C1007  C     0.47986   0.78912   0.59426   0.00000  Uiso   1.00
C1008  C     0.52014   0.87755   0.90574   0.00000  Uiso   1.00
C1009  C     0.49691   0.83422   0.61633   0.00000  Uiso   1.00
C1010  C     0.50309   0.83245   0.88367   0.00000  Uiso   1.00
C1011  C     0.51361   0.87987   0.59367   0.00000  Uiso   1.00
C1012  C     0.48639   0.78680   0.90633   0.00000  Uiso   1.00
C1013  C     0.51698   0.88017   0.54650   0.00000  Uiso   1.00
C1014  C     0.48301   0.78650   0.95350   0.00000  Uiso   1.00
C1015  C     0.49939   0.83399   0.52356   0.00000  Uiso   1.00
C1016  C     0.50060   0.83268   0.97644   0.00000  Uiso   1.00
C1017  C     0.48042   0.78896   0.54767   0.00000  Uiso   1.00
C1018  C     0.51957   0.87771   0.95233   0.00000  Uiso   1.00
C1019  C     0.53729   0.92416   0.52110   0.00000  Uiso   1.00
C1020  C     0.46271   0.74251   0.97890   0.00000  Uiso   1.00
C1021  C     0.53777   0.92230   0.97502   0.00000  Uiso   1.00
C1022  C     0.46223   0.74437   0.52498   0.00000  Uiso   1.00
H1023  H     0.55316   0.95664   0.95678   0.00000  Uiso   1.00
H1024  H     0.44683   0.71003   0.54322   0.00000  Uiso   1.00
C1025  C     0.52331   0.98552   0.74926   0.00000  Uiso   1.00
C1026  C     0.47669   0.68115   0.75074   0.00000  Uiso   1.00
N1027  N     0.65011   0.81932   0.73783   0.00000  Uiso   1.00
N1028  N     0.34989   0.84735   0.76217   0.00000  Uiso   1.00
C1029  C     0.46112   0.74344   0.62007   0.00000  Uiso   1.00
N1030  N     0.44572   0.70736   0.64066   0.00000  Uiso   1.00
C1031  C     0.53889   0.92323   0.87993   0.00000  Uiso   1.00
N1032  N     0.55429   0.95931   0.85934   0.00000  Uiso   1.00
C1033  C     0.52433   0.92584   0.62029   0.00000  Uiso   1.00
N1034  N     0.53252   0.96225   0.64187   0.00000  Uiso   1.00
C1035  C     0.47568   0.74083   0.87972   0.00000  Uiso   1.00
N1036  N     0.46749   0.70441   0.85813   0.00000  Uiso   1.00
C1037  C     0.56035   0.97205   0.53959   0.00000  Uiso   1.00
N1038  N     0.57905   0.67725   0.55373   0.00000  Uiso   1.00
C1039  C     0.43964   0.69462   0.96041   0.00000  Uiso   1.00
N1040  N     0.42094   0.98943   0.94627   0.00000  Uiso   1.00
O1041  O     0.57820   0.67246   0.75648   0.00000  Uiso   1.00
C1042  C     0.61081   0.67556   0.71521   0.00000  Uiso   1.00
H1043  H     0.58911   0.69666   0.68960   0.00000  Uiso   1.00
H1044  H     0.62164   0.97019   0.70250   0.00000  Uiso   1.00
H1045  H     0.65153   0.69779   0.72046   0.00000  Uiso   1.00
O1046  O     0.42180   0.99421   0.74353   0.00000  Uiso   1.00
C1047  C     0.38920   0.99110   0.78480   0.00000  Uiso   1.00
H1048  H     0.37838   0.69648   0.79752   0.00000  Uiso   1.00
H1049  H     0.41089   0.97000   0.81041   0.00000  Uiso   1.00
H1050  H     0.34846   0.96889   0.77955   0.00000  Uiso   1.00
C1051  C     0.33782   0.80697   0.69516   0.00000  Uiso   1.00
N1052  N     0.35348   0.79620   0.65907   0.00000  Uiso   1.00
C1053  C     0.66218   0.85970   0.80484   0.00000  Uiso   1.00
N1054  N     0.64652   0.87047   0.84093   0.00000  Uiso   1.00
O1055  O     0.79642   0.91286   0.75298   0.00000  Uiso   1.00
O1056  O     0.87025   0.75381   0.74701   0.00000  Uiso   1.00
O1057  O     0.89280   0.90387   0.74518   0.00000  Uiso   1.00
O1058  O     0.77387   0.76279   0.75481   0.00000  Uiso   1.00
C1059  C     0.84833   0.93127   0.74831   0.00000  Uiso   1.00
C1060  C     0.81834   0.73540   0.75169   0.00000  Uiso   1.00
O1061  O     0.78514   0.83784   0.81997   0.00000  Uiso   1.00
O1062  O     0.88153   0.82883   0.68002   0.00000  Uiso   1.00
O1063  O     0.88152   0.82885   0.81217   0.00000  Uiso   1.00
O1064  O     0.78515   0.83781   0.68782   0.00000  Uiso   1.00
C1065  C     0.83436   0.83341   0.83606   0.00000  Uiso   1.00
C1066  C     0.83231   0.83326   0.66394   0.00000  Uiso   1.00
Zn1067 Zn    0.76898   0.83933   0.75521   0.00000  Uiso   1.00
Zn1068 Zn    0.89769   0.82734   0.74479   0.00000  Uiso   1.00
C1069  C     0.81320   0.78912   0.59426   0.00000  Uiso   1.00
C1070  C     0.85347   0.87755   0.90574   0.00000  Uiso   1.00
C1071  C     0.83024   0.83422   0.61633   0.00000  Uiso   1.00
C1072  C     0.83642   0.83245   0.88367   0.00000  Uiso   1.00
C1073  C     0.84694   0.87987   0.59367   0.00000  Uiso   1.00
C1074  C     0.81973   0.78680   0.90633   0.00000  Uiso   1.00
C1075  C     0.85032   0.88017   0.54650   0.00000  Uiso   1.00
C1076  C     0.81635   0.78650   0.95350   0.00000  Uiso   1.00
C1077  C     0.83273   0.83399   0.52356   0.00000  Uiso   1.00
C1078  C     0.83393   0.83268   0.97644   0.00000  Uiso   1.00
C1079  C     0.81376   0.78896   0.54767   0.00000  Uiso   1.00
C1080  C     0.85291   0.87771   0.95233   0.00000  Uiso   1.00
C1081  C     0.87062   0.92416   0.52110   0.00000  Uiso   1.00
C1082  C     0.79604   0.74251   0.97890   0.00000  Uiso   1.00
C1083  C     0.87110   0.92230   0.97502   0.00000  Uiso   1.00
C1084  C     0.79556   0.74437   0.52498   0.00000  Uiso   1.00
H1085  H     0.88650   0.95664   0.95678   0.00000  Uiso   1.00
H1086  H     0.78016   0.71003   0.54322   0.00000  Uiso   1.00
C1087  C     0.85665   0.98552   0.74926   0.00000  Uiso   1.00
C1088  C     0.81002   0.68115   0.75074   0.00000  Uiso   1.00
N1089  N     0.98344   0.81932   0.73783   0.00000  Uiso   1.00
N1090  N     0.68322   0.84735   0.76217   0.00000  Uiso   1.00
C1091  C     0.79445   0.74344   0.62007   0.00000  Uiso   1.00
N1092  N     0.77905   0.70736   0.64066   0.00000  Uiso   1.00
C1093  C     0.87222   0.92323   0.87993   0.00000  Uiso   1.00
N1094  N     0.88762   0.95931   0.85934   0.00000  Uiso   1.00
C1095  C     0.85766   0.92584   0.62029   0.00000  Uiso   1.00
N1096  N     0.86585   0.96225   0.64187   0.00000  Uiso   1.00
C1097  C     0.80901   0.74083   0.87972   0.00000  Uiso   1.00
N1098  N     0.80083   0.70441   0.85813   0.00000  Uiso   1.00
C1099  C     0.89369   0.97205   0.53959   0.00000  Uiso   1.00
N1100  N     0.91238   0.67725   0.55373   0.00000  Uiso   1.00
C1101  C     0.77297   0.69462   0.96041   0.00000  Uiso   1.00
N1102  N     0.75427   0.98943   0.94627   0.00000  Uiso   1.00
O1103  O     0.91153   0.67246   0.75648   0.00000  Uiso   1.00
C1104  C     0.94414   0.67556   0.71521   0.00000  Uiso   1.00
H1105  H     0.92244   0.69666   0.68960   0.00000  Uiso   1.00
H1106  H     0.95498   0.97019   0.70250   0.00000  Uiso   1.00
H1107  H     0.98487   0.69779   0.72046   0.00000  Uiso   1.00
O1108  O     0.75514   0.99421   0.74353   0.00000  Uiso   1.00
C1109  C     0.72253   0.99110   0.78480   0.00000  Uiso   1.00
H1110  H     0.71171   0.69648   0.79752   0.00000  Uiso   1.00
H1111  H     0.74423   0.97000   0.81041   0.00000  Uiso   1.00
H1112  H     0.68180   0.96889   0.77955   0.00000  Uiso   1.00
C1113  C     0.67115   0.80697   0.69516   0.00000  Uiso   1.00
N1114  N     0.68681   0.79620   0.65907   0.00000  Uiso   1.00
C1115  C     0.99552   0.85970   0.80484   0.00000  Uiso   1.00
N1116  N     0.97985   0.87047   0.84093   0.00000  Uiso   1.00
loop_
_geom_bond_atom_site_label_1
_geom_bond_atom_site_label_2
_geom_bond_distance
_geom_bond_site_symmetry_2
_ccdc_geom_bond_type
O1     C5      1.284   .     A
O1     Zn13    1.984   .     S
O2     C6      1.284   .     A
O2     Zn14    1.984   .     S
O3     Zn14    2.001   .     S
O3     C5      1.296   .     A
O4     C6      1.296   .     A
O4     Zn13    2.001   .     S
C5     C33     1.414   .     S
C6     C34     1.414   .     S
O7     C11     1.290   .     A
O7     Zn13    2.000   .     S
O8     C12     1.290   .     A
O8     Zn14    2.000   .     S
O9     Zn14    2.031   .     S
O9     C11     1.291   .     A
O10    C12     1.291   .     A
O10    Zn13    2.031   .     S
C11    C18     1.430   .     S
C12    C17     1.430   .     S
Zn13   N36     2.034   .     S
Zn14   N35     2.034   .     S
C15    C17     1.392   .     A
C15    C25     1.394   .     A
C15    C37     1.457   .     S
C16    C26     1.394   .     A
C16    C39     1.457   .     S
C16    C18     1.392   .     A
C17    C19     1.399   .     A
C18    C20     1.399   .     A
C19    C41     1.449   .     S
C19    C21     1.410   .     A
C20    C22     1.410   .     A
C20    C43     1.449   .     S
C21    C27     1.424   .     A
C21    C23     1.431   .     A
C22    C28     1.424   .     A
C22    C24     1.431   .     A
C23    C25     1.418   .     A
C23    C582    1.410   1_554 S
C24    C26     1.418   .     A
C24    C581    1.410   .     S
C25    C30     1.397   .     A
C26    C29     1.397   .     A
C27    C45     1.448   .     S
C27    C587    1.380   1_554 S
C28    C47     1.448   .     S
C28    C588    1.380   .     S
C29    H31     1.085   .     S
C29    C585    1.380   .     S
C30    H32     1.085   .     S
C30    C586    1.380   1_554 S
C33    C220    1.362   .     S
C33    O235    1.393   .     S
C34    C405    1.362   1_545 S
C34    O426    1.393   1_545 S
N35    N98     1.289   .     S
N35    C121    1.383   .     S
N36    N159    1.289   1_455 S
N36    C185    1.383   1_455 S
C37    N38     1.157   .     T
C39    N40     1.157   .     T
C41    N42     1.155   .     T
C43    N44     1.155   .     T
C45    N232    1.158   .     S
N46    C417    1.158   1_545 S
C47    N420    1.158   1_545 S
N48    C233    1.158   .     S
O49    C50     1.414   .     S
O49    C405    1.393   1_545 S
C50    H53     1.108   .     S
C50    H51     1.113   .     S
C50    H424    1.110   1_545 S
H52    C236    1.110   .     S
O54    C55     1.414   .     S
O54    C220    1.393   .     S
C55    H57     1.113   .     S
C55    H58     1.108   .     S
C55    H242    1.110   .     S
H56    C427    1.110   1_545 S
C59    N60     1.157   .     T
C59    N159    1.383   1_455 S
C61    N62     1.157   .     T
C61    N98     1.383   .     S
O63    C67     1.284   .     A
O63    Zn75    1.984   .     S
O64    C68     1.284   .     A
O64    Zn76    1.984   .     S
O65    Zn76    2.001   .     S
O65    C67     1.296   .     A
O66    C68     1.296   .     A
O66    Zn75    2.001   .     S
C67    C95     1.414   .     S
C68    C96     1.414   .     S
O69    C73     1.290   .     A
O69    Zn75    2.000   .     S
O70    C74     1.290   .     A
O70    Zn76    2.000   .     S
O71    Zn76    2.031   .     S
O71    C73     1.291   .     A
O72    C74     1.291   .     A
O72    Zn75    2.031   .     S
C73    C80     1.430   .     S
C74    C79     1.430   .     S
Zn75   N98     2.034   .     S
Zn76   N97     2.034   .     S
C77    C79     1.392   .     A
C77    C87     1.394   .     A
C77    C99     1.457   .     S
C78    C88     1.394   .     A
C78    C101    1.457   .     S
C78    C80     1.392   .     A
C79    C81     1.399   .     A
C80    C82     1.399   .     A
C81    C103    1.449   .     S
C81    C83     1.410   .     A
C82    C84     1.410   .     A
C82    C105    1.449   .     S
C83    C89     1.424   .     A
C83    C85     1.431   .     A
C84    C90     1.424   .     A
C84    C86     1.431   .     A
C85    C87     1.418   .     A
C85    C644    1.410   1_554 S
C86    C88     1.418   .     A
C86    C643    1.410   .     S
C87    C92     1.397   .     A
C88    C91     1.397   .     A
C89    C107    1.448   .     S
C89    C649    1.380   1_554 S
C90    C109    1.448   .     S
C90    C650    1.380   .     S
C91    H93     1.085   .     S
C91    C647    1.380   .     S
C92    H94     1.085   .     S
C92    C648    1.380   1_554 S
C95    C282    1.362   .     S
C95    O297    1.393   .     S
C96    C467    1.362   1_545 S
C96    O488    1.393   1_545 S
N97    N160    1.289   .     S
N97    C183    1.383   .     S
C99    N100    1.157   .     T
C101   N102    1.157   .     T
C103   N104    1.155   .     T
C105   N106    1.155   .     T
C107   N294    1.158   .     S
N108   C479    1.158   1_545 S
C109   N482    1.158   1_545 S
N110   C295    1.158   .     S
O111   C112    1.414   .     S
O111   C467    1.393   1_545 S
C112   H115    1.108   .     S
C112   H113    1.113   .     S
C112   H486    1.110   1_545 S
H114   C298    1.110   .     S
O116   C117    1.414   .     S
O116   C282    1.393   .     S
C117   H119    1.113   .     S
C117   H120    1.108   .     S
C117   H304    1.110   .     S
H118   C489    1.110   1_545 S
C121   N122    1.157   .     T
C123   N124    1.157   .     T
C123   N160    1.383   .     S
O125   C129    1.284   .     A
O125   Zn137   1.984   .     S
O126   C130    1.284   .     A
O126   Zn138   1.984   .     S
O127   Zn138   2.001   .     S
O127   C129    1.296   .     A
O128   C130    1.296   .     A
O128   Zn137   2.001   .     S
C129   C157    1.414   .     S
C130   C158    1.414   .     S
O131   C135    1.290   .     A
O131   Zn137   2.000   .     S
O132   C136    1.290   .     A
O132   Zn138   2.000   .     S
O133   Zn138   2.031   .     S
O133   C135    1.291   .     A
O134   C136    1.291   .     A
O134   Zn137   2.031   .     S
C135   C142    1.430   .     S
C136   C141    1.430   .     S
Zn137  N160    2.034   .     S
Zn138  N159    2.034   .     S
C139   C141    1.392   .     A
C139   C149    1.394   .     A
C139   C161    1.457   .     S
C140   C150    1.394   .     A
C140   C163    1.457   .     S
C140   C142    1.392   .     A
C141   C143    1.399   .     A
C142   C144    1.399   .     A
C143   C165    1.449   .     S
C143   C145    1.410   .     A
C144   C146    1.410   .     A
C144   C167    1.449   .     S
C145   C151    1.424   .     A
C145   C147    1.431   .     A
C146   C152    1.424   .     A
C146   C148    1.431   .     A
C147   C149    1.418   .     A
C147   C706    1.410   1_554 S
C148   C150    1.418   .     A
C148   C705    1.410   .     S
C149   C154    1.397   .     A
C150   C153    1.397   .     A
C151   C169    1.448   .     S
C151   C711    1.380   1_554 S
C152   C171    1.448   .     S
C152   C712    1.380   .     S
C153   H155    1.085   .     S
C153   C709    1.380   .     S
C154   H156    1.085   .     S
C154   C710    1.380   1_554 S
C157   C344    1.362   .     S
C157   O359    1.393   .     S
C158   C529    1.362   1_545 S
C158   O550    1.393   1_545 S
N159   N36     1.289   1_655 S
N159   C59     1.383   1_655 S
C161   N162    1.157   .     T
C163   N164    1.157   .     T
C165   N166    1.155   .     T
C167   N168    1.155   .     T
C169   N356    1.158   .     S
N170   C541    1.158   1_545 S
C171   N544    1.158   1_545 S
N172   C357    1.158   .     S
O173   C174    1.414   .     S
O173   C529    1.393   1_545 S
C174   H177    1.108   .     S
C174   H175    1.113   .     S
C174   H548    1.110   1_545 S
H176   C360    1.110   .     S
O178   C179    1.414   .     S
O178   C344    1.393   .     S
C179   H181    1.113   .     S
C179   H182    1.108   .     S
C179   H366    1.110   .     S
H180   C551    1.110   1_545 S
C183   N184    1.157   .     T
C185   N186    1.157   .     T
C185   N36     1.383   1_655 S
O187   C191    1.284   .     A
O187   Zn199   1.984   .     S
O188   C192    1.284   .     A
O188   Zn200   1.984   .     S
O189   Zn200   2.001   .     S
O189   C191    1.296   .     A
O190   C192    1.296   .     A
O190   Zn199   2.001   .     S
C191   C219    1.414   .     S
C192   C220    1.414   .     S
O193   C197    1.290   .     A
O193   Zn199   2.000   .     S
O194   C198    1.290   .     A
O194   Zn200   2.000   .     S
O195   Zn200   2.031   .     S
O195   C197    1.291   .     A
O196   C198    1.291   .     A
O196   Zn199   2.031   .     S
C197   C204    1.430   .     S
C198   C203    1.430   .     S
Zn199  N222    2.034   .     S
Zn200  N221    2.034   .     S
C201   C203    1.392   .     A
C201   C211    1.394   .     A
C201   C223    1.457   .     S
C202   C212    1.394   .     A
C202   C225    1.457   .     S
C202   C204    1.392   .     A
C203   C205    1.399   .     A
C204   C206    1.399   .     A
C205   C227    1.449   .     S
C205   C207    1.410   .     A
C206   C208    1.410   .     A
C206   C229    1.449   .     S
C207   C213    1.424   .     A
C207   C209    1.431   .     A
C208   C214    1.424   .     A
C208   C210    1.431   .     A
C209   C211    1.418   .     A
C209   C768    1.410   1_554 S
C210   C212    1.418   .     A
C210   C767    1.410   .     S
C211   C216    1.397   .     A
C212   C215    1.397   .     A
C213   C231    1.448   .     S
C213   C773    1.380   1_554 S
C214   C233    1.448   .     S
C214   C774    1.380   .     S
C215   H217    1.085   .     S
C215   C771    1.380   .     S
C216   H218    1.085   .     S
C216   C772    1.380   1_554 S
C219   C406    1.362   .     S
C219   O421    1.393   .     S
N221   N284    1.289   .     S
N221   C307    1.383   .     S
N222   N345    1.289   1_455 S
N222   C371    1.383   1_455 S
C223   N224    1.157   .     T
C225   N226    1.157   .     T
C227   N228    1.155   .     T
C229   N230    1.155   .     T
C231   N418    1.158   .     S
N234   C419    1.158   .     S
O235   C236    1.414   .     S
C236   H239    1.108   .     S
C236   H237    1.113   .     S
H238   C422    1.110   .     S
O240   C241    1.414   .     S
O240   C406    1.393   .     S
C241   H243    1.113   .     S
C241   H244    1.108   .     S
C241   H428    1.110   .     S
C245   N246    1.157   .     T
C245   N345    1.383   1_455 S
C247   N248    1.157   .     T
C247   N284    1.383   .     S
O249   C253    1.284   .     A
O249   Zn261   1.984   .     S
O250   C254    1.284   .     A
O250   Zn262   1.984   .     S
O251   Zn262   2.001   .     S
O251   C253    1.296   .     A
O252   C254    1.296   .     A
O252   Zn261   2.001   .     S
C253   C281    1.414   .     S
C254   C282    1.414   .     S
O255   C259    1.290   .     A
O255   Zn261   2.000   .     S
O256   C260    1.290   .     A
O256   Zn262   2.000   .     S
O257   Zn262   2.031   .     S
O257   C259    1.291   .     A
O258   C260    1.291   .     A
O258   Zn261   2.031   .     S
C259   C266    1.430   .     S
C260   C265    1.430   .     S
Zn261  N284    2.034   .     S
Zn262  N283    2.034   .     S
C263   C265    1.392   .     A
C263   C273    1.394   .     A
C263   C285    1.457   .     S
C264   C274    1.394   .     A
C264   C287    1.457   .     S
C264   C266    1.392   .     A
C265   C267    1.399   .     A
C266   C268    1.399   .     A
C267   C289    1.449   .     S
C267   C269    1.410   .     A
C268   C270    1.410   .     A
C268   C291    1.449   .     S
C269   C275    1.424   .     A
C269   C271    1.431   .     A
C270   C276    1.424   .     A
C270   C272    1.431   .     A
C271   C273    1.418   .     A
C271   C830    1.410   1_554 S
C272   C274    1.418   .     A
C272   C829    1.410   .     S
C273   C278    1.397   .     A
C274   C277    1.397   .     A
C275   C293    1.448   .     S
C275   C835    1.380   1_554 S
C276   C295    1.448   .     S
C276   C836    1.380   .     S
C277   H279    1.085   .     S
C277   C833    1.380   .     S
C278   H280    1.085   .     S
C278   C834    1.380   1_554 S
C281   C468    1.362   .     S
C281   O483    1.393   .     S
N283   N346    1.289   .     S
N283   C369    1.383   .     S
C285   N286    1.157   .     T
C287   N288    1.157   .     T
C289   N290    1.155   .     T
C291   N292    1.155   .     T
C293   N480    1.158   .     S
N296   C481    1.158   .     S
O297   C298    1.414   .     S
C298   H301    1.108   .     S
C298   H299    1.113   .     S
H300   C484    1.110   .     S
O302   C303    1.414   .     S
O302   C468    1.393   .     S
C303   H305    1.113   .     S
C303   H306    1.108   .     S
C303   H490    1.110   .     S
C307   N308    1.157   .     T
C309   N310    1.157   .     T
C309   N346    1.383   .     S
O311   C315    1.284   .     A
O311   Zn323   1.984   .     S
O312   C316    1.284   .     A
O312   Zn324   1.984   .     S
O313   Zn324   2.001   .     S
O313   C315    1.296   .     A
O314   C316    1.296   .     A
O314   Zn323   2.001   .     S
C315   C343    1.414   .     S
C316   C344    1.414   .     S
O317   C321    1.290   .     A
O317   Zn323   2.000   .     S
O318   C322    1.290   .     A
O318   Zn324   2.000   .     S
O319   Zn324   2.031   .     S
O319   C321    1.291   .     A
O320   C322    1.291   .     A
O320   Zn323   2.031   .     S
C321   C328    1.430   .     S
C322   C327    1.430   .     S
Zn323  N346    2.034   .     S
Zn324  N345    2.034   .     S
C325   C327    1.392   .     A
C325   C335    1.394   .     A
C325   C347    1.457   .     S
C326   C336    1.394   .     A
C326   C349    1.457   .     S
C326   C328    1.392   .     A
C327   C329    1.399   .     A
C328   C330    1.399   .     A
C329   C351    1.449   .     S
C329   C331    1.410   .     A
C330   C332    1.410   .     A
C330   C353    1.449   .     S
C331   C337    1.424   .     A
C331   C333    1.431   .     A
C332   C338    1.424   .     A
C332   C334    1.431   .     A
C333   C335    1.418   .     A
C333   C892    1.410   1_554 S
C334   C336    1.418   .     A
C334   C891    1.410   .     S
C335   C340    1.397   .     A
C336   C339    1.397   .     A
C337   C355    1.448   .     S
C337   C897    1.380   1_554 S
C338   C357    1.448   .     S
C338   C898    1.380   .     S
C339   H341    1.085   .     S
C339   C895    1.380   .     S
C340   H342    1.085   .     S
C340   C896    1.380   1_554 S
C343   C530    1.362   .     S
C343   O545    1.393   .     S
N345   N222    1.289   1_655 S
N345   C245    1.383   1_655 S
C347   N348    1.157   .     T
C349   N350    1.157   .     T
C351   N352    1.155   .     T
C353   N354    1.155   .     T
C355   N542    1.158   .     S
N358   C543    1.158   .     S
O359   C360    1.414   .     S
C360   H363    1.108   .     S
C360   H361    1.113   .     S
H362   C546    1.110   .     S
O364   C365    1.414   .     S
O364   C530    1.393   .     S
C365   H367    1.113   .     S
C365   H368    1.108   .     S
C365   H552    1.110   .     S
C369   N370    1.157   .     T
C371   N372    1.157   .     T
C371   N222    1.383   1_655 S
O373   C377    1.284   .     A
O373   Zn385   1.984   .     S
O374   C378    1.284   .     A
O374   Zn386   1.984   .     S
O375   Zn386   2.001   .     S
O375   C377    1.296   .     A
O376   C378    1.296   .     A
O376   Zn385   2.001   .     S
C377   C405    1.414   .     S
C378   C406    1.414   .     S
O379   C383    1.290   .     A
O379   Zn385   2.000   .     S
O380   C384    1.290   .     A
O380   Zn386   2.000   .     S
O381   Zn386   2.031   .     S
O381   C383    1.291   .     A
O382   C384    1.291   .     A
O382   Zn385   2.031   .     S
C383   C390    1.430   .     S
C384   C389    1.430   .     S
Zn385  N408    2.034   .     S
Zn386  N407    2.034   .     S
C387   C389    1.392   .     A
C387   C397    1.394   .     A
C387   C409    1.457   .     S
C388   C398    1.394   .     A
C388   C411    1.457   .     S
C388   C390    1.392   .     A
C389   C391    1.399   .     A
C390   C392    1.399   .     A
C391   C413    1.449   .     S
C391   C393    1.410   .     A
C392   C394    1.410   .     A
C392   C415    1.449   .     S
C393   C399    1.424   .     A
C393   C395    1.431   .     A
C394   C400    1.424   .     A
C394   C396    1.431   .     A
C395   C397    1.418   .     A
C395   C954    1.410   1_554 S
C396   C398    1.418   .     A
C396   C953    1.410   .     S
C397   C402    1.397   .     A
C398   C401    1.397   .     A
C399   C417    1.448   .     S
C399   C959    1.380   1_554 S
C400   C419    1.448   .     S
C400   C960    1.380   .     S
C401   H403    1.085   .     S
C401   C957    1.380   .     S
C402   H404    1.085   .     S
C402   C958    1.380   1_554 S
C405   C34     1.362   1_565 S
C405   O49     1.393   1_565 S
N407   N470    1.289   .     S
N407   C493    1.383   .     S
N408   N531    1.289   1_455 S
N408   C557    1.383   1_455 S
C409   N410    1.157   .     T
C411   N412    1.157   .     T
C413   N414    1.155   .     T
C415   N416    1.155   .     T
C417   N46     1.158   1_565 S
N420   C47     1.158   1_565 S
O421   C422    1.414   .     S
C422   H425    1.108   .     S
C422   H423    1.113   .     S
H424   C50     1.110   1_565 S
O426   C427    1.414   .     S
O426   C34     1.393   1_565 S
C427   H429    1.113   .     S
C427   H430    1.108   .     S
C427   H56     1.110   1_565 S
C431   N432    1.157   .     T
C431   N531    1.383   1_455 S
C433   N434    1.157   .     T
C433   N470    1.383   .     S
O435   C439    1.284   .     A
O435   Zn447   1.984   .     S
O436   C440    1.284   .     A
O436   Zn448   1.984   .     S
O437   Zn448   2.001   .     S
O437   C439    1.296   .     A
O438   C440    1.296   .     A
O438   Zn447   2.001   .     S
C439   C467    1.414   .     S
C440   C468    1.414   .     S
O441   C445    1.290   .     A
O441   Zn447   2.000   .     S
O442   C446    1.290   .     A
O442   Zn448   2.000   .     S
O443   Zn448   2.031   .     S
O443   C445    1.291   .     A
O444   C446    1.291   .     A
O444   Zn447   2.031   .     S
C445   C452    1.430   .     S
C446   C451    1.430   .     S
Zn447  N470    2.034   .     S
Zn448  N469    2.034   .     S
C449   C451    1.392   .     A
C449   C459    1.394   .     A
C449   C471    1.457   .     S
C450   C460    1.394   .     A
C450   C473    1.457   .     S
C450   C452    1.392   .     A
C451   C453    1.399   .     A
C452   C454    1.399   .     A
C453   C475    1.449   .     S
C453   C455    1.410   .     A
C454   C456    1.410   .     A
C454   C477    1.449   .     S
C455   C461    1.424   .     A
C455   C457    1.431   .     A
C456   C462    1.424   .     A
C456   C458    1.431   .     A
C457   C459    1.418   .     A
C457   C1016   1.410   1_554 S
C458   C460    1.418   .     A
C458   C1015   1.410   .     S
C459   C464    1.397   .     A
C460   C463    1.397   .     A
C461   C479    1.448   .     S
C461   C1021   1.380   1_554 S
C462   C481    1.448   .     S
C462   C1022   1.380   .     S
C463   H465    1.085   .     S
C463   C1019   1.380   .     S
C464   H466    1.085   .     S
C464   C1020   1.380   1_554 S
C467   C96     1.362   1_565 S
C467   O111    1.393   1_565 S
N469   N532    1.289   .     S
N469   C555    1.383   .     S
C471   N472    1.157   .     T
C473   N474    1.157   .     T
C475   N476    1.155   .     T
C477   N478    1.155   .     T
C479   N108    1.158   1_565 S
N482   C109    1.158   1_565 S
O483   C484    1.414   .     S
C484   H487    1.108   .     S
C484   H485    1.113   .     S
H486   C112    1.110   1_565 S
O488   C489    1.414   .     S
O488   C96     1.393   1_565 S
C489   H491    1.113   .     S
C489   H492    1.108   .     S
C489   H118    1.110   1_565 S
C493   N494    1.157   .     T
C495   N496    1.157   .     T
C495   N532    1.383   .     S
O497   C501    1.284   .     A
O497   Zn509   1.984   .     S
O498   C502    1.284   .     A
O498   Zn510   1.984   .     S
O499   Zn510   2.001   .     S
O499   C501    1.296   .     A
O500   C502    1.296   .     A
O500   Zn509   2.001   .     S
C501   C529    1.414   .     S
C502   C530    1.414   .     S
O503   C507    1.290   .     A
O503   Zn509   2.000   .     S
O504   C508    1.290   .     A
O504   Zn510   2.000   .     S
O505   Zn510   2.031   .     S
O505   C507    1.291   .     A
O506   C508    1.291   .     A
O506   Zn509   2.031   .     S
C507   C514    1.430   .     S
C508   C513    1.430   .     S
Zn509  N532    2.034   .     S
Zn510  N531    2.034   .     S
C511   C513    1.392   .     A
C511   C521    1.394   .     A
C511   C533    1.457   .     S
C512   C522    1.394   .     A
C512   C535    1.457   .     S
C512   C514    1.392   .     A
C513   C515    1.399   .     A
C514   C516    1.399   .     A
C515   C537    1.449   .     S
C515   C517    1.410   .     A
C516   C518    1.410   .     A
C516   C539    1.449   .     S
C517   C523    1.424   .     A
C517   C519    1.431   .     A
C518   C524    1.424   .     A
C518   C520    1.431   .     A
C519   C521    1.418   .     A
C519   C1078   1.410   1_554 S
C520   C522    1.418   .     A
C520   C1077   1.410   .     S
C521   C526    1.397   .     A
C522   C525    1.397   .     A
C523   C541    1.448   .     S
C523   C1083   1.380   1_554 S
C524   C543    1.448   .     S
C524   C1084   1.380   .     S
C525   H527    1.085   .     S
C525   C1081   1.380   .     S
C526   H528    1.085   .     S
C526   C1082   1.380   1_554 S
C529   C158    1.362   1_565 S
C529   O173    1.393   1_565 S
N531   N408    1.289   1_655 S
N531   C431    1.383   1_655 S
C533   N534    1.157   .     T
C535   N536    1.157   .     T
C537   N538    1.155   .     T
C539   N540    1.155   .     T
C541   N170    1.158   1_565 S
N544   C171    1.158   1_565 S
O545   C546    1.414   .     S
C546   H549    1.108   .     S
C546   H547    1.113   .     S
H548   C174    1.110   1_565 S
O550   C551    1.414   .     S
O550   C158    1.393   1_565 S
C551   H553    1.113   .     S
C551   H554    1.108   .     S
C551   H180    1.110   1_565 S
C555   N556    1.157   .     T
C557   N558    1.157   .     T
C557   N408    1.383   1_655 S
O559   C563    1.284   .     A
O559   Zn571   1.984   .     S
O560   C564    1.284   .     A
O560   Zn572   1.984   .     S
O561   Zn572   2.001   .     S
O561   C563    1.296   .     A
O562   C564    1.296   .     A
O562   Zn571   2.001   .     S
C563   C591    1.414   .     S
C564   C592    1.414   .     S
O565   C569    1.290   .     A
O565   Zn571   2.000   .     S
O566   C570    1.290   .     A
O566   Zn572   2.000   .     S
O567   Zn572   2.031   .     S
O567   C569    1.291   .     A
O568   C570    1.291   .     A
O568   Zn571   2.031   .     S
C569   C576    1.430   .     S
C570   C575    1.430   .     S
Zn571  N594    2.034   .     S
Zn572  N593    2.034   .     S
C573   C575    1.392   .     A
C573   C583    1.394   .     A
C573   C595    1.457   .     S
C574   C584    1.394   .     A
C574   C597    1.457   .     S
C574   C576    1.392   .     A
C575   C577    1.399   .     A
C576   C578    1.399   .     A
C577   C599    1.449   .     S
C577   C579    1.410   .     A
C578   C580    1.410   .     A
C578   C601    1.449   .     S
C579   C585    1.424   .     A
C579   C581    1.431   .     A
C580   C586    1.424   .     A
C580   C582    1.431   .     A
C581   C583    1.418   .     A
C582   C584    1.418   .     A
C582   C23     1.410   1_556 S
C583   C588    1.397   .     A
C584   C587    1.397   .     A
C585   C603    1.448   .     S
C586   C605    1.448   .     S
C586   C30     1.380   1_556 S
C587   H589    1.085   .     S
C587   C27     1.380   1_556 S
C588   H590    1.085   .     S
C591   C778    1.362   .     S
C591   O793    1.393   .     S
C592   C963    1.362   1_545 S
C592   O984    1.393   1_545 S
N593   N656    1.289   .     S
N593   C679    1.383   .     S
N594   N717    1.289   1_455 S
N594   C743    1.383   1_455 S
C595   N596    1.157   .     T
C597   N598    1.157   .     T
C599   N600    1.155   .     T
C601   N602    1.155   .     T
C603   N790    1.158   .     S
N604   C975    1.158   1_545 S
C605   N978    1.158   1_545 S
N606   C791    1.158   .     S
O607   C608    1.414   .     S
O607   C963    1.393   1_545 S
C608   H611    1.108   .     S
C608   H609    1.113   .     S
C608   H982    1.110   1_545 S
H610   C794    1.110   .     S
O612   C613    1.414   .     S
O612   C778    1.393   .     S
C613   H615    1.113   .     S
C613   H616    1.108   .     S
C613   H800    1.110   .     S
H614   C985    1.110   1_545 S
C617   N618    1.157   .     T
C617   N717    1.383   1_455 S
C619   N620    1.157   .     T
C619   N656    1.383   .     S
O621   C625    1.284   .     A
O621   Zn633   1.984   .     S
O622   C626    1.284   .     A
O622   Zn634   1.984   .     S
O623   Zn634   2.001   .     S
O623   C625    1.296   .     A
O624   C626    1.296   .     A
O624   Zn633   2.001   .     S
C625   C653    1.414   .     S
C626   C654    1.414   .     S
O627   C631    1.290   .     A
O627   Zn633   2.000   .     S
O628   C632    1.290   .     A
O628   Zn634   2.000   .     S
O629   Zn634   2.031   .     S
O629   C631    1.291   .     A
O630   C632    1.291   .     A
O630   Zn633   2.031   .     S
C631   C638    1.430   .     S
C632   C637    1.430   .     S
Zn633  N656    2.034   .     S
Zn634  N655    2.034   .     S
C635   C637    1.392   .     A
C635   C645    1.394   .     A
C635   C657    1.457   .     S
C636   C646    1.394   .     A
C636   C659    1.457   .     S
C636   C638    1.392   .     A
C637   C639    1.399   .     A
C638   C640    1.399   .     A
C639   C661    1.449   .     S
C639   C641    1.410   .     A
C640   C642    1.410   .     A
C640   C663    1.449   .     S
C641   C647    1.424   .     A
C641   C643    1.431   .     A
C642   C648    1.424   .     A
C642   C644    1.431   .     A
C643   C645    1.418   .     A
C644   C646    1.418   .     A
C644   C85     1.410   1_556 S
C645   C650    1.397   .     A
C646   C649    1.397   .     A
C647   C665    1.448   .     S
C648   C667    1.448   .     S
C648   C92     1.380   1_556 S
C649   H651    1.085   .     S
C649   C89     1.380   1_556 S
C650   H652    1.085   .     S
C653   C840    1.362   .     S
C653   O855    1.393   .     S
C654   C1025   1.362   1_545 S
C654   O1046   1.393   1_545 S
N655   N718    1.289   .     S
N655   C741    1.383   .     S
C657   N658    1.157   .     T
C659   N660    1.157   .     T
C661   N662    1.155   .     T
C663   N664    1.155   .     T
C665   N852    1.158   .     S
N666   C1037   1.158   1_545 S
C667   N1040   1.158   1_545 S
N668   C853    1.158   .     S
O669   C670    1.414   .     S
O669   C1025   1.393   1_545 S
C670   H673    1.108   .     S
C670   H671    1.113   .     S
C670   H1044   1.110   1_545 S
H672   C856    1.110   .     S
O674   C675    1.414   .     S
O674   C840    1.393   .     S
C675   H677    1.113   .     S
C675   H678    1.108   .     S
C675   H862    1.110   .     S
H676   C1047   1.110   1_545 S
C679   N680    1.157   .     T
C681   N682    1.157   .     T
C681   N718    1.383   .     S
O683   C687    1.284   .     A
O683   Zn695   1.984   .     S
O684   C688    1.284   .     A
O684   Zn696   1.984   .     S
O685   Zn696   2.001   .     S
O685   C687    1.296   .     A
O686   C688    1.296   .     A
O686   Zn695   2.001   .     S
C687   C715    1.414   .     S
C688   C716    1.414   .     S
O689   C693    1.290   .     A
O689   Zn695   2.000   .     S
O690   C694    1.290   .     A
O690   Zn696   2.000   .     S
O691   Zn696   2.031   .     S
O691   C693    1.291   .     A
O692   C694    1.291   .     A
O692   Zn695   2.031   .     S
C693   C700    1.430   .     S
C694   C699    1.430   .     S
Zn695  N718    2.034   .     S
Zn696  N717    2.034   .     S
C697   C699    1.392   .     A
C697   C707    1.394   .     A
C697   C719    1.457   .     S
C698   C708    1.394   .     A
C698   C721    1.457   .     S
C698   C700    1.392   .     A
C699   C701    1.399   .     A
C700   C702    1.399   .     A
C701   C723    1.449   .     S
C701   C703    1.410   .     A
C702   C704    1.410   .     A
C702   C725    1.449   .     S
C703   C709    1.424   .     A
C703   C705    1.431   .     A
C704   C710    1.424   .     A
C704   C706    1.431   .     A
C705   C707    1.418   .     A
C706   C708    1.418   .     A
C706   C147    1.410   1_556 S
C707   C712    1.397   .     A
C708   C711    1.397   .     A
C709   C727    1.448   .     S
C710   C729    1.448   .     S
C710   C154    1.380   1_556 S
C711   H713    1.085   .     S
C711   C151    1.380   1_556 S
C712   H714    1.085   .     S
C715   C902    1.362   .     S
C715   O917    1.393   .     S
C716   C1087   1.362   1_545 S
C716   O1108   1.393   1_545 S
N717   N594    1.289   1_655 S
N717   C617    1.383   1_655 S
C719   N720    1.157   .     T
C721   N722    1.157   .     T
C723   N724    1.155   .     T
C725   N726    1.155   .     T
C727   N914    1.158   .     S
N728   C1099   1.158   1_545 S
C729   N1102   1.158   1_545 S
N730   C915    1.158   .     S
O731   C732    1.414   .     S
O731   C1087   1.393   1_545 S
C732   H735    1.108   .     S
C732   H733    1.113   .     S
C732   H1106   1.110   1_545 S
H734   C918    1.110   .     S
O736   C737    1.414   .     S
O736   C902    1.393   .     S
C737   H739    1.113   .     S
C737   H740    1.108   .     S
C737   H924    1.110   .     S
H738   C1109   1.110   1_545 S
C741   N742    1.157   .     T
C743   N744    1.157   .     T
C743   N594    1.383   1_655 S
O745   C749    1.284   .     A
O745   Zn757   1.984   .     S
O746   C750    1.284   .     A
O746   Zn758   1.984   .     S
O747   Zn758   2.001   .     S
O747   C749    1.296   .     A
O748   C750    1.296   .     A
O748   Zn757   2.001   .     S
C749   C777    1.414   .     S
C750   C778    1.414   .     S
O751   C755    1.290   .     A
O751   Zn757   2.000   .     S
O752   C756    1.290   .     A
O752   Zn758   2.000   .     S
O753   Zn758   2.031   .     S
O753   C755    1.291   .     A
O754   C756    1.291   .     A
O754   Zn757   2.031   .     S
C755   C762    1.430   .     S
C756   C761    1.430   .     S
Zn757  N780    2.034   .     S
Zn758  N779    2.034   .     S
C759   C761    1.392   .     A
C759   C769    1.394   .     A
C759   C781    1.457   .     S
C760   C770    1.394   .     A
C760   C783    1.457   .     S
C760   C762    1.392   .     A
C761   C763    1.399   .     A
C762   C764    1.399   .     A
C763   C785    1.449   .     S
C763   C765    1.410   .     A
C764   C766    1.410   .     A
C764   C787    1.449   .     S
C765   C771    1.424   .     A
C765   C767    1.431   .     A
C766   C772    1.424   .     A
C766   C768    1.431   .     A
C767   C769    1.418   .     A
C768   C770    1.418   .     A
C768   C209    1.410   1_556 S
C769   C774    1.397   .     A
C770   C773    1.397   .     A
C771   C789    1.448   .     S
C772   C791    1.448   .     S
C772   C216    1.380   1_556 S
C773   H775    1.085   .     S
C773   C213    1.380   1_556 S
C774   H776    1.085   .     S
C777   C964    1.362   .     S
C777   O979    1.393   .     S
N779   N842    1.289   .     S
N779   C865    1.383   .     S
N780   N903    1.289   1_455 S
N780   C929    1.383   1_455 S
C781   N782    1.157   .     T
C783   N784    1.157   .     T
C785   N786    1.155   .     T
C787   N788    1.155   .     T
C789   N976    1.158   .     S
N792   C977    1.158   .     S
O793   C794    1.414   .     S
C794   H797    1.108   .     S
C794   H795    1.113   .     S
H796   C980    1.110   .     S
O798   C799    1.414   .     S
O798   C964    1.393   .     S
C799   H801    1.113   .     S
C799   H802    1.108   .     S
C799   H986    1.110   .     S
C803   N804    1.157   .     T
C803   N903    1.383   1_455 S
C805   N806    1.157   .     T
C805   N842    1.383   .     S
O807   C811    1.284   .     A
O807   Zn819   1.984   .     S
O808   C812    1.284   .     A
O808   Zn820   1.984   .     S
O809   Zn820   2.001   .     S
O809   C811    1.296   .     A
O810   C812    1.296   .     A
O810   Zn819   2.001   .     S
C811   C839    1.414   .     S
C812   C840    1.414   .     S
O813   C817    1.290   .     A
O813   Zn819   2.000   .     S
O814   C818    1.290   .     A
O814   Zn820   2.000   .     S
O815   Zn820   2.031   .     S
O815   C817    1.291   .     A
O816   C818    1.291   .     A
O816   Zn819   2.031   .     S
C817   C824    1.430   .     S
C818   C823    1.430   .     S
Zn819  N842    2.034   .     S
Zn820  N841    2.034   .     S
C821   C823    1.392   .     A
C821   C831    1.394   .     A
C821   C843    1.457   .     S
C822   C832    1.394   .     A
C822   C845    1.457   .     S
C822   C824    1.392   .     A
C823   C825    1.399   .     A
C824   C826    1.399   .     A
C825   C847    1.449   .     S
C825   C827    1.410   .     A
C826   C828    1.410   .     A
C826   C849    1.449   .     S
C827   C833    1.424   .     A
C827   C829    1.431   .     A
C828   C834    1.424   .     A
C828   C830    1.431   .     A
C829   C831    1.418   .     A
C830   C832    1.418   .     A
C830   C271    1.410   1_556 S
C831   C836    1.397   .     A
C832   C835    1.397   .     A
C833   C851    1.448   .     S
C834   C853    1.448   .     S
C834   C278    1.380   1_556 S
C835   H837    1.085   .     S
C835   C275    1.380   1_556 S
C836   H838    1.085   .     S
C839   C1026   1.362   .     S
C839   O1041   1.393   .     S
N841   N904    1.289   .     S
N841   C927    1.383   .     S
C843   N844    1.157   .     T
C845   N846    1.157   .     T
C847   N848    1.155   .     T
C849   N850    1.155   .     T
C851   N1038   1.158   .     S
N854   C1039   1.158   .     S
O855   C856    1.414   .     S
C856   H859    1.108   .     S
C856   H857    1.113   .     S
H858   C1042   1.110   .     S
O860   C861    1.414   .     S
O860   C1026   1.393   .     S
C861   H863    1.113   .     S
C861   H864    1.108   .     S
C861   H1048   1.110   .     S
C865   N866    1.157   .     T
C867   N868    1.157   .     T
C867   N904    1.383   .     S
O869   C873    1.284   .     A
O869   Zn881   1.984   .     S
O870   C874    1.284   .     A
O870   Zn882   1.984   .     S
O871   Zn882   2.001   .     S
O871   C873    1.296   .     A
O872   C874    1.296   .     A
O872   Zn881   2.001   .     S
C873   C901    1.414   .     S
C874   C902    1.414   .     S
O875   C879    1.290   .     A
O875   Zn881   2.000   .     S
O876   C880    1.290   .     A
O876   Zn882   2.000   .     S
O877   Zn882   2.031   .     S
O877   C879    1.291   .     A
O878   C880    1.291   .     A
O878   Zn881   2.031   .     S
C879   C886    1.430   .     S
C880   C885    1.430   .     S
Zn881  N904    2.034   .     S
Zn882  N903    2.034   .     S
C883   C885    1.392   .     A
C883   C893    1.394   .     A
C883   C905    1.457   .     S
C884   C894    1.394   .     A
C884   C907    1.457   .     S
C884   C886    1.392   .     A
C885   C887    1.399   .     A
C886   C888    1.399   .     A
C887   C909    1.449   .     S
C887   C889    1.410   .     A
C888   C890    1.410   .     A
C888   C911    1.449   .     S
C889   C895    1.424   .     A
C889   C891    1.431   .     A
C890   C896    1.424   .     A
C890   C892    1.431   .     A
C891   C893    1.418   .     A
C892   C894    1.418   .     A
C892   C333    1.410   1_556 S
C893   C898    1.397   .     A
C894   C897    1.397   .     A
C895   C913    1.448   .     S
C896   C915    1.448   .     S
C896   C340    1.380   1_556 S
C897   H899    1.085   .     S
C897   C337    1.380   1_556 S
C898   H900    1.085   .     S
C901   C1088   1.362   .     S
C901   O1103   1.393   .     S
N903   N780    1.289   1_655 S
N903   C803    1.383   1_655 S
C905   N906    1.157   .     T
C907   N908    1.157   .     T
C909   N910    1.155   .     T
C911   N912    1.155   .     T
C913   N1100   1.158   .     S
N916   C1101   1.158   .     S
O917   C918    1.414   .     S
C918   H921    1.108   .     S
C918   H919    1.113   .     S
H920   C1104   1.110   .     S
O922   C923    1.414   .     S
O922   C1088   1.393   .     S
C923   H925    1.113   .     S
C923   H926    1.108   .     S
C923   H1110   1.110   .     S
C927   N928    1.157   .     T
C929   N930    1.157   .     T
C929   N780    1.383   1_655 S
O931   C935    1.284   .     A
O931   Zn943   1.984   .     S
O932   C936    1.284   .     A
O932   Zn944   1.984   .     S
O933   Zn944   2.001   .     S
O933   C935    1.296   .     A
O934   C936    1.296   .     A
O934   Zn943   2.001   .     S
C935   C963    1.414   .     S
C936   C964    1.414   .     S
O937   C941    1.290   .     A
O937   Zn943   2.000   .     S
O938   C942    1.290   .     A
O938   Zn944   2.000   .     S
O939   Zn944   2.031   .     S
O939   C941    1.291   .     A
O940   C942    1.291   .     A
O940   Zn943   2.031   .     S
C941   C948    1.430   .     S
C942   C947    1.430   .     S
Zn943  N966    2.034   .     S
Zn944  N965    2.034   .     S
C945   C947    1.392   .     A
C945   C955    1.394   .     A
C945   C967    1.457   .     S
C946   C956    1.394   .     A
C946   C969    1.457   .     S
C946   C948    1.392   .     A
C947   C949    1.399   .     A
C948   C950    1.399   .     A
C949   C971    1.449   .     S
C949   C951    1.410   .     A
C950   C952    1.410   .     A
C950   C973    1.449   .     S
C951   C957    1.424   .     A
C951   C953    1.431   .     A
C952   C958    1.424   .     A
C952   C954    1.431   .     A
C953   C955    1.418   .     A
C954   C956    1.418   .     A
C954   C395    1.410   1_556 S
C955   C960    1.397   .     A
C956   C959    1.397   .     A
C957   C975    1.448   .     S
C958   C977    1.448   .     S
C958   C402    1.380   1_556 S
C959   H961    1.085   .     S
C959   C399    1.380   1_556 S
C960   H962    1.085   .     S
C963   C592    1.362   1_565 S
C963   O607    1.393   1_565 S
N965   N1028   1.289   .     S
N965   C1051   1.383   .     S
N966   N1089   1.289   1_455 S
N966   C1115   1.383   1_455 S
C967   N968    1.157   .     T
C969   N970    1.157   .     T
C971   N972    1.155   .     T
C973   N974    1.155   .     T
C975   N604    1.158   1_565 S
N978   C605    1.158   1_565 S
O979   C980    1.414   .     S
C980   H983    1.108   .     S
C980   H981    1.113   .     S
H982   C608    1.110   1_565 S
O984   C985    1.414   .     S
O984   C592    1.393   1_565 S
C985   H987    1.113   .     S
C985   H988    1.108   .     S
C985   H614    1.110   1_565 S
C989   N990    1.157   .     T
C989   N1089   1.383   1_455 S
C991   N992    1.157   .     T
C991   N1028   1.383   .     S
O993   C997    1.284   .     A
O993   Zn1005  1.984   .     S
O994   C998    1.284   .     A
O994   Zn1006  1.984   .     S
O995   Zn1006  2.001   .     S
O995   C997    1.296   .     A
O996   C998    1.296   .     A
O996   Zn1005  2.001   .     S
C997   C1025   1.414   .     S
C998   C1026   1.414   .     S
O999   C1003   1.290   .     A
O999   Zn1005  2.000   .     S
O1000  C1004   1.290   .     A
O1000  Zn1006  2.000   .     S
O1001  Zn1006  2.031   .     S
O1001  C1003   1.291   .     A
O1002  C1004   1.291   .     A
O1002  Zn1005  2.031   .     S
C1003  C1010   1.430   .     S
C1004  C1009   1.430   .     S
Zn1005 N1028   2.034   .     S
Zn1006 N1027   2.034   .     S
C1007  C1009   1.392   .     A
C1007  C1017   1.394   .     A
C1007  C1029   1.457   .     S
C1008  C1018   1.394   .     A
C1008  C1031   1.457   .     S
C1008  C1010   1.392   .     A
C1009  C1011   1.399   .     A
C1010  C1012   1.399   .     A
C1011  C1033   1.449   .     S
C1011  C1013   1.410   .     A
C1012  C1014   1.410   .     A
C1012  C1035   1.449   .     S
C1013  C1019   1.424   .     A
C1013  C1015   1.431   .     A
C1014  C1020   1.424   .     A
C1014  C1016   1.431   .     A
C1015  C1017   1.418   .     A
C1016  C1018   1.418   .     A
C1016  C457    1.410   1_556 S
C1017  C1022   1.397   .     A
C1018  C1021   1.397   .     A
C1019  C1037   1.448   .     S
C1020  C1039   1.448   .     S
C1020  C464    1.380   1_556 S
C1021  H1023   1.085   .     S
C1021  C461    1.380   1_556 S
C1022  H1024   1.085   .     S
C1025  C654    1.362   1_565 S
C1025  O669    1.393   1_565 S
N1027  N1090   1.289   .     S
N1027  C1113   1.383   .     S
C1029  N1030   1.157   .     T
C1031  N1032   1.157   .     T
C1033  N1034   1.155   .     T
C1035  N1036   1.155   .     T
C1037  N666    1.158   1_565 S
N1040  C667    1.158   1_565 S
O1041  C1042   1.414   .     S
C1042  H1045   1.108   .     S
C1042  H1043   1.113   .     S
H1044  C670    1.110   1_565 S
O1046  C1047   1.414   .     S
O1046  C654    1.393   1_565 S
C1047  H1049   1.113   .     S
C1047  H1050   1.108   .     S
C1047  H676    1.110   1_565 S
C1051  N1052   1.157   .     T
C1053  N1054   1.157   .     T
C1053  N1090   1.383   .     S
O1055  C1059   1.284   .     A
O1055  Zn1067  1.984   .     S
O1056  C1060   1.284   .     A
O1056  Zn1068  1.984   .     S
O1057  Zn1068  2.001   .     S
O1057  C1059   1.296   .     A
O1058  C1060   1.296   .     A
O1058  Zn1067  2.001   .     S
C1059  C1087   1.414   .     S
C1060  C1088   1.414   .     S
O1061  C1065   1.290   .     A
O1061  Zn1067  2.000   .     S
O1062  C1066   1.290   .     A
O1062  Zn1068  2.000   .     S
O1063  Zn1068  2.031   .     S
O1063  C1065   1.291   .     A
O1064  C1066   1.291   .     A
O1064  Zn1067  2.031   .     S
C1065  C1072   1.430   .     S
C1066  C1071   1.430   .     S
Zn1067 N1090   2.034   .     S
Zn1068 N1089   2.034   .     S
C1069  C1071   1.392   .     A
C1069  C1079   1.394   .     A
C1069  C1091   1.457   .     S
C1070  C1080   1.394   .     A
C1070  C1093   1.457   .     S
C1070  C1072   1.392   .     A
C1071  C1073   1.399   .     A
C1072  C1074   1.399   .     A
C1073  C1095   1.449   .     S
C1073  C1075   1.410   .     A
C1074  C1076   1.410   .     A
C1074  C1097   1.449   .     S
C1075  C1081   1.424   .     A
C1075  C1077   1.431   .     A
C1076  C1082   1.424   .     A
C1076  C1078   1.431   .     A
C1077  C1079   1.418   .     A
C1078  C1080   1.418   .     A
C1078  C519    1.410   1_556 S
C1079  C1084   1.397   .     A
C1080  C1083   1.397   .     A
C1081  C1099   1.448   .     S
C1082  C1101   1.448   .     S
C1082  C526    1.380   1_556 S
C1083  H1085   1.085   .     S
C1083  C523    1.380   1_556 S
C1084  H1086   1.085   .     S
C1087  C716    1.362   1_565 S
C1087  O731    1.393   1_565 S
N1089  N966    1.289   1_655 S
N1089  C989    1.383   1_655 S
C1091  N1092   1.157   .     T
C1093  N1094   1.157   .     T
C1095  N1096   1.155   .     T
C1097  N1098   1.155   .     T
C1099  N728    1.158   1_565 S
N1102  C729    1.158   1_565 S
O1103  C1104   1.414   .     S
C1104  H1107   1.108   .     S
C1104  H1105   1.113   .     S
H1106  C732    1.110   1_565 S
O1108  C1109   1.414   .     S
O1108  C716    1.393   1_565 S
C1109  H1111   1.113   .     S
C1109  H1112   1.108   .     S
C1109  H738    1.110   1_565 S
C1113  N1114   1.157   .     T
C1115  N1116   1.157   .     T
C1115  N966    1.383   1_655 S
