data_str_m2_o1_o2_pcu_sym.53
_audit_creation_date              2020-01-03
_audit_creation_method            'Materials Studio'
_symmetry_space_group_name_H-M    'P1'
_symmetry_Int_Tables_number       1
_symmetry_cell_setting            triclinic
loop_
_symmetry_equiv_pos_as_xyz
  x,y,z
_cell_length_a                    32.5477
_cell_length_b                    28.7756
_cell_length_c                    30.1390
_cell_angle_alpha                 90.0201
_cell_angle_beta                  92.4773
_cell_angle_gamma                 89.9880
loop_
_atom_site_label
_atom_site_type_symbol
_atom_site_fract_x
_atom_site_fract_y
_atom_site_fract_z
_atom_site_U_iso_or_equiv
_atom_site_adp_type
_atom_site_occupancy
O1     O     0.10655   0.20625   0.24999   0.00000  Uiso   1.00
O2     O     0.22679   0.12709   0.25001   0.00000  Uiso   1.00
O3     O     0.22679   0.20625   0.25001   0.00000  Uiso   1.00
O4     O     0.10655   0.12709   0.24999   0.00000  Uiso   1.00
N5     N     0.16667   0.28402   0.25000   0.00000  Uiso   1.00
N6     N     0.16667   0.04931   0.25000   0.00000  Uiso   1.00
C7     C     0.08742   0.16667   0.24999   0.00000  Uiso   1.00
C8     C     0.24587   0.16667   0.24894   0.00000  Uiso   1.00
O9     O     0.16666   0.20626   0.18573   0.00000  Uiso   1.00
O10    O     0.16667   0.12707   0.31427   0.00000  Uiso   1.00
O11    O     0.16667   0.20626   0.31427   0.00000  Uiso   1.00
O12    O     0.16666   0.12707   0.18573   0.00000  Uiso   1.00
C13    C     0.16644   0.16667   0.16523   0.00000  Uiso   1.00
C14    C     0.16153   0.16668   0.33452   0.00000  Uiso   1.00
Cu15   Cu    0.16667   0.21355   0.25000   0.00000  Uiso   1.00
Cu16   Cu    0.16667   0.11978   0.25000   0.00000  Uiso   1.00
C17    C     0.14315   0.02471   0.21924   0.00000  Uiso   1.00
C18    C     0.19087   0.30861   0.28016   0.00000  Uiso   1.00
C19    C     0.19091   0.02473   0.28012   0.00000  Uiso   1.00
C20    C     0.14314   0.30860   0.21924   0.00000  Uiso   1.00
C21    C     0.02123   0.12454   0.24837   0.00000  Uiso   1.00
C22    C     0.31202   0.20879   0.24700   0.00000  Uiso   1.00
C23    C     0.31202   0.12457   0.24661   0.00000  Uiso   1.00
C24    C     0.02123   0.20882   0.24874   0.00000  Uiso   1.00
C25    C     0.19702   0.17529   0.04670   0.00000  Uiso   1.00
C26    C     0.15298   0.12481   0.45283   0.00000  Uiso   1.00
C27    C     0.15033   0.20981   0.45200   0.00000  Uiso   1.00
C28    C     0.12321   0.15813   0.04768   0.00000  Uiso   1.00
C29    C     0.19960   0.17532   0.09301   0.00000  Uiso   1.00
C30    C     0.14888   0.12446   0.40620   0.00000  Uiso   1.00
C31    C     0.14729   0.20913   0.40571   0.00000  Uiso   1.00
C32    C     0.12543   0.15827   0.09440   0.00000  Uiso   1.00
C33    C     0.16387   0.16671   0.11697   0.00000  Uiso   1.00
C34    C     0.15208   0.16675   0.38241   0.00000  Uiso   1.00
H35    H     0.03707   0.09152   0.24921   0.00000  Uiso   1.00
H36    H     0.29619   0.24176   0.24535   0.00000  Uiso   1.00
H37    H     0.29620   0.09162   0.24462   0.00000  Uiso   1.00
H38    H     0.03707   0.24183   0.24986   0.00000  Uiso   1.00
C39    C     0.15873   0.16675   0.02418   0.00000  Uiso   1.00
C40    C     0.15481   0.16743   0.47545   0.00000  Uiso   1.00
C41    C     0.29049   0.16668   0.24730   0.00000  Uiso   1.00
C42    C     0.04276   0.16668   0.24934   0.00000  Uiso   1.00
N43    N     0.11926   0.04855   0.18549   0.00000  Uiso   1.00
O44    O     0.08020   0.05465   0.19061   0.00000  Uiso   1.00
O45    O     0.13293   0.05056   0.14560   0.00000  Uiso   1.00
N46    N     0.21788   0.28481   0.31114   0.00000  Uiso   1.00
O47    O     0.25634   0.28063   0.30206   0.00000  Uiso   1.00
O48    O     0.20833   0.28278   0.35251   0.00000  Uiso   1.00
N49    N     0.21823   0.04851   0.31082   0.00000  Uiso   1.00
O50    O     0.25658   0.05260   0.30126   0.00000  Uiso   1.00
O51    O     0.20917   0.05043   0.35234   0.00000  Uiso   1.00
N52    N     0.11906   0.28472   0.18566   0.00000  Uiso   1.00
O53    O     0.07999   0.27889   0.19095   0.00000  Uiso   1.00
O54    O     0.13262   0.28226   0.14575   0.00000  Uiso   1.00
O55    O     0.23290   0.18361   0.02494   0.00000  Uiso   1.00
H56    H     0.22811   0.18038   0.49249   0.00000  Uiso   1.00
O57    O     0.15417   0.08421   0.47750   0.00000  Uiso   1.00
H58    H     0.15569   0.05701   0.45752   0.00000  Uiso   1.00
O59    O     0.14781   0.25262   0.47270   0.00000  Uiso   1.00
H60    H     0.14854   0.24888   0.00532   0.00000  Uiso   1.00
O61    O     0.08664   0.15037   0.02356   0.00000  Uiso   1.00
H62    H     0.06409   0.14426   0.04375   0.00000  Uiso   1.00
O63    O     0.23795   0.18359   0.11323   0.00000  Uiso   1.00
H64    H     0.23702   0.18074   0.14583   0.00000  Uiso   1.00
O65    O     0.13934   0.08301   0.38524   0.00000  Uiso   1.00
H66    H     0.11955   0.08974   0.36014   0.00000  Uiso   1.00
O67    O     0.13744   0.25034   0.38450   0.00000  Uiso   1.00
H68    H     0.11837   0.24312   0.35890   0.00000  Uiso   1.00
O69    O     0.08952   0.15049   0.11641   0.00000  Uiso   1.00
H70    H     0.09381   0.15538   0.14871   0.00000  Uiso   1.00
O71    O     0.43988   0.20625   0.24999   0.00000  Uiso   1.00
O72    O     0.56012   0.12709   0.25001   0.00000  Uiso   1.00
O73    O     0.56012   0.20625   0.25001   0.00000  Uiso   1.00
O74    O     0.43988   0.12709   0.24999   0.00000  Uiso   1.00
N75    N     0.50000   0.28402   0.25000   0.00000  Uiso   1.00
N76    N     0.50000   0.04931   0.25000   0.00000  Uiso   1.00
C77    C     0.42075   0.16667   0.24999   0.00000  Uiso   1.00
C78    C     0.57921   0.16667   0.24894   0.00000  Uiso   1.00
O79    O     0.50000   0.20626   0.18573   0.00000  Uiso   1.00
O80    O     0.50000   0.12707   0.31427   0.00000  Uiso   1.00
O81    O     0.50000   0.20626   0.31427   0.00000  Uiso   1.00
O82    O     0.50000   0.12707   0.18573   0.00000  Uiso   1.00
C83    C     0.49977   0.16667   0.16523   0.00000  Uiso   1.00
C84    C     0.49486   0.16668   0.33452   0.00000  Uiso   1.00
Cu85   Cu    0.50000   0.21355   0.25000   0.00000  Uiso   1.00
Cu86   Cu    0.50000   0.11978   0.25000   0.00000  Uiso   1.00
C87    C     0.47648   0.02471   0.21924   0.00000  Uiso   1.00
C88    C     0.52420   0.30861   0.28016   0.00000  Uiso   1.00
C89    C     0.52425   0.02473   0.28012   0.00000  Uiso   1.00
C90    C     0.47647   0.30860   0.21924   0.00000  Uiso   1.00
C91    C     0.35456   0.12454   0.24837   0.00000  Uiso   1.00
C92    C     0.64535   0.20879   0.24700   0.00000  Uiso   1.00
C93    C     0.64535   0.12457   0.24661   0.00000  Uiso   1.00
C94    C     0.35456   0.20882   0.24874   0.00000  Uiso   1.00
C95    C     0.53036   0.17529   0.04670   0.00000  Uiso   1.00
C96    C     0.48632   0.12481   0.45283   0.00000  Uiso   1.00
C97    C     0.48366   0.20981   0.45200   0.00000  Uiso   1.00
C98    C     0.45654   0.15813   0.04768   0.00000  Uiso   1.00
C99    C     0.53293   0.17532   0.09301   0.00000  Uiso   1.00
C100   C     0.48221   0.12446   0.40620   0.00000  Uiso   1.00
C101   C     0.48062   0.20913   0.40571   0.00000  Uiso   1.00
C102   C     0.45876   0.15827   0.09440   0.00000  Uiso   1.00
C103   C     0.49720   0.16671   0.11697   0.00000  Uiso   1.00
C104   C     0.48542   0.16675   0.38241   0.00000  Uiso   1.00
H105   H     0.37041   0.09152   0.24921   0.00000  Uiso   1.00
H106   H     0.62952   0.24176   0.24535   0.00000  Uiso   1.00
H107   H     0.62953   0.09162   0.24462   0.00000  Uiso   1.00
H108   H     0.37041   0.24183   0.24986   0.00000  Uiso   1.00
C109   C     0.49206   0.16675   0.02418   0.00000  Uiso   1.00
C110   C     0.48815   0.16743   0.47545   0.00000  Uiso   1.00
C111   C     0.62382   0.16668   0.24730   0.00000  Uiso   1.00
C112   C     0.37609   0.16668   0.24934   0.00000  Uiso   1.00
N113   N     0.45260   0.04855   0.18549   0.00000  Uiso   1.00
O114   O     0.41354   0.05465   0.19061   0.00000  Uiso   1.00
O115   O     0.46626   0.05056   0.14560   0.00000  Uiso   1.00
N116   N     0.55121   0.28481   0.31114   0.00000  Uiso   1.00
O117   O     0.58968   0.28063   0.30206   0.00000  Uiso   1.00
O118   O     0.54167   0.28278   0.35251   0.00000  Uiso   1.00
N119   N     0.55156   0.04851   0.31082   0.00000  Uiso   1.00
O120   O     0.58992   0.05260   0.30126   0.00000  Uiso   1.00
O121   O     0.54250   0.05043   0.35234   0.00000  Uiso   1.00
N122   N     0.45239   0.28472   0.18566   0.00000  Uiso   1.00
O123   O     0.41332   0.27889   0.19095   0.00000  Uiso   1.00
O124   O     0.46595   0.28226   0.14575   0.00000  Uiso   1.00
O125   O     0.56624   0.18361   0.02494   0.00000  Uiso   1.00
H126   H     0.56144   0.18038   0.49249   0.00000  Uiso   1.00
O127   O     0.48751   0.08421   0.47750   0.00000  Uiso   1.00
H128   H     0.48902   0.05701   0.45752   0.00000  Uiso   1.00
O129   O     0.48115   0.25262   0.47270   0.00000  Uiso   1.00
H130   H     0.48187   0.24888   0.00532   0.00000  Uiso   1.00
O131   O     0.41997   0.15037   0.02356   0.00000  Uiso   1.00
H132   H     0.39743   0.14426   0.04375   0.00000  Uiso   1.00
O133   O     0.57128   0.18359   0.11323   0.00000  Uiso   1.00
H134   H     0.57035   0.18074   0.14583   0.00000  Uiso   1.00
O135   O     0.47267   0.08301   0.38524   0.00000  Uiso   1.00
H136   H     0.45288   0.08974   0.36014   0.00000  Uiso   1.00
O137   O     0.47077   0.25034   0.38450   0.00000  Uiso   1.00
H138   H     0.45170   0.24312   0.35890   0.00000  Uiso   1.00
O139   O     0.42286   0.15049   0.11641   0.00000  Uiso   1.00
H140   H     0.42714   0.15538   0.14871   0.00000  Uiso   1.00
O141   O     0.77321   0.20625   0.24999   0.00000  Uiso   1.00
O142   O     0.89345   0.12709   0.25001   0.00000  Uiso   1.00
O143   O     0.89345   0.20625   0.25001   0.00000  Uiso   1.00
O144   O     0.77321   0.12709   0.24999   0.00000  Uiso   1.00
N145   N     0.83333   0.28402   0.25000   0.00000  Uiso   1.00
N146   N     0.83333   0.04931   0.25000   0.00000  Uiso   1.00
C147   C     0.75409   0.16667   0.24999   0.00000  Uiso   1.00
C148   C     0.91254   0.16667   0.24894   0.00000  Uiso   1.00
O149   O     0.83333   0.20626   0.18573   0.00000  Uiso   1.00
O150   O     0.83334   0.12707   0.31427   0.00000  Uiso   1.00
O151   O     0.83334   0.20626   0.31427   0.00000  Uiso   1.00
O152   O     0.83333   0.12707   0.18573   0.00000  Uiso   1.00
C153   C     0.83311   0.16667   0.16523   0.00000  Uiso   1.00
C154   C     0.82820   0.16668   0.33452   0.00000  Uiso   1.00
Cu155  Cu    0.83333   0.21355   0.25000   0.00000  Uiso   1.00
Cu156  Cu    0.83333   0.11978   0.25000   0.00000  Uiso   1.00
C157   C     0.80982   0.02471   0.21924   0.00000  Uiso   1.00
C158   C     0.85753   0.30861   0.28016   0.00000  Uiso   1.00
C159   C     0.85758   0.02473   0.28012   0.00000  Uiso   1.00
C160   C     0.80981   0.30860   0.21924   0.00000  Uiso   1.00
C161   C     0.68789   0.12454   0.24837   0.00000  Uiso   1.00
C162   C     0.97868   0.20879   0.24700   0.00000  Uiso   1.00
C163   C     0.97869   0.12457   0.24661   0.00000  Uiso   1.00
C164   C     0.68789   0.20882   0.24874   0.00000  Uiso   1.00
C165   C     0.86369   0.17529   0.04670   0.00000  Uiso   1.00
C166   C     0.81965   0.12481   0.45283   0.00000  Uiso   1.00
C167   C     0.81699   0.20981   0.45200   0.00000  Uiso   1.00
C168   C     0.78987   0.15813   0.04768   0.00000  Uiso   1.00
C169   C     0.86627   0.17532   0.09301   0.00000  Uiso   1.00
C170   C     0.81555   0.12446   0.40620   0.00000  Uiso   1.00
C171   C     0.81395   0.20913   0.40571   0.00000  Uiso   1.00
C172   C     0.79210   0.15827   0.09440   0.00000  Uiso   1.00
C173   C     0.83053   0.16671   0.11697   0.00000  Uiso   1.00
C174   C     0.81875   0.16675   0.38241   0.00000  Uiso   1.00
H175   H     0.70374   0.09152   0.24921   0.00000  Uiso   1.00
H176   H     0.96285   0.24176   0.24535   0.00000  Uiso   1.00
H177   H     0.96286   0.09162   0.24462   0.00000  Uiso   1.00
H178   H     0.70374   0.24183   0.24986   0.00000  Uiso   1.00
C179   C     0.82540   0.16675   0.02418   0.00000  Uiso   1.00
C180   C     0.82148   0.16743   0.47545   0.00000  Uiso   1.00
C181   C     0.95715   0.16668   0.24730   0.00000  Uiso   1.00
C182   C     0.70942   0.16668   0.24934   0.00000  Uiso   1.00
N183   N     0.78593   0.04855   0.18549   0.00000  Uiso   1.00
O184   O     0.74687   0.05465   0.19061   0.00000  Uiso   1.00
O185   O     0.79960   0.05056   0.14560   0.00000  Uiso   1.00
N186   N     0.88455   0.28481   0.31114   0.00000  Uiso   1.00
O187   O     0.92301   0.28063   0.30206   0.00000  Uiso   1.00
O188   O     0.87500   0.28278   0.35251   0.00000  Uiso   1.00
N189   N     0.88490   0.04851   0.31082   0.00000  Uiso   1.00
O190   O     0.92325   0.05260   0.30126   0.00000  Uiso   1.00
O191   O     0.87584   0.05043   0.35234   0.00000  Uiso   1.00
N192   N     0.78572   0.28472   0.18566   0.00000  Uiso   1.00
O193   O     0.74665   0.27889   0.19095   0.00000  Uiso   1.00
O194   O     0.79928   0.28226   0.14575   0.00000  Uiso   1.00
O195   O     0.89957   0.18361   0.02494   0.00000  Uiso   1.00
H196   H     0.89478   0.18038   0.49249   0.00000  Uiso   1.00
O197   O     0.82084   0.08421   0.47750   0.00000  Uiso   1.00
H198   H     0.82235   0.05701   0.45752   0.00000  Uiso   1.00
O199   O     0.81448   0.25262   0.47270   0.00000  Uiso   1.00
H200   H     0.81520   0.24888   0.00532   0.00000  Uiso   1.00
O201   O     0.75330   0.15037   0.02356   0.00000  Uiso   1.00
H202   H     0.73076   0.14426   0.04375   0.00000  Uiso   1.00
O203   O     0.90462   0.18359   0.11323   0.00000  Uiso   1.00
H204   H     0.90369   0.18074   0.14583   0.00000  Uiso   1.00
O205   O     0.80600   0.08301   0.38524   0.00000  Uiso   1.00
H206   H     0.78622   0.08974   0.36014   0.00000  Uiso   1.00
O207   O     0.80411   0.25034   0.38450   0.00000  Uiso   1.00
H208   H     0.78504   0.24312   0.35890   0.00000  Uiso   1.00
O209   O     0.75619   0.15049   0.11641   0.00000  Uiso   1.00
H210   H     0.76048   0.15538   0.14871   0.00000  Uiso   1.00
O211   O     0.10655   0.53958   0.24999   0.00000  Uiso   1.00
O212   O     0.22679   0.46042   0.25001   0.00000  Uiso   1.00
O213   O     0.22679   0.53958   0.25001   0.00000  Uiso   1.00
O214   O     0.10655   0.46042   0.24999   0.00000  Uiso   1.00
N215   N     0.16667   0.61736   0.25000   0.00000  Uiso   1.00
N216   N     0.16667   0.38264   0.25000   0.00000  Uiso   1.00
C217   C     0.08742   0.50000   0.24999   0.00000  Uiso   1.00
C218   C     0.24587   0.50000   0.24894   0.00000  Uiso   1.00
O219   O     0.16666   0.53959   0.18573   0.00000  Uiso   1.00
O220   O     0.16667   0.46041   0.31427   0.00000  Uiso   1.00
O221   O     0.16667   0.53959   0.31427   0.00000  Uiso   1.00
O222   O     0.16666   0.46041   0.18573   0.00000  Uiso   1.00
C223   C     0.16644   0.50000   0.16523   0.00000  Uiso   1.00
C224   C     0.16153   0.50001   0.33452   0.00000  Uiso   1.00
Cu225  Cu    0.16667   0.54689   0.25000   0.00000  Uiso   1.00
Cu226  Cu    0.16667   0.45311   0.25000   0.00000  Uiso   1.00
C227   C     0.14315   0.35804   0.21924   0.00000  Uiso   1.00
C228   C     0.19087   0.64194   0.28016   0.00000  Uiso   1.00
C229   C     0.19091   0.35806   0.28012   0.00000  Uiso   1.00
C230   C     0.14314   0.64193   0.21924   0.00000  Uiso   1.00
C231   C     0.02123   0.45787   0.24837   0.00000  Uiso   1.00
C232   C     0.31202   0.54213   0.24700   0.00000  Uiso   1.00
C233   C     0.31202   0.45791   0.24661   0.00000  Uiso   1.00
C234   C     0.02123   0.54215   0.24874   0.00000  Uiso   1.00
C235   C     0.19702   0.50862   0.04670   0.00000  Uiso   1.00
C236   C     0.15298   0.45815   0.45283   0.00000  Uiso   1.00
C237   C     0.15033   0.54314   0.45200   0.00000  Uiso   1.00
C238   C     0.12321   0.49146   0.04768   0.00000  Uiso   1.00
C239   C     0.19960   0.50865   0.09301   0.00000  Uiso   1.00
C240   C     0.14888   0.45780   0.40620   0.00000  Uiso   1.00
C241   C     0.14729   0.54246   0.40571   0.00000  Uiso   1.00
C242   C     0.12543   0.49161   0.09440   0.00000  Uiso   1.00
C243   C     0.16387   0.50004   0.11697   0.00000  Uiso   1.00
C244   C     0.15208   0.50008   0.38241   0.00000  Uiso   1.00
H245   H     0.03707   0.42485   0.24921   0.00000  Uiso   1.00
H246   H     0.29619   0.57509   0.24535   0.00000  Uiso   1.00
H247   H     0.29620   0.42496   0.24462   0.00000  Uiso   1.00
H248   H     0.03707   0.57517   0.24986   0.00000  Uiso   1.00
C249   C     0.15873   0.50009   0.02418   0.00000  Uiso   1.00
C250   C     0.15481   0.50077   0.47545   0.00000  Uiso   1.00
C251   C     0.29049   0.50001   0.24730   0.00000  Uiso   1.00
C252   C     0.04276   0.50001   0.24934   0.00000  Uiso   1.00
N253   N     0.11926   0.38188   0.18549   0.00000  Uiso   1.00
O254   O     0.08020   0.38799   0.19061   0.00000  Uiso   1.00
O255   O     0.13293   0.38390   0.14560   0.00000  Uiso   1.00
N256   N     0.21788   0.61814   0.31114   0.00000  Uiso   1.00
O257   O     0.25634   0.61396   0.30206   0.00000  Uiso   1.00
O258   O     0.20833   0.61612   0.35251   0.00000  Uiso   1.00
N259   N     0.21823   0.38184   0.31082   0.00000  Uiso   1.00
O260   O     0.25658   0.38593   0.30126   0.00000  Uiso   1.00
O261   O     0.20917   0.38376   0.35234   0.00000  Uiso   1.00
N262   N     0.11906   0.61805   0.18566   0.00000  Uiso   1.00
O263   O     0.07999   0.61222   0.19095   0.00000  Uiso   1.00
O264   O     0.13262   0.61559   0.14575   0.00000  Uiso   1.00
O265   O     0.23290   0.51694   0.02494   0.00000  Uiso   1.00
H266   H     0.22811   0.51372   0.49249   0.00000  Uiso   1.00
O267   O     0.15417   0.41754   0.47750   0.00000  Uiso   1.00
H268   H     0.15569   0.39034   0.45752   0.00000  Uiso   1.00
O269   O     0.14781   0.58595   0.47270   0.00000  Uiso   1.00
H270   H     0.14854   0.58221   0.00532   0.00000  Uiso   1.00
O271   O     0.08664   0.48370   0.02356   0.00000  Uiso   1.00
H272   H     0.06409   0.47759   0.04375   0.00000  Uiso   1.00
O273   O     0.23795   0.51692   0.11323   0.00000  Uiso   1.00
H274   H     0.23702   0.51407   0.14583   0.00000  Uiso   1.00
O275   O     0.13934   0.41635   0.38524   0.00000  Uiso   1.00
H276   H     0.11955   0.42307   0.36014   0.00000  Uiso   1.00
O277   O     0.13744   0.58367   0.38450   0.00000  Uiso   1.00
H278   H     0.11837   0.57645   0.35890   0.00000  Uiso   1.00
O279   O     0.08952   0.48382   0.11641   0.00000  Uiso   1.00
H280   H     0.09381   0.48872   0.14871   0.00000  Uiso   1.00
O281   O     0.43988   0.53958   0.24999   0.00000  Uiso   1.00
O282   O     0.56012   0.46042   0.25001   0.00000  Uiso   1.00
O283   O     0.56012   0.53958   0.25001   0.00000  Uiso   1.00
O284   O     0.43988   0.46042   0.24999   0.00000  Uiso   1.00
N285   N     0.50000   0.61736   0.25000   0.00000  Uiso   1.00
N286   N     0.50000   0.38264   0.25000   0.00000  Uiso   1.00
C287   C     0.42075   0.50000   0.24999   0.00000  Uiso   1.00
C288   C     0.57921   0.50000   0.24894   0.00000  Uiso   1.00
O289   O     0.50000   0.53959   0.18573   0.00000  Uiso   1.00
O290   O     0.50000   0.46041   0.31427   0.00000  Uiso   1.00
O291   O     0.50000   0.53959   0.31427   0.00000  Uiso   1.00
O292   O     0.50000   0.46041   0.18573   0.00000  Uiso   1.00
C293   C     0.49977   0.50000   0.16523   0.00000  Uiso   1.00
C294   C     0.49486   0.50001   0.33452   0.00000  Uiso   1.00
Cu295  Cu    0.50000   0.54689   0.25000   0.00000  Uiso   1.00
Cu296  Cu    0.50000   0.45311   0.25000   0.00000  Uiso   1.00
C297   C     0.47648   0.35804   0.21924   0.00000  Uiso   1.00
C298   C     0.52420   0.64194   0.28016   0.00000  Uiso   1.00
C299   C     0.52425   0.35806   0.28012   0.00000  Uiso   1.00
C300   C     0.47647   0.64193   0.21924   0.00000  Uiso   1.00
C301   C     0.35456   0.45787   0.24837   0.00000  Uiso   1.00
C302   C     0.64535   0.54213   0.24700   0.00000  Uiso   1.00
C303   C     0.64535   0.45791   0.24661   0.00000  Uiso   1.00
C304   C     0.35456   0.54215   0.24874   0.00000  Uiso   1.00
C305   C     0.53036   0.50862   0.04670   0.00000  Uiso   1.00
C306   C     0.48632   0.45815   0.45283   0.00000  Uiso   1.00
C307   C     0.48366   0.54314   0.45200   0.00000  Uiso   1.00
C308   C     0.45654   0.49146   0.04768   0.00000  Uiso   1.00
C309   C     0.53293   0.50865   0.09301   0.00000  Uiso   1.00
C310   C     0.48221   0.45780   0.40620   0.00000  Uiso   1.00
C311   C     0.48062   0.54246   0.40571   0.00000  Uiso   1.00
C312   C     0.45876   0.49161   0.09440   0.00000  Uiso   1.00
C313   C     0.49720   0.50004   0.11697   0.00000  Uiso   1.00
C314   C     0.48542   0.50008   0.38241   0.00000  Uiso   1.00
H315   H     0.37041   0.42485   0.24921   0.00000  Uiso   1.00
H316   H     0.62952   0.57509   0.24535   0.00000  Uiso   1.00
H317   H     0.62953   0.42496   0.24462   0.00000  Uiso   1.00
H318   H     0.37041   0.57517   0.24986   0.00000  Uiso   1.00
C319   C     0.49206   0.50009   0.02418   0.00000  Uiso   1.00
C320   C     0.48815   0.50077   0.47545   0.00000  Uiso   1.00
C321   C     0.62382   0.50001   0.24730   0.00000  Uiso   1.00
C322   C     0.37609   0.50001   0.24934   0.00000  Uiso   1.00
N323   N     0.45260   0.38188   0.18549   0.00000  Uiso   1.00
O324   O     0.41354   0.38799   0.19061   0.00000  Uiso   1.00
O325   O     0.46626   0.38390   0.14560   0.00000  Uiso   1.00
N326   N     0.55121   0.61814   0.31114   0.00000  Uiso   1.00
O327   O     0.58968   0.61396   0.30206   0.00000  Uiso   1.00
O328   O     0.54167   0.61612   0.35251   0.00000  Uiso   1.00
N329   N     0.55156   0.38184   0.31082   0.00000  Uiso   1.00
O330   O     0.58992   0.38593   0.30126   0.00000  Uiso   1.00
O331   O     0.54250   0.38376   0.35234   0.00000  Uiso   1.00
N332   N     0.45239   0.61805   0.18566   0.00000  Uiso   1.00
O333   O     0.41332   0.61222   0.19095   0.00000  Uiso   1.00
O334   O     0.46595   0.61559   0.14575   0.00000  Uiso   1.00
O335   O     0.56624   0.51694   0.02494   0.00000  Uiso   1.00
H336   H     0.56144   0.51372   0.49249   0.00000  Uiso   1.00
O337   O     0.48751   0.41754   0.47750   0.00000  Uiso   1.00
H338   H     0.48902   0.39034   0.45752   0.00000  Uiso   1.00
O339   O     0.48115   0.58595   0.47270   0.00000  Uiso   1.00
H340   H     0.48187   0.58221   0.00532   0.00000  Uiso   1.00
O341   O     0.41997   0.48370   0.02356   0.00000  Uiso   1.00
H342   H     0.39743   0.47759   0.04375   0.00000  Uiso   1.00
O343   O     0.57128   0.51692   0.11323   0.00000  Uiso   1.00
H344   H     0.57035   0.51407   0.14583   0.00000  Uiso   1.00
O345   O     0.47267   0.41635   0.38524   0.00000  Uiso   1.00
H346   H     0.45288   0.42307   0.36014   0.00000  Uiso   1.00
O347   O     0.47077   0.58367   0.38450   0.00000  Uiso   1.00
H348   H     0.45170   0.57645   0.35890   0.00000  Uiso   1.00
O349   O     0.42286   0.48382   0.11641   0.00000  Uiso   1.00
H350   H     0.42714   0.48872   0.14871   0.00000  Uiso   1.00
O351   O     0.77321   0.53958   0.24999   0.00000  Uiso   1.00
O352   O     0.89345   0.46042   0.25001   0.00000  Uiso   1.00
O353   O     0.89345   0.53958   0.25001   0.00000  Uiso   1.00
O354   O     0.77321   0.46042   0.24999   0.00000  Uiso   1.00
N355   N     0.83333   0.61736   0.25000   0.00000  Uiso   1.00
N356   N     0.83333   0.38264   0.25000   0.00000  Uiso   1.00
C357   C     0.75409   0.50000   0.24999   0.00000  Uiso   1.00
C358   C     0.91254   0.50000   0.24894   0.00000  Uiso   1.00
O359   O     0.83333   0.53959   0.18573   0.00000  Uiso   1.00
O360   O     0.83334   0.46041   0.31427   0.00000  Uiso   1.00
O361   O     0.83334   0.53959   0.31427   0.00000  Uiso   1.00
O362   O     0.83333   0.46041   0.18573   0.00000  Uiso   1.00
C363   C     0.83311   0.50000   0.16523   0.00000  Uiso   1.00
C364   C     0.82820   0.50001   0.33452   0.00000  Uiso   1.00
Cu365  Cu    0.83333   0.54689   0.25000   0.00000  Uiso   1.00
Cu366  Cu    0.83333   0.45311   0.25000   0.00000  Uiso   1.00
C367   C     0.80982   0.35804   0.21924   0.00000  Uiso   1.00
C368   C     0.85753   0.64194   0.28016   0.00000  Uiso   1.00
C369   C     0.85758   0.35806   0.28012   0.00000  Uiso   1.00
C370   C     0.80981   0.64193   0.21924   0.00000  Uiso   1.00
C371   C     0.68789   0.45787   0.24837   0.00000  Uiso   1.00
C372   C     0.97868   0.54213   0.24700   0.00000  Uiso   1.00
C373   C     0.97869   0.45791   0.24661   0.00000  Uiso   1.00
C374   C     0.68789   0.54215   0.24874   0.00000  Uiso   1.00
C375   C     0.86369   0.50862   0.04670   0.00000  Uiso   1.00
C376   C     0.81965   0.45815   0.45283   0.00000  Uiso   1.00
C377   C     0.81699   0.54314   0.45200   0.00000  Uiso   1.00
C378   C     0.78987   0.49146   0.04768   0.00000  Uiso   1.00
C379   C     0.86627   0.50865   0.09301   0.00000  Uiso   1.00
C380   C     0.81555   0.45780   0.40620   0.00000  Uiso   1.00
C381   C     0.81395   0.54246   0.40571   0.00000  Uiso   1.00
C382   C     0.79210   0.49161   0.09440   0.00000  Uiso   1.00
C383   C     0.83053   0.50004   0.11697   0.00000  Uiso   1.00
C384   C     0.81875   0.50008   0.38241   0.00000  Uiso   1.00
H385   H     0.70374   0.42485   0.24921   0.00000  Uiso   1.00
H386   H     0.96285   0.57509   0.24535   0.00000  Uiso   1.00
H387   H     0.96286   0.42496   0.24462   0.00000  Uiso   1.00
H388   H     0.70374   0.57517   0.24986   0.00000  Uiso   1.00
C389   C     0.82540   0.50009   0.02418   0.00000  Uiso   1.00
C390   C     0.82148   0.50077   0.47545   0.00000  Uiso   1.00
C391   C     0.95715   0.50001   0.24730   0.00000  Uiso   1.00
C392   C     0.70942   0.50001   0.24934   0.00000  Uiso   1.00
N393   N     0.78593   0.38188   0.18549   0.00000  Uiso   1.00
O394   O     0.74687   0.38799   0.19061   0.00000  Uiso   1.00
O395   O     0.79960   0.38390   0.14560   0.00000  Uiso   1.00
N396   N     0.88455   0.61814   0.31114   0.00000  Uiso   1.00
O397   O     0.92301   0.61396   0.30206   0.00000  Uiso   1.00
O398   O     0.87500   0.61612   0.35251   0.00000  Uiso   1.00
N399   N     0.88490   0.38184   0.31082   0.00000  Uiso   1.00
O400   O     0.92325   0.38593   0.30126   0.00000  Uiso   1.00
O401   O     0.87584   0.38376   0.35234   0.00000  Uiso   1.00
N402   N     0.78572   0.61805   0.18566   0.00000  Uiso   1.00
O403   O     0.74665   0.61222   0.19095   0.00000  Uiso   1.00
O404   O     0.79928   0.61559   0.14575   0.00000  Uiso   1.00
O405   O     0.89957   0.51694   0.02494   0.00000  Uiso   1.00
H406   H     0.89478   0.51372   0.49249   0.00000  Uiso   1.00
O407   O     0.82084   0.41754   0.47750   0.00000  Uiso   1.00
H408   H     0.82235   0.39034   0.45752   0.00000  Uiso   1.00
O409   O     0.81448   0.58595   0.47270   0.00000  Uiso   1.00
H410   H     0.81520   0.58221   0.00532   0.00000  Uiso   1.00
O411   O     0.75330   0.48370   0.02356   0.00000  Uiso   1.00
H412   H     0.73076   0.47759   0.04375   0.00000  Uiso   1.00
O413   O     0.90462   0.51692   0.11323   0.00000  Uiso   1.00
H414   H     0.90369   0.51407   0.14583   0.00000  Uiso   1.00
O415   O     0.80600   0.41635   0.38524   0.00000  Uiso   1.00
H416   H     0.78622   0.42307   0.36014   0.00000  Uiso   1.00
O417   O     0.80411   0.58367   0.38450   0.00000  Uiso   1.00
H418   H     0.78504   0.57645   0.35890   0.00000  Uiso   1.00
O419   O     0.75619   0.48382   0.11641   0.00000  Uiso   1.00
H420   H     0.76048   0.48872   0.14871   0.00000  Uiso   1.00
O421   O     0.10655   0.87291   0.24999   0.00000  Uiso   1.00
O422   O     0.22679   0.79375   0.25001   0.00000  Uiso   1.00
O423   O     0.22679   0.87291   0.25001   0.00000  Uiso   1.00
O424   O     0.10655   0.79375   0.24999   0.00000  Uiso   1.00
N425   N     0.16667   0.95069   0.25000   0.00000  Uiso   1.00
N426   N     0.16667   0.71598   0.25000   0.00000  Uiso   1.00
C427   C     0.08742   0.83334   0.24999   0.00000  Uiso   1.00
C428   C     0.24587   0.83333   0.24894   0.00000  Uiso   1.00
O429   O     0.16666   0.87293   0.18573   0.00000  Uiso   1.00
O430   O     0.16667   0.79374   0.31427   0.00000  Uiso   1.00
O431   O     0.16667   0.87293   0.31427   0.00000  Uiso   1.00
O432   O     0.16666   0.79374   0.18573   0.00000  Uiso   1.00
C433   C     0.16644   0.83334   0.16523   0.00000  Uiso   1.00
C434   C     0.16153   0.83335   0.33452   0.00000  Uiso   1.00
Cu435  Cu    0.16667   0.88022   0.25000   0.00000  Uiso   1.00
Cu436  Cu    0.16667   0.78645   0.25000   0.00000  Uiso   1.00
C437   C     0.14315   0.69138   0.21924   0.00000  Uiso   1.00
C438   C     0.19087   0.97528   0.28016   0.00000  Uiso   1.00
C439   C     0.19091   0.69139   0.28012   0.00000  Uiso   1.00
C440   C     0.14314   0.97526   0.21924   0.00000  Uiso   1.00
C441   C     0.02123   0.79121   0.24837   0.00000  Uiso   1.00
C442   C     0.31202   0.87546   0.24700   0.00000  Uiso   1.00
C443   C     0.31202   0.79124   0.24661   0.00000  Uiso   1.00
C444   C     0.02123   0.87548   0.24874   0.00000  Uiso   1.00
C445   C     0.19702   0.84195   0.04670   0.00000  Uiso   1.00
C446   C     0.15298   0.79148   0.45283   0.00000  Uiso   1.00
C447   C     0.15033   0.87648   0.45200   0.00000  Uiso   1.00
C448   C     0.12321   0.82479   0.04768   0.00000  Uiso   1.00
C449   C     0.19960   0.84199   0.09301   0.00000  Uiso   1.00
C450   C     0.14888   0.79113   0.40620   0.00000  Uiso   1.00
C451   C     0.14729   0.87580   0.40571   0.00000  Uiso   1.00
C452   C     0.12543   0.82494   0.09440   0.00000  Uiso   1.00
C453   C     0.16387   0.83337   0.11697   0.00000  Uiso   1.00
C454   C     0.15208   0.83342   0.38241   0.00000  Uiso   1.00
H455   H     0.03707   0.75818   0.24921   0.00000  Uiso   1.00
H456   H     0.29619   0.90842   0.24535   0.00000  Uiso   1.00
H457   H     0.29620   0.75829   0.24462   0.00000  Uiso   1.00
H458   H     0.03707   0.90850   0.24986   0.00000  Uiso   1.00
C459   C     0.15873   0.83342   0.02418   0.00000  Uiso   1.00
C460   C     0.15481   0.83410   0.47545   0.00000  Uiso   1.00
C461   C     0.29049   0.83334   0.24730   0.00000  Uiso   1.00
C462   C     0.04276   0.83334   0.24934   0.00000  Uiso   1.00
N463   N     0.11926   0.71521   0.18549   0.00000  Uiso   1.00
O464   O     0.08020   0.72132   0.19061   0.00000  Uiso   1.00
O465   O     0.13293   0.71723   0.14560   0.00000  Uiso   1.00
N466   N     0.21788   0.95147   0.31114   0.00000  Uiso   1.00
O467   O     0.25634   0.94729   0.30206   0.00000  Uiso   1.00
O468   O     0.20833   0.94945   0.35251   0.00000  Uiso   1.00
N469   N     0.21823   0.71518   0.31082   0.00000  Uiso   1.00
O470   O     0.25658   0.71926   0.30126   0.00000  Uiso   1.00
O471   O     0.20917   0.71709   0.35234   0.00000  Uiso   1.00
N472   N     0.11906   0.95138   0.18566   0.00000  Uiso   1.00
O473   O     0.07999   0.94556   0.19095   0.00000  Uiso   1.00
O474   O     0.13262   0.94892   0.14575   0.00000  Uiso   1.00
O475   O     0.23290   0.85028   0.02494   0.00000  Uiso   1.00
H476   H     0.22811   0.84705   0.49249   0.00000  Uiso   1.00
O477   O     0.15417   0.75088   0.47750   0.00000  Uiso   1.00
H478   H     0.15569   0.72368   0.45752   0.00000  Uiso   1.00
O479   O     0.14781   0.91928   0.47270   0.00000  Uiso   1.00
H480   H     0.14854   0.91555   0.00532   0.00000  Uiso   1.00
O481   O     0.08664   0.81704   0.02356   0.00000  Uiso   1.00
H482   H     0.06409   0.81093   0.04375   0.00000  Uiso   1.00
O483   O     0.23795   0.85025   0.11323   0.00000  Uiso   1.00
H484   H     0.23702   0.84741   0.14583   0.00000  Uiso   1.00
O485   O     0.13934   0.74968   0.38524   0.00000  Uiso   1.00
H486   H     0.11955   0.75640   0.36014   0.00000  Uiso   1.00
O487   O     0.13744   0.91701   0.38450   0.00000  Uiso   1.00
H488   H     0.11837   0.90978   0.35890   0.00000  Uiso   1.00
O489   O     0.08952   0.81715   0.11641   0.00000  Uiso   1.00
H490   H     0.09381   0.82205   0.14871   0.00000  Uiso   1.00
O491   O     0.43988   0.87291   0.24999   0.00000  Uiso   1.00
O492   O     0.56012   0.79375   0.25001   0.00000  Uiso   1.00
O493   O     0.56012   0.87291   0.25001   0.00000  Uiso   1.00
O494   O     0.43988   0.79375   0.24999   0.00000  Uiso   1.00
N495   N     0.50000   0.95069   0.25000   0.00000  Uiso   1.00
N496   N     0.50000   0.71598   0.25000   0.00000  Uiso   1.00
C497   C     0.42075   0.83334   0.24999   0.00000  Uiso   1.00
C498   C     0.57921   0.83333   0.24894   0.00000  Uiso   1.00
O499   O     0.50000   0.87293   0.18573   0.00000  Uiso   1.00
O500   O     0.50000   0.79374   0.31427   0.00000  Uiso   1.00
O501   O     0.50000   0.87293   0.31427   0.00000  Uiso   1.00
O502   O     0.50000   0.79374   0.18573   0.00000  Uiso   1.00
C503   C     0.49977   0.83334   0.16523   0.00000  Uiso   1.00
C504   C     0.49486   0.83335   0.33452   0.00000  Uiso   1.00
Cu505  Cu    0.50000   0.88022   0.25000   0.00000  Uiso   1.00
Cu506  Cu    0.50000   0.78645   0.25000   0.00000  Uiso   1.00
C507   C     0.47648   0.69138   0.21924   0.00000  Uiso   1.00
C508   C     0.52420   0.97528   0.28016   0.00000  Uiso   1.00
C509   C     0.52425   0.69139   0.28012   0.00000  Uiso   1.00
C510   C     0.47647   0.97526   0.21924   0.00000  Uiso   1.00
C511   C     0.35456   0.79121   0.24837   0.00000  Uiso   1.00
C512   C     0.64535   0.87546   0.24700   0.00000  Uiso   1.00
C513   C     0.64535   0.79124   0.24661   0.00000  Uiso   1.00
C514   C     0.35456   0.87548   0.24874   0.00000  Uiso   1.00
C515   C     0.53036   0.84195   0.04670   0.00000  Uiso   1.00
C516   C     0.48632   0.79148   0.45283   0.00000  Uiso   1.00
C517   C     0.48366   0.87648   0.45200   0.00000  Uiso   1.00
C518   C     0.45654   0.82479   0.04768   0.00000  Uiso   1.00
C519   C     0.53293   0.84199   0.09301   0.00000  Uiso   1.00
C520   C     0.48221   0.79113   0.40620   0.00000  Uiso   1.00
C521   C     0.48062   0.87580   0.40571   0.00000  Uiso   1.00
C522   C     0.45876   0.82494   0.09440   0.00000  Uiso   1.00
C523   C     0.49720   0.83337   0.11697   0.00000  Uiso   1.00
C524   C     0.48542   0.83342   0.38241   0.00000  Uiso   1.00
H525   H     0.37041   0.75818   0.24921   0.00000  Uiso   1.00
H526   H     0.62952   0.90842   0.24535   0.00000  Uiso   1.00
H527   H     0.62953   0.75829   0.24462   0.00000  Uiso   1.00
H528   H     0.37041   0.90850   0.24986   0.00000  Uiso   1.00
C529   C     0.49206   0.83342   0.02418   0.00000  Uiso   1.00
C530   C     0.48815   0.83410   0.47545   0.00000  Uiso   1.00
C531   C     0.62382   0.83334   0.24730   0.00000  Uiso   1.00
C532   C     0.37609   0.83334   0.24934   0.00000  Uiso   1.00
N533   N     0.45260   0.71521   0.18549   0.00000  Uiso   1.00
O534   O     0.41354   0.72132   0.19061   0.00000  Uiso   1.00
O535   O     0.46626   0.71723   0.14560   0.00000  Uiso   1.00
N536   N     0.55121   0.95147   0.31114   0.00000  Uiso   1.00
O537   O     0.58968   0.94729   0.30206   0.00000  Uiso   1.00
O538   O     0.54167   0.94945   0.35251   0.00000  Uiso   1.00
N539   N     0.55156   0.71518   0.31082   0.00000  Uiso   1.00
O540   O     0.58992   0.71926   0.30126   0.00000  Uiso   1.00
O541   O     0.54250   0.71709   0.35234   0.00000  Uiso   1.00
N542   N     0.45239   0.95138   0.18566   0.00000  Uiso   1.00
O543   O     0.41332   0.94556   0.19095   0.00000  Uiso   1.00
O544   O     0.46595   0.94892   0.14575   0.00000  Uiso   1.00
O545   O     0.56624   0.85028   0.02494   0.00000  Uiso   1.00
H546   H     0.56144   0.84705   0.49249   0.00000  Uiso   1.00
O547   O     0.48751   0.75088   0.47750   0.00000  Uiso   1.00
H548   H     0.48902   0.72368   0.45752   0.00000  Uiso   1.00
O549   O     0.48115   0.91928   0.47270   0.00000  Uiso   1.00
H550   H     0.48187   0.91555   0.00532   0.00000  Uiso   1.00
O551   O     0.41997   0.81704   0.02356   0.00000  Uiso   1.00
H552   H     0.39743   0.81093   0.04375   0.00000  Uiso   1.00
O553   O     0.57128   0.85025   0.11323   0.00000  Uiso   1.00
H554   H     0.57035   0.84741   0.14583   0.00000  Uiso   1.00
O555   O     0.47267   0.74968   0.38524   0.00000  Uiso   1.00
H556   H     0.45288   0.75640   0.36014   0.00000  Uiso   1.00
O557   O     0.47077   0.91701   0.38450   0.00000  Uiso   1.00
H558   H     0.45170   0.90978   0.35890   0.00000  Uiso   1.00
O559   O     0.42286   0.81715   0.11641   0.00000  Uiso   1.00
H560   H     0.42714   0.82205   0.14871   0.00000  Uiso   1.00
O561   O     0.77321   0.87291   0.24999   0.00000  Uiso   1.00
O562   O     0.89345   0.79375   0.25001   0.00000  Uiso   1.00
O563   O     0.89345   0.87291   0.25001   0.00000  Uiso   1.00
O564   O     0.77321   0.79375   0.24999   0.00000  Uiso   1.00
N565   N     0.83333   0.95069   0.25000   0.00000  Uiso   1.00
N566   N     0.83333   0.71598   0.25000   0.00000  Uiso   1.00
C567   C     0.75409   0.83334   0.24999   0.00000  Uiso   1.00
C568   C     0.91254   0.83333   0.24894   0.00000  Uiso   1.00
O569   O     0.83333   0.87293   0.18573   0.00000  Uiso   1.00
O570   O     0.83334   0.79374   0.31427   0.00000  Uiso   1.00
O571   O     0.83334   0.87293   0.31427   0.00000  Uiso   1.00
O572   O     0.83333   0.79374   0.18573   0.00000  Uiso   1.00
C573   C     0.83311   0.83334   0.16523   0.00000  Uiso   1.00
C574   C     0.82820   0.83335   0.33452   0.00000  Uiso   1.00
Cu575  Cu    0.83333   0.88022   0.25000   0.00000  Uiso   1.00
Cu576  Cu    0.83333   0.78645   0.25000   0.00000  Uiso   1.00
C577   C     0.80982   0.69138   0.21924   0.00000  Uiso   1.00
C578   C     0.85753   0.97528   0.28016   0.00000  Uiso   1.00
C579   C     0.85758   0.69139   0.28012   0.00000  Uiso   1.00
C580   C     0.80981   0.97526   0.21924   0.00000  Uiso   1.00
C581   C     0.68789   0.79121   0.24837   0.00000  Uiso   1.00
C582   C     0.97868   0.87546   0.24700   0.00000  Uiso   1.00
C583   C     0.97869   0.79124   0.24661   0.00000  Uiso   1.00
C584   C     0.68789   0.87548   0.24874   0.00000  Uiso   1.00
C585   C     0.86369   0.84195   0.04670   0.00000  Uiso   1.00
C586   C     0.81965   0.79148   0.45283   0.00000  Uiso   1.00
C587   C     0.81699   0.87648   0.45200   0.00000  Uiso   1.00
C588   C     0.78987   0.82479   0.04768   0.00000  Uiso   1.00
C589   C     0.86627   0.84199   0.09301   0.00000  Uiso   1.00
C590   C     0.81555   0.79113   0.40620   0.00000  Uiso   1.00
C591   C     0.81395   0.87580   0.40571   0.00000  Uiso   1.00
C592   C     0.79210   0.82494   0.09440   0.00000  Uiso   1.00
C593   C     0.83053   0.83337   0.11697   0.00000  Uiso   1.00
C594   C     0.81875   0.83342   0.38241   0.00000  Uiso   1.00
H595   H     0.70374   0.75818   0.24921   0.00000  Uiso   1.00
H596   H     0.96285   0.90842   0.24535   0.00000  Uiso   1.00
H597   H     0.96286   0.75829   0.24462   0.00000  Uiso   1.00
H598   H     0.70374   0.90850   0.24986   0.00000  Uiso   1.00
C599   C     0.82540   0.83342   0.02418   0.00000  Uiso   1.00
C600   C     0.82148   0.83410   0.47545   0.00000  Uiso   1.00
C601   C     0.95715   0.83334   0.24730   0.00000  Uiso   1.00
C602   C     0.70942   0.83334   0.24934   0.00000  Uiso   1.00
N603   N     0.78593   0.71521   0.18549   0.00000  Uiso   1.00
O604   O     0.74687   0.72132   0.19061   0.00000  Uiso   1.00
O605   O     0.79960   0.71723   0.14560   0.00000  Uiso   1.00
N606   N     0.88455   0.95147   0.31114   0.00000  Uiso   1.00
O607   O     0.92301   0.94729   0.30206   0.00000  Uiso   1.00
O608   O     0.87500   0.94945   0.35251   0.00000  Uiso   1.00
N609   N     0.88490   0.71518   0.31082   0.00000  Uiso   1.00
O610   O     0.92325   0.71926   0.30126   0.00000  Uiso   1.00
O611   O     0.87584   0.71709   0.35234   0.00000  Uiso   1.00
N612   N     0.78572   0.95138   0.18566   0.00000  Uiso   1.00
O613   O     0.74665   0.94556   0.19095   0.00000  Uiso   1.00
O614   O     0.79928   0.94892   0.14575   0.00000  Uiso   1.00
O615   O     0.89957   0.85028   0.02494   0.00000  Uiso   1.00
H616   H     0.89478   0.84705   0.49249   0.00000  Uiso   1.00
O617   O     0.82084   0.75088   0.47750   0.00000  Uiso   1.00
H618   H     0.82235   0.72368   0.45752   0.00000  Uiso   1.00
O619   O     0.81448   0.91928   0.47270   0.00000  Uiso   1.00
H620   H     0.81520   0.91555   0.00532   0.00000  Uiso   1.00
O621   O     0.75330   0.81704   0.02356   0.00000  Uiso   1.00
H622   H     0.73076   0.81093   0.04375   0.00000  Uiso   1.00
O623   O     0.90462   0.85025   0.11323   0.00000  Uiso   1.00
H624   H     0.90369   0.84741   0.14583   0.00000  Uiso   1.00
O625   O     0.80600   0.74968   0.38524   0.00000  Uiso   1.00
H626   H     0.78622   0.75640   0.36014   0.00000  Uiso   1.00
O627   O     0.80411   0.91701   0.38450   0.00000  Uiso   1.00
H628   H     0.78504   0.90978   0.35890   0.00000  Uiso   1.00
O629   O     0.75619   0.81715   0.11641   0.00000  Uiso   1.00
H630   H     0.76048   0.82205   0.14871   0.00000  Uiso   1.00
O631   O     0.10655   0.20625   0.74999   0.00000  Uiso   1.00
O632   O     0.22679   0.12709   0.75001   0.00000  Uiso   1.00
O633   O     0.22679   0.20625   0.75001   0.00000  Uiso   1.00
O634   O     0.10655   0.12709   0.74999   0.00000  Uiso   1.00
N635   N     0.16667   0.28402   0.75000   0.00000  Uiso   1.00
N636   N     0.16667   0.04931   0.75000   0.00000  Uiso   1.00
C637   C     0.08742   0.16667   0.74999   0.00000  Uiso   1.00
C638   C     0.24587   0.16667   0.74894   0.00000  Uiso   1.00
O639   O     0.16666   0.20626   0.68573   0.00000  Uiso   1.00
O640   O     0.16667   0.12707   0.81427   0.00000  Uiso   1.00
O641   O     0.16667   0.20626   0.81427   0.00000  Uiso   1.00
O642   O     0.16666   0.12707   0.68573   0.00000  Uiso   1.00
C643   C     0.16644   0.16667   0.66523   0.00000  Uiso   1.00
C644   C     0.16153   0.16668   0.83452   0.00000  Uiso   1.00
Cu645  Cu    0.16667   0.21355   0.75000   0.00000  Uiso   1.00
Cu646  Cu    0.16667   0.11978   0.75000   0.00000  Uiso   1.00
C647   C     0.14315   0.02471   0.71924   0.00000  Uiso   1.00
C648   C     0.19087   0.30861   0.78016   0.00000  Uiso   1.00
C649   C     0.19091   0.02473   0.78012   0.00000  Uiso   1.00
C650   C     0.14314   0.30860   0.71924   0.00000  Uiso   1.00
C651   C     0.02123   0.12454   0.74837   0.00000  Uiso   1.00
C652   C     0.31202   0.20879   0.74700   0.00000  Uiso   1.00
C653   C     0.31202   0.12457   0.74661   0.00000  Uiso   1.00
C654   C     0.02123   0.20882   0.74874   0.00000  Uiso   1.00
C655   C     0.19702   0.17529   0.54670   0.00000  Uiso   1.00
C656   C     0.15298   0.12481   0.95283   0.00000  Uiso   1.00
C657   C     0.15033   0.20981   0.95200   0.00000  Uiso   1.00
C658   C     0.12321   0.15813   0.54768   0.00000  Uiso   1.00
C659   C     0.19960   0.17532   0.59301   0.00000  Uiso   1.00
C660   C     0.14888   0.12446   0.90620   0.00000  Uiso   1.00
C661   C     0.14729   0.20913   0.90571   0.00000  Uiso   1.00
C662   C     0.12543   0.15827   0.59440   0.00000  Uiso   1.00
C663   C     0.16387   0.16671   0.61697   0.00000  Uiso   1.00
C664   C     0.15208   0.16675   0.88241   0.00000  Uiso   1.00
H665   H     0.03707   0.09152   0.74921   0.00000  Uiso   1.00
H666   H     0.29619   0.24176   0.74535   0.00000  Uiso   1.00
H667   H     0.29620   0.09162   0.74462   0.00000  Uiso   1.00
H668   H     0.03707   0.24183   0.74986   0.00000  Uiso   1.00
C669   C     0.15873   0.16675   0.52418   0.00000  Uiso   1.00
C670   C     0.15481   0.16743   0.97545   0.00000  Uiso   1.00
C671   C     0.29049   0.16668   0.74730   0.00000  Uiso   1.00
C672   C     0.04276   0.16668   0.74934   0.00000  Uiso   1.00
N673   N     0.11926   0.04855   0.68549   0.00000  Uiso   1.00
O674   O     0.08020   0.05465   0.69061   0.00000  Uiso   1.00
O675   O     0.13293   0.05056   0.64560   0.00000  Uiso   1.00
N676   N     0.21788   0.28481   0.81114   0.00000  Uiso   1.00
O677   O     0.25634   0.28063   0.80206   0.00000  Uiso   1.00
O678   O     0.20833   0.28278   0.85251   0.00000  Uiso   1.00
N679   N     0.21823   0.04851   0.81082   0.00000  Uiso   1.00
O680   O     0.25658   0.05260   0.80126   0.00000  Uiso   1.00
O681   O     0.20917   0.05043   0.85234   0.00000  Uiso   1.00
N682   N     0.11906   0.28472   0.68566   0.00000  Uiso   1.00
O683   O     0.07999   0.27889   0.69095   0.00000  Uiso   1.00
O684   O     0.13262   0.28226   0.64575   0.00000  Uiso   1.00
O685   O     0.23290   0.18361   0.52494   0.00000  Uiso   1.00
H686   H     0.22811   0.18038   0.99249   0.00000  Uiso   1.00
O687   O     0.15417   0.08421   0.97750   0.00000  Uiso   1.00
H688   H     0.15569   0.05701   0.95752   0.00000  Uiso   1.00
O689   O     0.14781   0.25262   0.97270   0.00000  Uiso   1.00
H690   H     0.14854   0.24888   0.50532   0.00000  Uiso   1.00
O691   O     0.08664   0.15037   0.52356   0.00000  Uiso   1.00
H692   H     0.06409   0.14426   0.54375   0.00000  Uiso   1.00
O693   O     0.23795   0.18359   0.61323   0.00000  Uiso   1.00
H694   H     0.23702   0.18074   0.64583   0.00000  Uiso   1.00
O695   O     0.13934   0.08301   0.88524   0.00000  Uiso   1.00
H696   H     0.11955   0.08974   0.86014   0.00000  Uiso   1.00
O697   O     0.13744   0.25034   0.88450   0.00000  Uiso   1.00
H698   H     0.11837   0.24312   0.85890   0.00000  Uiso   1.00
O699   O     0.08952   0.15049   0.61641   0.00000  Uiso   1.00
H700   H     0.09381   0.15538   0.64871   0.00000  Uiso   1.00
O701   O     0.43988   0.20625   0.74999   0.00000  Uiso   1.00
O702   O     0.56012   0.12709   0.75001   0.00000  Uiso   1.00
O703   O     0.56012   0.20625   0.75001   0.00000  Uiso   1.00
O704   O     0.43988   0.12709   0.74999   0.00000  Uiso   1.00
N705   N     0.50000   0.28402   0.75000   0.00000  Uiso   1.00
N706   N     0.50000   0.04931   0.75000   0.00000  Uiso   1.00
C707   C     0.42075   0.16667   0.74999   0.00000  Uiso   1.00
C708   C     0.57921   0.16667   0.74894   0.00000  Uiso   1.00
O709   O     0.50000   0.20626   0.68573   0.00000  Uiso   1.00
O710   O     0.50000   0.12707   0.81427   0.00000  Uiso   1.00
O711   O     0.50000   0.20626   0.81427   0.00000  Uiso   1.00
O712   O     0.50000   0.12707   0.68573   0.00000  Uiso   1.00
C713   C     0.49977   0.16667   0.66523   0.00000  Uiso   1.00
C714   C     0.49486   0.16668   0.83452   0.00000  Uiso   1.00
Cu715  Cu    0.50000   0.21355   0.75000   0.00000  Uiso   1.00
Cu716  Cu    0.50000   0.11978   0.75000   0.00000  Uiso   1.00
C717   C     0.47648   0.02471   0.71924   0.00000  Uiso   1.00
C718   C     0.52420   0.30861   0.78016   0.00000  Uiso   1.00
C719   C     0.52425   0.02473   0.78012   0.00000  Uiso   1.00
C720   C     0.47647   0.30860   0.71924   0.00000  Uiso   1.00
C721   C     0.35456   0.12454   0.74837   0.00000  Uiso   1.00
C722   C     0.64535   0.20879   0.74700   0.00000  Uiso   1.00
C723   C     0.64535   0.12457   0.74661   0.00000  Uiso   1.00
C724   C     0.35456   0.20882   0.74874   0.00000  Uiso   1.00
C725   C     0.53036   0.17529   0.54670   0.00000  Uiso   1.00
C726   C     0.48632   0.12481   0.95283   0.00000  Uiso   1.00
C727   C     0.48366   0.20981   0.95200   0.00000  Uiso   1.00
C728   C     0.45654   0.15813   0.54768   0.00000  Uiso   1.00
C729   C     0.53293   0.17532   0.59301   0.00000  Uiso   1.00
C730   C     0.48221   0.12446   0.90620   0.00000  Uiso   1.00
C731   C     0.48062   0.20913   0.90571   0.00000  Uiso   1.00
C732   C     0.45876   0.15827   0.59440   0.00000  Uiso   1.00
C733   C     0.49720   0.16671   0.61697   0.00000  Uiso   1.00
C734   C     0.48542   0.16675   0.88241   0.00000  Uiso   1.00
H735   H     0.37041   0.09152   0.74921   0.00000  Uiso   1.00
H736   H     0.62952   0.24176   0.74535   0.00000  Uiso   1.00
H737   H     0.62953   0.09162   0.74462   0.00000  Uiso   1.00
H738   H     0.37041   0.24183   0.74986   0.00000  Uiso   1.00
C739   C     0.49206   0.16675   0.52418   0.00000  Uiso   1.00
C740   C     0.48815   0.16743   0.97545   0.00000  Uiso   1.00
C741   C     0.62382   0.16668   0.74730   0.00000  Uiso   1.00
C742   C     0.37609   0.16668   0.74934   0.00000  Uiso   1.00
N743   N     0.45260   0.04855   0.68549   0.00000  Uiso   1.00
O744   O     0.41354   0.05465   0.69061   0.00000  Uiso   1.00
O745   O     0.46626   0.05056   0.64560   0.00000  Uiso   1.00
N746   N     0.55121   0.28481   0.81114   0.00000  Uiso   1.00
O747   O     0.58968   0.28063   0.80206   0.00000  Uiso   1.00
O748   O     0.54167   0.28278   0.85251   0.00000  Uiso   1.00
N749   N     0.55156   0.04851   0.81082   0.00000  Uiso   1.00
O750   O     0.58992   0.05260   0.80126   0.00000  Uiso   1.00
O751   O     0.54250   0.05043   0.85234   0.00000  Uiso   1.00
N752   N     0.45239   0.28472   0.68566   0.00000  Uiso   1.00
O753   O     0.41332   0.27889   0.69095   0.00000  Uiso   1.00
O754   O     0.46595   0.28226   0.64575   0.00000  Uiso   1.00
O755   O     0.56624   0.18361   0.52494   0.00000  Uiso   1.00
H756   H     0.56144   0.18038   0.99249   0.00000  Uiso   1.00
O757   O     0.48751   0.08421   0.97750   0.00000  Uiso   1.00
H758   H     0.48902   0.05701   0.95752   0.00000  Uiso   1.00
O759   O     0.48115   0.25262   0.97270   0.00000  Uiso   1.00
H760   H     0.48187   0.24888   0.50532   0.00000  Uiso   1.00
O761   O     0.41997   0.15037   0.52356   0.00000  Uiso   1.00
H762   H     0.39743   0.14426   0.54375   0.00000  Uiso   1.00
O763   O     0.57128   0.18359   0.61323   0.00000  Uiso   1.00
H764   H     0.57035   0.18074   0.64583   0.00000  Uiso   1.00
O765   O     0.47267   0.08301   0.88524   0.00000  Uiso   1.00
H766   H     0.45288   0.08974   0.86014   0.00000  Uiso   1.00
O767   O     0.47077   0.25034   0.88450   0.00000  Uiso   1.00
H768   H     0.45170   0.24312   0.85890   0.00000  Uiso   1.00
O769   O     0.42286   0.15049   0.61641   0.00000  Uiso   1.00
H770   H     0.42714   0.15538   0.64871   0.00000  Uiso   1.00
O771   O     0.77321   0.20625   0.74999   0.00000  Uiso   1.00
O772   O     0.89345   0.12709   0.75001   0.00000  Uiso   1.00
O773   O     0.89345   0.20625   0.75001   0.00000  Uiso   1.00
O774   O     0.77321   0.12709   0.74999   0.00000  Uiso   1.00
N775   N     0.83333   0.28402   0.75000   0.00000  Uiso   1.00
N776   N     0.83333   0.04931   0.75000   0.00000  Uiso   1.00
C777   C     0.75409   0.16667   0.74999   0.00000  Uiso   1.00
C778   C     0.91254   0.16667   0.74894   0.00000  Uiso   1.00
O779   O     0.83333   0.20626   0.68573   0.00000  Uiso   1.00
O780   O     0.83334   0.12707   0.81427   0.00000  Uiso   1.00
O781   O     0.83334   0.20626   0.81427   0.00000  Uiso   1.00
O782   O     0.83333   0.12707   0.68573   0.00000  Uiso   1.00
C783   C     0.83311   0.16667   0.66523   0.00000  Uiso   1.00
C784   C     0.82820   0.16668   0.83452   0.00000  Uiso   1.00
Cu785  Cu    0.83333   0.21355   0.75000   0.00000  Uiso   1.00
Cu786  Cu    0.83333   0.11978   0.75000   0.00000  Uiso   1.00
C787   C     0.80982   0.02471   0.71924   0.00000  Uiso   1.00
C788   C     0.85753   0.30861   0.78016   0.00000  Uiso   1.00
C789   C     0.85758   0.02473   0.78012   0.00000  Uiso   1.00
C790   C     0.80981   0.30860   0.71924   0.00000  Uiso   1.00
C791   C     0.68789   0.12454   0.74837   0.00000  Uiso   1.00
C792   C     0.97868   0.20879   0.74700   0.00000  Uiso   1.00
C793   C     0.97869   0.12457   0.74661   0.00000  Uiso   1.00
C794   C     0.68789   0.20882   0.74874   0.00000  Uiso   1.00
C795   C     0.86369   0.17529   0.54670   0.00000  Uiso   1.00
C796   C     0.81965   0.12481   0.95283   0.00000  Uiso   1.00
C797   C     0.81699   0.20981   0.95200   0.00000  Uiso   1.00
C798   C     0.78987   0.15813   0.54768   0.00000  Uiso   1.00
C799   C     0.86627   0.17532   0.59301   0.00000  Uiso   1.00
C800   C     0.81555   0.12446   0.90620   0.00000  Uiso   1.00
C801   C     0.81395   0.20913   0.90571   0.00000  Uiso   1.00
C802   C     0.79210   0.15827   0.59440   0.00000  Uiso   1.00
C803   C     0.83053   0.16671   0.61697   0.00000  Uiso   1.00
C804   C     0.81875   0.16675   0.88241   0.00000  Uiso   1.00
H805   H     0.70374   0.09152   0.74921   0.00000  Uiso   1.00
H806   H     0.96285   0.24176   0.74535   0.00000  Uiso   1.00
H807   H     0.96286   0.09162   0.74462   0.00000  Uiso   1.00
H808   H     0.70374   0.24183   0.74986   0.00000  Uiso   1.00
C809   C     0.82540   0.16675   0.52418   0.00000  Uiso   1.00
C810   C     0.82148   0.16743   0.97545   0.00000  Uiso   1.00
C811   C     0.95715   0.16668   0.74730   0.00000  Uiso   1.00
C812   C     0.70942   0.16668   0.74934   0.00000  Uiso   1.00
N813   N     0.78593   0.04855   0.68549   0.00000  Uiso   1.00
O814   O     0.74687   0.05465   0.69061   0.00000  Uiso   1.00
O815   O     0.79960   0.05056   0.64560   0.00000  Uiso   1.00
N816   N     0.88455   0.28481   0.81114   0.00000  Uiso   1.00
O817   O     0.92301   0.28063   0.80206   0.00000  Uiso   1.00
O818   O     0.87500   0.28278   0.85251   0.00000  Uiso   1.00
N819   N     0.88490   0.04851   0.81082   0.00000  Uiso   1.00
O820   O     0.92325   0.05260   0.80126   0.00000  Uiso   1.00
O821   O     0.87584   0.05043   0.85234   0.00000  Uiso   1.00
N822   N     0.78572   0.28472   0.68566   0.00000  Uiso   1.00
O823   O     0.74665   0.27889   0.69095   0.00000  Uiso   1.00
O824   O     0.79928   0.28226   0.64575   0.00000  Uiso   1.00
O825   O     0.89957   0.18361   0.52494   0.00000  Uiso   1.00
H826   H     0.89478   0.18038   0.99249   0.00000  Uiso   1.00
O827   O     0.82084   0.08421   0.97750   0.00000  Uiso   1.00
H828   H     0.82235   0.05701   0.95752   0.00000  Uiso   1.00
O829   O     0.81448   0.25262   0.97270   0.00000  Uiso   1.00
H830   H     0.81520   0.24888   0.50532   0.00000  Uiso   1.00
O831   O     0.75330   0.15037   0.52356   0.00000  Uiso   1.00
H832   H     0.73076   0.14426   0.54375   0.00000  Uiso   1.00
O833   O     0.90462   0.18359   0.61323   0.00000  Uiso   1.00
H834   H     0.90369   0.18074   0.64583   0.00000  Uiso   1.00
O835   O     0.80600   0.08301   0.88524   0.00000  Uiso   1.00
H836   H     0.78622   0.08974   0.86014   0.00000  Uiso   1.00
O837   O     0.80411   0.25034   0.88450   0.00000  Uiso   1.00
H838   H     0.78504   0.24312   0.85890   0.00000  Uiso   1.00
O839   O     0.75619   0.15049   0.61641   0.00000  Uiso   1.00
H840   H     0.76048   0.15538   0.64871   0.00000  Uiso   1.00
O841   O     0.10655   0.53958   0.74999   0.00000  Uiso   1.00
O842   O     0.22679   0.46042   0.75001   0.00000  Uiso   1.00
O843   O     0.22679   0.53958   0.75001   0.00000  Uiso   1.00
O844   O     0.10655   0.46042   0.74999   0.00000  Uiso   1.00
N845   N     0.16667   0.61736   0.75000   0.00000  Uiso   1.00
N846   N     0.16667   0.38264   0.75000   0.00000  Uiso   1.00
C847   C     0.08742   0.50000   0.74999   0.00000  Uiso   1.00
C848   C     0.24587   0.50000   0.74894   0.00000  Uiso   1.00
O849   O     0.16666   0.53959   0.68573   0.00000  Uiso   1.00
O850   O     0.16667   0.46041   0.81427   0.00000  Uiso   1.00
O851   O     0.16667   0.53959   0.81427   0.00000  Uiso   1.00
O852   O     0.16666   0.46041   0.68573   0.00000  Uiso   1.00
C853   C     0.16644   0.50000   0.66523   0.00000  Uiso   1.00
C854   C     0.16153   0.50001   0.83452   0.00000  Uiso   1.00
Cu855  Cu    0.16667   0.54689   0.75000   0.00000  Uiso   1.00
Cu856  Cu    0.16667   0.45311   0.75000   0.00000  Uiso   1.00
C857   C     0.14315   0.35804   0.71924   0.00000  Uiso   1.00
C858   C     0.19087   0.64194   0.78016   0.00000  Uiso   1.00
C859   C     0.19091   0.35806   0.78012   0.00000  Uiso   1.00
C860   C     0.14314   0.64193   0.71924   0.00000  Uiso   1.00
C861   C     0.02123   0.45787   0.74837   0.00000  Uiso   1.00
C862   C     0.31202   0.54213   0.74700   0.00000  Uiso   1.00
C863   C     0.31202   0.45791   0.74661   0.00000  Uiso   1.00
C864   C     0.02123   0.54215   0.74874   0.00000  Uiso   1.00
C865   C     0.19702   0.50862   0.54670   0.00000  Uiso   1.00
C866   C     0.15298   0.45815   0.95283   0.00000  Uiso   1.00
C867   C     0.15033   0.54314   0.95200   0.00000  Uiso   1.00
C868   C     0.12321   0.49146   0.54768   0.00000  Uiso   1.00
C869   C     0.19960   0.50865   0.59301   0.00000  Uiso   1.00
C870   C     0.14888   0.45780   0.90620   0.00000  Uiso   1.00
C871   C     0.14729   0.54246   0.90571   0.00000  Uiso   1.00
C872   C     0.12543   0.49161   0.59440   0.00000  Uiso   1.00
C873   C     0.16387   0.50004   0.61697   0.00000  Uiso   1.00
C874   C     0.15208   0.50008   0.88241   0.00000  Uiso   1.00
H875   H     0.03707   0.42485   0.74921   0.00000  Uiso   1.00
H876   H     0.29619   0.57509   0.74535   0.00000  Uiso   1.00
H877   H     0.29620   0.42496   0.74462   0.00000  Uiso   1.00
H878   H     0.03707   0.57517   0.74986   0.00000  Uiso   1.00
C879   C     0.15873   0.50009   0.52418   0.00000  Uiso   1.00
C880   C     0.15481   0.50077   0.97545   0.00000  Uiso   1.00
C881   C     0.29049   0.50001   0.74730   0.00000  Uiso   1.00
C882   C     0.04276   0.50001   0.74934   0.00000  Uiso   1.00
N883   N     0.11926   0.38188   0.68549   0.00000  Uiso   1.00
O884   O     0.08020   0.38799   0.69061   0.00000  Uiso   1.00
O885   O     0.13293   0.38390   0.64560   0.00000  Uiso   1.00
N886   N     0.21788   0.61814   0.81114   0.00000  Uiso   1.00
O887   O     0.25634   0.61396   0.80206   0.00000  Uiso   1.00
O888   O     0.20833   0.61612   0.85251   0.00000  Uiso   1.00
N889   N     0.21823   0.38184   0.81082   0.00000  Uiso   1.00
O890   O     0.25658   0.38593   0.80126   0.00000  Uiso   1.00
O891   O     0.20917   0.38376   0.85234   0.00000  Uiso   1.00
N892   N     0.11906   0.61805   0.68566   0.00000  Uiso   1.00
O893   O     0.07999   0.61222   0.69095   0.00000  Uiso   1.00
O894   O     0.13262   0.61559   0.64575   0.00000  Uiso   1.00
O895   O     0.23290   0.51694   0.52494   0.00000  Uiso   1.00
H896   H     0.22811   0.51372   0.99249   0.00000  Uiso   1.00
O897   O     0.15417   0.41754   0.97750   0.00000  Uiso   1.00
H898   H     0.15569   0.39034   0.95752   0.00000  Uiso   1.00
O899   O     0.14781   0.58595   0.97270   0.00000  Uiso   1.00
H900   H     0.14854   0.58221   0.50532   0.00000  Uiso   1.00
O901   O     0.08664   0.48370   0.52356   0.00000  Uiso   1.00
H902   H     0.06409   0.47759   0.54375   0.00000  Uiso   1.00
O903   O     0.23795   0.51692   0.61323   0.00000  Uiso   1.00
H904   H     0.23702   0.51407   0.64583   0.00000  Uiso   1.00
O905   O     0.13934   0.41635   0.88524   0.00000  Uiso   1.00
H906   H     0.11955   0.42307   0.86014   0.00000  Uiso   1.00
O907   O     0.13744   0.58367   0.88450   0.00000  Uiso   1.00
H908   H     0.11837   0.57645   0.85890   0.00000  Uiso   1.00
O909   O     0.08952   0.48382   0.61641   0.00000  Uiso   1.00
H910   H     0.09381   0.48872   0.64871   0.00000  Uiso   1.00
O911   O     0.43988   0.53958   0.74999   0.00000  Uiso   1.00
O912   O     0.56012   0.46042   0.75001   0.00000  Uiso   1.00
O913   O     0.56012   0.53958   0.75001   0.00000  Uiso   1.00
O914   O     0.43988   0.46042   0.74999   0.00000  Uiso   1.00
N915   N     0.50000   0.61736   0.75000   0.00000  Uiso   1.00
N916   N     0.50000   0.38264   0.75000   0.00000  Uiso   1.00
C917   C     0.42075   0.50000   0.74999   0.00000  Uiso   1.00
C918   C     0.57921   0.50000   0.74894   0.00000  Uiso   1.00
O919   O     0.50000   0.53959   0.68573   0.00000  Uiso   1.00
O920   O     0.50000   0.46041   0.81427   0.00000  Uiso   1.00
O921   O     0.50000   0.53959   0.81427   0.00000  Uiso   1.00
O922   O     0.50000   0.46041   0.68573   0.00000  Uiso   1.00
C923   C     0.49977   0.50000   0.66523   0.00000  Uiso   1.00
C924   C     0.49486   0.50001   0.83452   0.00000  Uiso   1.00
Cu925  Cu    0.50000   0.54689   0.75000   0.00000  Uiso   1.00
Cu926  Cu    0.50000   0.45311   0.75000   0.00000  Uiso   1.00
C927   C     0.47648   0.35804   0.71924   0.00000  Uiso   1.00
C928   C     0.52420   0.64194   0.78016   0.00000  Uiso   1.00
C929   C     0.52425   0.35806   0.78012   0.00000  Uiso   1.00
C930   C     0.47647   0.64193   0.71924   0.00000  Uiso   1.00
C931   C     0.35456   0.45787   0.74837   0.00000  Uiso   1.00
C932   C     0.64535   0.54213   0.74700   0.00000  Uiso   1.00
C933   C     0.64535   0.45791   0.74661   0.00000  Uiso   1.00
C934   C     0.35456   0.54215   0.74874   0.00000  Uiso   1.00
C935   C     0.53036   0.50862   0.54670   0.00000  Uiso   1.00
C936   C     0.48632   0.45815   0.95283   0.00000  Uiso   1.00
C937   C     0.48366   0.54314   0.95200   0.00000  Uiso   1.00
C938   C     0.45654   0.49146   0.54768   0.00000  Uiso   1.00
C939   C     0.53293   0.50865   0.59301   0.00000  Uiso   1.00
C940   C     0.48221   0.45780   0.90620   0.00000  Uiso   1.00
C941   C     0.48062   0.54246   0.90571   0.00000  Uiso   1.00
C942   C     0.45876   0.49161   0.59440   0.00000  Uiso   1.00
C943   C     0.49720   0.50004   0.61697   0.00000  Uiso   1.00
C944   C     0.48542   0.50008   0.88241   0.00000  Uiso   1.00
H945   H     0.37041   0.42485   0.74921   0.00000  Uiso   1.00
H946   H     0.62952   0.57509   0.74535   0.00000  Uiso   1.00
H947   H     0.62953   0.42496   0.74462   0.00000  Uiso   1.00
H948   H     0.37041   0.57517   0.74986   0.00000  Uiso   1.00
C949   C     0.49206   0.50009   0.52418   0.00000  Uiso   1.00
C950   C     0.48815   0.50077   0.97545   0.00000  Uiso   1.00
C951   C     0.62382   0.50001   0.74730   0.00000  Uiso   1.00
C952   C     0.37609   0.50001   0.74934   0.00000  Uiso   1.00
N953   N     0.45260   0.38188   0.68549   0.00000  Uiso   1.00
O954   O     0.41354   0.38799   0.69061   0.00000  Uiso   1.00
O955   O     0.46626   0.38390   0.64560   0.00000  Uiso   1.00
N956   N     0.55121   0.61814   0.81114   0.00000  Uiso   1.00
O957   O     0.58968   0.61396   0.80206   0.00000  Uiso   1.00
O958   O     0.54167   0.61612   0.85251   0.00000  Uiso   1.00
N959   N     0.55156   0.38184   0.81082   0.00000  Uiso   1.00
O960   O     0.58992   0.38593   0.80126   0.00000  Uiso   1.00
O961   O     0.54250   0.38376   0.85234   0.00000  Uiso   1.00
N962   N     0.45239   0.61805   0.68566   0.00000  Uiso   1.00
O963   O     0.41332   0.61222   0.69095   0.00000  Uiso   1.00
O964   O     0.46595   0.61559   0.64575   0.00000  Uiso   1.00
O965   O     0.56624   0.51694   0.52494   0.00000  Uiso   1.00
H966   H     0.56144   0.51372   0.99249   0.00000  Uiso   1.00
O967   O     0.48751   0.41754   0.97750   0.00000  Uiso   1.00
H968   H     0.48902   0.39034   0.95752   0.00000  Uiso   1.00
O969   O     0.48115   0.58595   0.97270   0.00000  Uiso   1.00
H970   H     0.48187   0.58221   0.50532   0.00000  Uiso   1.00
O971   O     0.41997   0.48370   0.52356   0.00000  Uiso   1.00
H972   H     0.39743   0.47759   0.54375   0.00000  Uiso   1.00
O973   O     0.57128   0.51692   0.61323   0.00000  Uiso   1.00
H974   H     0.57035   0.51407   0.64583   0.00000  Uiso   1.00
O975   O     0.47267   0.41635   0.88524   0.00000  Uiso   1.00
H976   H     0.45288   0.42307   0.86014   0.00000  Uiso   1.00
O977   O     0.47077   0.58367   0.88450   0.00000  Uiso   1.00
H978   H     0.45170   0.57645   0.85890   0.00000  Uiso   1.00
O979   O     0.42286   0.48382   0.61641   0.00000  Uiso   1.00
H980   H     0.42714   0.48872   0.64871   0.00000  Uiso   1.00
O981   O     0.77321   0.53958   0.74999   0.00000  Uiso   1.00
O982   O     0.89345   0.46042   0.75001   0.00000  Uiso   1.00
O983   O     0.89345   0.53958   0.75001   0.00000  Uiso   1.00
O984   O     0.77321   0.46042   0.74999   0.00000  Uiso   1.00
N985   N     0.83333   0.61736   0.75000   0.00000  Uiso   1.00
N986   N     0.83333   0.38264   0.75000   0.00000  Uiso   1.00
C987   C     0.75409   0.50000   0.74999   0.00000  Uiso   1.00
C988   C     0.91254   0.50000   0.74894   0.00000  Uiso   1.00
O989   O     0.83333   0.53959   0.68573   0.00000  Uiso   1.00
O990   O     0.83334   0.46041   0.81427   0.00000  Uiso   1.00
O991   O     0.83334   0.53959   0.81427   0.00000  Uiso   1.00
O992   O     0.83333   0.46041   0.68573   0.00000  Uiso   1.00
C993   C     0.83311   0.50000   0.66523   0.00000  Uiso   1.00
C994   C     0.82820   0.50001   0.83452   0.00000  Uiso   1.00
Cu995  Cu    0.83333   0.54689   0.75000   0.00000  Uiso   1.00
Cu996  Cu    0.83333   0.45311   0.75000   0.00000  Uiso   1.00
C997   C     0.80982   0.35804   0.71924   0.00000  Uiso   1.00
C998   C     0.85753   0.64194   0.78016   0.00000  Uiso   1.00
C999   C     0.85758   0.35806   0.78012   0.00000  Uiso   1.00
C1000  C     0.80981   0.64193   0.71924   0.00000  Uiso   1.00
C1001  C     0.68789   0.45787   0.74837   0.00000  Uiso   1.00
C1002  C     0.97868   0.54213   0.74700   0.00000  Uiso   1.00
C1003  C     0.97869   0.45791   0.74661   0.00000  Uiso   1.00
C1004  C     0.68789   0.54215   0.74874   0.00000  Uiso   1.00
C1005  C     0.86369   0.50862   0.54670   0.00000  Uiso   1.00
C1006  C     0.81965   0.45815   0.95283   0.00000  Uiso   1.00
C1007  C     0.81699   0.54314   0.95200   0.00000  Uiso   1.00
C1008  C     0.78987   0.49146   0.54768   0.00000  Uiso   1.00
C1009  C     0.86627   0.50865   0.59301   0.00000  Uiso   1.00
C1010  C     0.81555   0.45780   0.90620   0.00000  Uiso   1.00
C1011  C     0.81395   0.54246   0.90571   0.00000  Uiso   1.00
C1012  C     0.79210   0.49161   0.59440   0.00000  Uiso   1.00
C1013  C     0.83053   0.50004   0.61697   0.00000  Uiso   1.00
C1014  C     0.81875   0.50008   0.88241   0.00000  Uiso   1.00
H1015  H     0.70374   0.42485   0.74921   0.00000  Uiso   1.00
H1016  H     0.96285   0.57509   0.74535   0.00000  Uiso   1.00
H1017  H     0.96286   0.42496   0.74462   0.00000  Uiso   1.00
H1018  H     0.70374   0.57517   0.74986   0.00000  Uiso   1.00
C1019  C     0.82540   0.50009   0.52418   0.00000  Uiso   1.00
C1020  C     0.82148   0.50077   0.97545   0.00000  Uiso   1.00
C1021  C     0.95715   0.50001   0.74730   0.00000  Uiso   1.00
C1022  C     0.70942   0.50001   0.74934   0.00000  Uiso   1.00
N1023  N     0.78593   0.38188   0.68549   0.00000  Uiso   1.00
O1024  O     0.74687   0.38799   0.69061   0.00000  Uiso   1.00
O1025  O     0.79960   0.38390   0.64560   0.00000  Uiso   1.00
N1026  N     0.88455   0.61814   0.81114   0.00000  Uiso   1.00
O1027  O     0.92301   0.61396   0.80206   0.00000  Uiso   1.00
O1028  O     0.87500   0.61612   0.85251   0.00000  Uiso   1.00
N1029  N     0.88490   0.38184   0.81082   0.00000  Uiso   1.00
O1030  O     0.92325   0.38593   0.80126   0.00000  Uiso   1.00
O1031  O     0.87584   0.38376   0.85234   0.00000  Uiso   1.00
N1032  N     0.78572   0.61805   0.68566   0.00000  Uiso   1.00
O1033  O     0.74665   0.61222   0.69095   0.00000  Uiso   1.00
O1034  O     0.79928   0.61559   0.64575   0.00000  Uiso   1.00
O1035  O     0.89957   0.51694   0.52494   0.00000  Uiso   1.00
H1036  H     0.89478   0.51372   0.99249   0.00000  Uiso   1.00
O1037  O     0.82084   0.41754   0.97750   0.00000  Uiso   1.00
H1038  H     0.82235   0.39034   0.95752   0.00000  Uiso   1.00
O1039  O     0.81448   0.58595   0.97270   0.00000  Uiso   1.00
H1040  H     0.81520   0.58221   0.50532   0.00000  Uiso   1.00
O1041  O     0.75330   0.48370   0.52356   0.00000  Uiso   1.00
H1042  H     0.73076   0.47759   0.54375   0.00000  Uiso   1.00
O1043  O     0.90462   0.51692   0.61323   0.00000  Uiso   1.00
H1044  H     0.90369   0.51407   0.64583   0.00000  Uiso   1.00
O1045  O     0.80600   0.41635   0.88524   0.00000  Uiso   1.00
H1046  H     0.78622   0.42307   0.86014   0.00000  Uiso   1.00
O1047  O     0.80411   0.58367   0.88450   0.00000  Uiso   1.00
H1048  H     0.78504   0.57645   0.85890   0.00000  Uiso   1.00
O1049  O     0.75619   0.48382   0.61641   0.00000  Uiso   1.00
H1050  H     0.76048   0.48872   0.64871   0.00000  Uiso   1.00
O1051  O     0.10655   0.87291   0.74999   0.00000  Uiso   1.00
O1052  O     0.22679   0.79375   0.75001   0.00000  Uiso   1.00
O1053  O     0.22679   0.87291   0.75001   0.00000  Uiso   1.00
O1054  O     0.10655   0.79375   0.74999   0.00000  Uiso   1.00
N1055  N     0.16667   0.95069   0.75000   0.00000  Uiso   1.00
N1056  N     0.16667   0.71598   0.75000   0.00000  Uiso   1.00
C1057  C     0.08742   0.83334   0.74999   0.00000  Uiso   1.00
C1058  C     0.24587   0.83333   0.74894   0.00000  Uiso   1.00
O1059  O     0.16666   0.87293   0.68573   0.00000  Uiso   1.00
O1060  O     0.16667   0.79374   0.81427   0.00000  Uiso   1.00
O1061  O     0.16667   0.87293   0.81427   0.00000  Uiso   1.00
O1062  O     0.16666   0.79374   0.68573   0.00000  Uiso   1.00
C1063  C     0.16644   0.83334   0.66523   0.00000  Uiso   1.00
C1064  C     0.16153   0.83335   0.83452   0.00000  Uiso   1.00
Cu1065 Cu    0.16667   0.88022   0.75000   0.00000  Uiso   1.00
Cu1066 Cu    0.16667   0.78645   0.75000   0.00000  Uiso   1.00
C1067  C     0.14315   0.69138   0.71924   0.00000  Uiso   1.00
C1068  C     0.19087   0.97528   0.78016   0.00000  Uiso   1.00
C1069  C     0.19091   0.69139   0.78012   0.00000  Uiso   1.00
C1070  C     0.14314   0.97526   0.71924   0.00000  Uiso   1.00
C1071  C     0.02123   0.79121   0.74837   0.00000  Uiso   1.00
C1072  C     0.31202   0.87546   0.74700   0.00000  Uiso   1.00
C1073  C     0.31202   0.79124   0.74661   0.00000  Uiso   1.00
C1074  C     0.02123   0.87548   0.74874   0.00000  Uiso   1.00
C1075  C     0.19702   0.84195   0.54670   0.00000  Uiso   1.00
C1076  C     0.15298   0.79148   0.95283   0.00000  Uiso   1.00
C1077  C     0.15033   0.87648   0.95200   0.00000  Uiso   1.00
C1078  C     0.12321   0.82479   0.54768   0.00000  Uiso   1.00
C1079  C     0.19960   0.84199   0.59301   0.00000  Uiso   1.00
C1080  C     0.14888   0.79113   0.90620   0.00000  Uiso   1.00
C1081  C     0.14729   0.87580   0.90571   0.00000  Uiso   1.00
C1082  C     0.12543   0.82494   0.59440   0.00000  Uiso   1.00
C1083  C     0.16387   0.83337   0.61697   0.00000  Uiso   1.00
C1084  C     0.15208   0.83342   0.88241   0.00000  Uiso   1.00
H1085  H     0.03707   0.75818   0.74921   0.00000  Uiso   1.00
H1086  H     0.29619   0.90842   0.74535   0.00000  Uiso   1.00
H1087  H     0.29620   0.75829   0.74462   0.00000  Uiso   1.00
H1088  H     0.03707   0.90850   0.74986   0.00000  Uiso   1.00
C1089  C     0.15873   0.83342   0.52418   0.00000  Uiso   1.00
C1090  C     0.15481   0.83410   0.97545   0.00000  Uiso   1.00
C1091  C     0.29049   0.83334   0.74730   0.00000  Uiso   1.00
C1092  C     0.04276   0.83334   0.74934   0.00000  Uiso   1.00
N1093  N     0.11926   0.71521   0.68549   0.00000  Uiso   1.00
O1094  O     0.08020   0.72132   0.69061   0.00000  Uiso   1.00
O1095  O     0.13293   0.71723   0.64560   0.00000  Uiso   1.00
N1096  N     0.21788   0.95147   0.81114   0.00000  Uiso   1.00
O1097  O     0.25634   0.94729   0.80206   0.00000  Uiso   1.00
O1098  O     0.20833   0.94945   0.85251   0.00000  Uiso   1.00
N1099  N     0.21823   0.71518   0.81082   0.00000  Uiso   1.00
O1100  O     0.25658   0.71926   0.80126   0.00000  Uiso   1.00
O1101  O     0.20917   0.71709   0.85234   0.00000  Uiso   1.00
N1102  N     0.11906   0.95138   0.68566   0.00000  Uiso   1.00
O1103  O     0.07999   0.94556   0.69095   0.00000  Uiso   1.00
O1104  O     0.13262   0.94892   0.64575   0.00000  Uiso   1.00
O1105  O     0.23290   0.85028   0.52494   0.00000  Uiso   1.00
H1106  H     0.22811   0.84705   0.99249   0.00000  Uiso   1.00
O1107  O     0.15417   0.75088   0.97750   0.00000  Uiso   1.00
H1108  H     0.15569   0.72368   0.95752   0.00000  Uiso   1.00
O1109  O     0.14781   0.91928   0.97270   0.00000  Uiso   1.00
H1110  H     0.14854   0.91555   0.50532   0.00000  Uiso   1.00
O1111  O     0.08664   0.81704   0.52356   0.00000  Uiso   1.00
H1112  H     0.06409   0.81093   0.54375   0.00000  Uiso   1.00
O1113  O     0.23795   0.85025   0.61323   0.00000  Uiso   1.00
H1114  H     0.23702   0.84741   0.64583   0.00000  Uiso   1.00
O1115  O     0.13934   0.74968   0.88524   0.00000  Uiso   1.00
H1116  H     0.11955   0.75640   0.86014   0.00000  Uiso   1.00
O1117  O     0.13744   0.91701   0.88450   0.00000  Uiso   1.00
H1118  H     0.11837   0.90978   0.85890   0.00000  Uiso   1.00
O1119  O     0.08952   0.81715   0.61641   0.00000  Uiso   1.00
H1120  H     0.09381   0.82205   0.64871   0.00000  Uiso   1.00
O1121  O     0.43988   0.87291   0.74999   0.00000  Uiso   1.00
O1122  O     0.56012   0.79375   0.75001   0.00000  Uiso   1.00
O1123  O     0.56012   0.87291   0.75001   0.00000  Uiso   1.00
O1124  O     0.43988   0.79375   0.74999   0.00000  Uiso   1.00
N1125  N     0.50000   0.95069   0.75000   0.00000  Uiso   1.00
N1126  N     0.50000   0.71598   0.75000   0.00000  Uiso   1.00
C1127  C     0.42075   0.83334   0.74999   0.00000  Uiso   1.00
C1128  C     0.57921   0.83333   0.74894   0.00000  Uiso   1.00
O1129  O     0.50000   0.87293   0.68573   0.00000  Uiso   1.00
O1130  O     0.50000   0.79374   0.81427   0.00000  Uiso   1.00
O1131  O     0.50000   0.87293   0.81427   0.00000  Uiso   1.00
O1132  O     0.50000   0.79374   0.68573   0.00000  Uiso   1.00
C1133  C     0.49977   0.83334   0.66523   0.00000  Uiso   1.00
C1134  C     0.49486   0.83335   0.83452   0.00000  Uiso   1.00
Cu1135 Cu    0.50000   0.88022   0.75000   0.00000  Uiso   1.00
Cu1136 Cu    0.50000   0.78645   0.75000   0.00000  Uiso   1.00
C1137  C     0.47648   0.69138   0.71924   0.00000  Uiso   1.00
C1138  C     0.52420   0.97528   0.78016   0.00000  Uiso   1.00
C1139  C     0.52425   0.69139   0.78012   0.00000  Uiso   1.00
C1140  C     0.47647   0.97526   0.71924   0.00000  Uiso   1.00
C1141  C     0.35456   0.79121   0.74837   0.00000  Uiso   1.00
C1142  C     0.64535   0.87546   0.74700   0.00000  Uiso   1.00
C1143  C     0.64535   0.79124   0.74661   0.00000  Uiso   1.00
C1144  C     0.35456   0.87548   0.74874   0.00000  Uiso   1.00
C1145  C     0.53036   0.84195   0.54670   0.00000  Uiso   1.00
C1146  C     0.48632   0.79148   0.95283   0.00000  Uiso   1.00
C1147  C     0.48366   0.87648   0.95200   0.00000  Uiso   1.00
C1148  C     0.45654   0.82479   0.54768   0.00000  Uiso   1.00
C1149  C     0.53293   0.84199   0.59301   0.00000  Uiso   1.00
C1150  C     0.48221   0.79113   0.90620   0.00000  Uiso   1.00
C1151  C     0.48062   0.87580   0.90571   0.00000  Uiso   1.00
C1152  C     0.45876   0.82494   0.59440   0.00000  Uiso   1.00
C1153  C     0.49720   0.83337   0.61697   0.00000  Uiso   1.00
C1154  C     0.48542   0.83342   0.88241   0.00000  Uiso   1.00
H1155  H     0.37041   0.75818   0.74921   0.00000  Uiso   1.00
H1156  H     0.62952   0.90842   0.74535   0.00000  Uiso   1.00
H1157  H     0.62953   0.75829   0.74462   0.00000  Uiso   1.00
H1158  H     0.37041   0.90850   0.74986   0.00000  Uiso   1.00
C1159  C     0.49206   0.83342   0.52418   0.00000  Uiso   1.00
C1160  C     0.48815   0.83410   0.97545   0.00000  Uiso   1.00
C1161  C     0.62382   0.83334   0.74730   0.00000  Uiso   1.00
C1162  C     0.37609   0.83334   0.74934   0.00000  Uiso   1.00
N1163  N     0.45260   0.71521   0.68549   0.00000  Uiso   1.00
O1164  O     0.41354   0.72132   0.69061   0.00000  Uiso   1.00
O1165  O     0.46626   0.71723   0.64560   0.00000  Uiso   1.00
N1166  N     0.55121   0.95147   0.81114   0.00000  Uiso   1.00
O1167  O     0.58968   0.94729   0.80206   0.00000  Uiso   1.00
O1168  O     0.54167   0.94945   0.85251   0.00000  Uiso   1.00
N1169  N     0.55156   0.71518   0.81082   0.00000  Uiso   1.00
O1170  O     0.58992   0.71926   0.80126   0.00000  Uiso   1.00
O1171  O     0.54250   0.71709   0.85234   0.00000  Uiso   1.00
N1172  N     0.45239   0.95138   0.68566   0.00000  Uiso   1.00
O1173  O     0.41332   0.94556   0.69095   0.00000  Uiso   1.00
O1174  O     0.46595   0.94892   0.64575   0.00000  Uiso   1.00
O1175  O     0.56624   0.85028   0.52494   0.00000  Uiso   1.00
H1176  H     0.56144   0.84705   0.99249   0.00000  Uiso   1.00
O1177  O     0.48751   0.75088   0.97750   0.00000  Uiso   1.00
H1178  H     0.48902   0.72368   0.95752   0.00000  Uiso   1.00
O1179  O     0.48115   0.91928   0.97270   0.00000  Uiso   1.00
H1180  H     0.48187   0.91555   0.50532   0.00000  Uiso   1.00
O1181  O     0.41997   0.81704   0.52356   0.00000  Uiso   1.00
H1182  H     0.39743   0.81093   0.54375   0.00000  Uiso   1.00
O1183  O     0.57128   0.85025   0.61323   0.00000  Uiso   1.00
H1184  H     0.57035   0.84741   0.64583   0.00000  Uiso   1.00
O1185  O     0.47267   0.74968   0.88524   0.00000  Uiso   1.00
H1186  H     0.45288   0.75640   0.86014   0.00000  Uiso   1.00
O1187  O     0.47077   0.91701   0.88450   0.00000  Uiso   1.00
H1188  H     0.45170   0.90978   0.85890   0.00000  Uiso   1.00
O1189  O     0.42286   0.81715   0.61641   0.00000  Uiso   1.00
H1190  H     0.42714   0.82205   0.64871   0.00000  Uiso   1.00
O1191  O     0.77321   0.87291   0.74999   0.00000  Uiso   1.00
O1192  O     0.89345   0.79375   0.75001   0.00000  Uiso   1.00
O1193  O     0.89345   0.87291   0.75001   0.00000  Uiso   1.00
O1194  O     0.77321   0.79375   0.74999   0.00000  Uiso   1.00
N1195  N     0.83333   0.95069   0.75000   0.00000  Uiso   1.00
N1196  N     0.83333   0.71598   0.75000   0.00000  Uiso   1.00
C1197  C     0.75409   0.83334   0.74999   0.00000  Uiso   1.00
C1198  C     0.91254   0.83333   0.74894   0.00000  Uiso   1.00
O1199  O     0.83333   0.87293   0.68573   0.00000  Uiso   1.00
O1200  O     0.83334   0.79374   0.81427   0.00000  Uiso   1.00
O1201  O     0.83334   0.87293   0.81427   0.00000  Uiso   1.00
O1202  O     0.83333   0.79374   0.68573   0.00000  Uiso   1.00
C1203  C     0.83311   0.83334   0.66523   0.00000  Uiso   1.00
C1204  C     0.82820   0.83335   0.83452   0.00000  Uiso   1.00
Cu1205 Cu    0.83333   0.88022   0.75000   0.00000  Uiso   1.00
Cu1206 Cu    0.83333   0.78645   0.75000   0.00000  Uiso   1.00
C1207  C     0.80982   0.69138   0.71924   0.00000  Uiso   1.00
C1208  C     0.85753   0.97528   0.78016   0.00000  Uiso   1.00
C1209  C     0.85758   0.69139   0.78012   0.00000  Uiso   1.00
C1210  C     0.80981   0.97526   0.71924   0.00000  Uiso   1.00
C1211  C     0.68789   0.79121   0.74837   0.00000  Uiso   1.00
C1212  C     0.97868   0.87546   0.74700   0.00000  Uiso   1.00
C1213  C     0.97869   0.79124   0.74661   0.00000  Uiso   1.00
C1214  C     0.68789   0.87548   0.74874   0.00000  Uiso   1.00
C1215  C     0.86369   0.84195   0.54670   0.00000  Uiso   1.00
C1216  C     0.81965   0.79148   0.95283   0.00000  Uiso   1.00
C1217  C     0.81699   0.87648   0.95200   0.00000  Uiso   1.00
C1218  C     0.78987   0.82479   0.54768   0.00000  Uiso   1.00
C1219  C     0.86627   0.84199   0.59301   0.00000  Uiso   1.00
C1220  C     0.81555   0.79113   0.90620   0.00000  Uiso   1.00
C1221  C     0.81395   0.87580   0.90571   0.00000  Uiso   1.00
C1222  C     0.79210   0.82494   0.59440   0.00000  Uiso   1.00
C1223  C     0.83053   0.83337   0.61697   0.00000  Uiso   1.00
C1224  C     0.81875   0.83342   0.88241   0.00000  Uiso   1.00
H1225  H     0.70374   0.75818   0.74921   0.00000  Uiso   1.00
H1226  H     0.96285   0.90842   0.74535   0.00000  Uiso   1.00
H1227  H     0.96286   0.75829   0.74462   0.00000  Uiso   1.00
H1228  H     0.70374   0.90850   0.74986   0.00000  Uiso   1.00
C1229  C     0.82540   0.83342   0.52418   0.00000  Uiso   1.00
C1230  C     0.82148   0.83410   0.97545   0.00000  Uiso   1.00
C1231  C     0.95715   0.83334   0.74730   0.00000  Uiso   1.00
C1232  C     0.70942   0.83334   0.74934   0.00000  Uiso   1.00
N1233  N     0.78593   0.71521   0.68549   0.00000  Uiso   1.00
O1234  O     0.74687   0.72132   0.69061   0.00000  Uiso   1.00
O1235  O     0.79960   0.71723   0.64560   0.00000  Uiso   1.00
N1236  N     0.88455   0.95147   0.81114   0.00000  Uiso   1.00
O1237  O     0.92301   0.94729   0.80206   0.00000  Uiso   1.00
O1238  O     0.87500   0.94945   0.85251   0.00000  Uiso   1.00
N1239  N     0.88490   0.71518   0.81082   0.00000  Uiso   1.00
O1240  O     0.92325   0.71926   0.80126   0.00000  Uiso   1.00
O1241  O     0.87584   0.71709   0.85234   0.00000  Uiso   1.00
N1242  N     0.78572   0.95138   0.68566   0.00000  Uiso   1.00
O1243  O     0.74665   0.94556   0.69095   0.00000  Uiso   1.00
O1244  O     0.79928   0.94892   0.64575   0.00000  Uiso   1.00
O1245  O     0.89957   0.85028   0.52494   0.00000  Uiso   1.00
H1246  H     0.89478   0.84705   0.99249   0.00000  Uiso   1.00
O1247  O     0.82084   0.75088   0.97750   0.00000  Uiso   1.00
H1248  H     0.82235   0.72368   0.95752   0.00000  Uiso   1.00
O1249  O     0.81448   0.91928   0.97270   0.00000  Uiso   1.00
H1250  H     0.81520   0.91555   0.50532   0.00000  Uiso   1.00
O1251  O     0.75330   0.81704   0.52356   0.00000  Uiso   1.00
H1252  H     0.73076   0.81093   0.54375   0.00000  Uiso   1.00
O1253  O     0.90462   0.85025   0.61323   0.00000  Uiso   1.00
H1254  H     0.90369   0.84741   0.64583   0.00000  Uiso   1.00
O1255  O     0.80600   0.74968   0.88524   0.00000  Uiso   1.00
H1256  H     0.78622   0.75640   0.86014   0.00000  Uiso   1.00
O1257  O     0.80411   0.91701   0.88450   0.00000  Uiso   1.00
H1258  H     0.78504   0.90978   0.85890   0.00000  Uiso   1.00
O1259  O     0.75619   0.81715   0.61641   0.00000  Uiso   1.00
H1260  H     0.76048   0.82205   0.64871   0.00000  Uiso   1.00
loop_
_geom_bond_atom_site_label_1
_geom_bond_atom_site_label_2
_geom_bond_distance
_geom_bond_site_symmetry_2
_ccdc_geom_bond_type
O1     Cu15    1.968   .     S
O1     C7      1.298   .     A
O2     Cu16    1.968   .     S
O2     C8      1.299   .     A
O3     Cu15    1.968   .     S
O3     C8      1.298   .     A
O4     Cu16    1.968   .     S
O4     C7      1.298   .     A
N5     C20     1.373   .     A
N5     Cu15    2.028   .     S
N5     C18     1.373   .     A
N6     C19     1.373   .     A
N6     Cu16    2.028   .     S
N6     C17     1.373   .     A
C7     C42     1.453   .     S
C8     C41     1.455   .     S
O9     Cu15    1.948   .     S
O9     C13     1.296   .     A
O10    Cu16    1.948   .     S
O10    C14     1.307   .     A
O11    Cu15    1.948   .     S
O11    C14     1.307   .     A
O12    Cu16    1.948   .     S
O12    C13     1.296   .     A
C13    C33     1.453   .     S
C14    C34     1.489   .     S
Cu15   Cu16    2.698   .     S
C17    N43     1.429   .     S
C17    C440    1.423   1_545 S
C18    N46     1.429   .     S
C18    C229    1.423   .     S
C19    N49     1.429   .     S
C19    C438    1.423   1_545 S
C20    N52     1.429   .     S
C20    C227    1.423   .     S
C21    H35     1.081   .     S
C21    C42     1.400   .     A
C21    C163    1.383   1_455 S
C22    C41     1.400   .     A
C22    H36     1.079   .     S
C22    C94     1.383   .     S
C23    C41     1.400   .     A
C23    H37     1.079   .     S
C23    C91     1.383   .     S
C24    H38     1.081   .     S
C24    C42     1.400   .     A
C24    C162    1.383   1_455 S
C25    C39     1.415   .     A
C25    C29     1.395   .     A
C25    O55     1.385   .     S
C26    C40     1.403   .     A
C26    O57     1.385   .     S
C26    C30     1.406   .     A
C27    C40     1.414   .     A
C27    O59     1.385   .     S
C27    C31     1.395   .     A
C28    O61     1.386   .     S
C28    C32     1.407   .     A
C28    C39     1.404   .     A
C29    C33     1.417   .     A
C29    O63     1.386   .     S
C30    O65     1.379   .     S
C30    C34     1.419   .     A
C31    C34     1.419   .     A
C31    O67     1.378   .     S
C32    O69     1.387   .     S
C32    C33     1.419   .     A
C39    C670    1.469   1_554 S
C40    C669    1.469   .     S
N43    O44     1.299   .     A
N43    O45     1.301   .     A
N46    O48     1.299   .     A
N46    O47     1.299   .     A
N49    O50     1.299   .     A
N49    O51     1.299   .     A
N52    O54     1.301   .     A
N52    O53     1.299   .     A
O55    H686    0.988   1_554 S
H56    O685    0.988   .     S
O57    H58     0.990   .     S
O59    H690    0.988   .     S
H60    O689    0.988   1_554 S
O61    H62     0.989   .     S
O63    H64     0.988   .     S
O65    H66     0.991   .     S
O67    H68     0.991   .     S
O69    H70     0.988   .     S
O71    Cu85    1.968   .     S
O71    C77     1.298   .     A
O72    Cu86    1.968   .     S
O72    C78     1.299   .     A
O73    Cu85    1.968   .     S
O73    C78     1.298   .     A
O74    Cu86    1.968   .     S
O74    C77     1.298   .     A
N75    C90     1.373   .     A
N75    Cu85    2.028   .     S
N75    C88     1.373   .     A
N76    C89     1.373   .     A
N76    Cu86    2.028   .     S
N76    C87     1.373   .     A
C77    C112    1.453   .     S
C78    C111    1.455   .     S
O79    Cu85    1.948   .     S
O79    C83     1.296   .     A
O80    Cu86    1.948   .     S
O80    C84     1.307   .     A
O81    Cu85    1.948   .     S
O81    C84     1.307   .     A
O82    Cu86    1.948   .     S
O82    C83     1.296   .     A
C83    C103    1.453   .     S
C84    C104    1.489   .     S
Cu85   Cu86    2.698   .     S
C87    N113    1.429   .     S
C87    C510    1.423   1_545 S
C88    N116    1.429   .     S
C88    C299    1.423   .     S
C89    N119    1.429   .     S
C89    C508    1.423   1_545 S
C90    N122    1.429   .     S
C90    C297    1.423   .     S
C91    H105    1.081   .     S
C91    C112    1.400   .     A
C92    C111    1.400   .     A
C92    H106    1.079   .     S
C92    C164    1.383   .     S
C93    C111    1.400   .     A
C93    H107    1.079   .     S
C93    C161    1.383   .     S
C94    H108    1.081   .     S
C94    C112    1.400   .     A
C95    C109    1.415   .     A
C95    C99     1.395   .     A
C95    O125    1.385   .     S
C96    C110    1.403   .     A
C96    O127    1.385   .     S
C96    C100    1.406   .     A
C97    C110    1.414   .     A
C97    O129    1.385   .     S
C97    C101    1.395   .     A
C98    O131    1.386   .     S
C98    C102    1.407   .     A
C98    C109    1.404   .     A
C99    C103    1.417   .     A
C99    O133    1.386   .     S
C100   O135    1.379   .     S
C100   C104    1.419   .     A
C101   C104    1.419   .     A
C101   O137    1.378   .     S
C102   O139    1.387   .     S
C102   C103    1.419   .     A
C109   C740    1.469   1_554 S
C110   C739    1.469   .     S
N113   O114    1.299   .     A
N113   O115    1.301   .     A
N116   O118    1.299   .     A
N116   O117    1.299   .     A
N119   O120    1.299   .     A
N119   O121    1.299   .     A
N122   O124    1.301   .     A
N122   O123    1.299   .     A
O125   H756    0.988   1_554 S
H126   O755    0.988   .     S
O127   H128    0.990   .     S
O129   H760    0.988   .     S
H130   O759    0.988   1_554 S
O131   H132    0.989   .     S
O133   H134    0.988   .     S
O135   H136    0.991   .     S
O137   H138    0.991   .     S
O139   H140    0.988   .     S
O141   Cu155   1.968   .     S
O141   C147    1.298   .     A
O142   Cu156   1.968   .     S
O142   C148    1.299   .     A
O143   Cu155   1.968   .     S
O143   C148    1.298   .     A
O144   Cu156   1.968   .     S
O144   C147    1.298   .     A
N145   C160    1.373   .     A
N145   Cu155   2.028   .     S
N145   C158    1.373   .     A
N146   C159    1.373   .     A
N146   Cu156   2.028   .     S
N146   C157    1.373   .     A
C147   C182    1.453   .     S
C148   C181    1.455   .     S
O149   Cu155   1.948   .     S
O149   C153    1.296   .     A
O150   Cu156   1.948   .     S
O150   C154    1.307   .     A
O151   Cu155   1.948   .     S
O151   C154    1.307   .     A
O152   Cu156   1.948   .     S
O152   C153    1.296   .     A
C153   C173    1.453   .     S
C154   C174    1.489   .     S
Cu155  Cu156   2.698   .     S
C157   N183    1.429   .     S
C157   C580    1.423   1_545 S
C158   N186    1.429   .     S
C158   C369    1.423   .     S
C159   N189    1.429   .     S
C159   C578    1.423   1_545 S
C160   N192    1.429   .     S
C160   C367    1.423   .     S
C161   H175    1.081   .     S
C161   C182    1.400   .     A
C162   C181    1.400   .     A
C162   H176    1.079   .     S
C162   C24     1.383   1_655 S
C163   C181    1.400   .     A
C163   H177    1.079   .     S
C163   C21     1.383   1_655 S
C164   H178    1.081   .     S
C164   C182    1.400   .     A
C165   C179    1.415   .     A
C165   C169    1.395   .     A
C165   O195    1.385   .     S
C166   C180    1.403   .     A
C166   O197    1.385   .     S
C166   C170    1.406   .     A
C167   C180    1.414   .     A
C167   O199    1.385   .     S
C167   C171    1.395   .     A
C168   O201    1.386   .     S
C168   C172    1.407   .     A
C168   C179    1.404   .     A
C169   C173    1.417   .     A
C169   O203    1.386   .     S
C170   O205    1.379   .     S
C170   C174    1.419   .     A
C171   C174    1.419   .     A
C171   O207    1.378   .     S
C172   O209    1.387   .     S
C172   C173    1.419   .     A
C179   C810    1.469   1_554 S
C180   C809    1.469   .     S
N183   O184    1.299   .     A
N183   O185    1.301   .     A
N186   O188    1.299   .     A
N186   O187    1.299   .     A
N189   O190    1.299   .     A
N189   O191    1.299   .     A
N192   O194    1.301   .     A
N192   O193    1.299   .     A
O195   H826    0.988   1_554 S
H196   O825    0.988   .     S
O197   H198    0.990   .     S
O199   H830    0.988   .     S
H200   O829    0.988   1_554 S
O201   H202    0.989   .     S
O203   H204    0.988   .     S
O205   H206    0.991   .     S
O207   H208    0.991   .     S
O209   H210    0.988   .     S
O211   Cu225   1.968   .     S
O211   C217    1.298   .     A
O212   Cu226   1.968   .     S
O212   C218    1.299   .     A
O213   Cu225   1.968   .     S
O213   C218    1.298   .     A
O214   Cu226   1.968   .     S
O214   C217    1.298   .     A
N215   C230    1.373   .     A
N215   Cu225   2.028   .     S
N215   C228    1.373   .     A
N216   C229    1.373   .     A
N216   Cu226   2.028   .     S
N216   C227    1.373   .     A
C217   C252    1.453   .     S
C218   C251    1.455   .     S
O219   Cu225   1.948   .     S
O219   C223    1.296   .     A
O220   Cu226   1.948   .     S
O220   C224    1.307   .     A
O221   Cu225   1.948   .     S
O221   C224    1.307   .     A
O222   Cu226   1.948   .     S
O222   C223    1.296   .     A
C223   C243    1.453   .     S
C224   C244    1.489   .     S
Cu225  Cu226   2.698   .     S
C227   N253    1.429   .     S
C228   N256    1.429   .     S
C228   C439    1.423   .     S
C229   N259    1.429   .     S
C230   N262    1.429   .     S
C230   C437    1.423   .     S
C231   H245    1.081   .     S
C231   C252    1.400   .     A
C231   C373    1.383   1_455 S
C232   C251    1.400   .     A
C232   H246    1.079   .     S
C232   C304    1.383   .     S
C233   C251    1.400   .     A
C233   H247    1.079   .     S
C233   C301    1.383   .     S
C234   H248    1.081   .     S
C234   C252    1.400   .     A
C234   C372    1.383   1_455 S
C235   C249    1.415   .     A
C235   C239    1.395   .     A
C235   O265    1.385   .     S
C236   C250    1.403   .     A
C236   O267    1.385   .     S
C236   C240    1.406   .     A
C237   C250    1.414   .     A
C237   O269    1.385   .     S
C237   C241    1.395   .     A
C238   O271    1.386   .     S
C238   C242    1.407   .     A
C238   C249    1.404   .     A
C239   C243    1.417   .     A
C239   O273    1.386   .     S
C240   O275    1.379   .     S
C240   C244    1.419   .     A
C241   C244    1.419   .     A
C241   O277    1.378   .     S
C242   O279    1.387   .     S
C242   C243    1.419   .     A
C249   C880    1.469   1_554 S
C250   C879    1.469   .     S
N253   O254    1.299   .     A
N253   O255    1.301   .     A
N256   O258    1.299   .     A
N256   O257    1.299   .     A
N259   O260    1.299   .     A
N259   O261    1.299   .     A
N262   O264    1.301   .     A
N262   O263    1.299   .     A
O265   H896    0.988   1_554 S
H266   O895    0.988   .     S
O267   H268    0.990   .     S
O269   H900    0.988   .     S
H270   O899    0.988   1_554 S
O271   H272    0.989   .     S
O273   H274    0.988   .     S
O275   H276    0.991   .     S
O277   H278    0.991   .     S
O279   H280    0.988   .     S
O281   Cu295   1.968   .     S
O281   C287    1.298   .     A
O282   Cu296   1.968   .     S
O282   C288    1.299   .     A
O283   Cu295   1.968   .     S
O283   C288    1.298   .     A
O284   Cu296   1.968   .     S
O284   C287    1.298   .     A
N285   C300    1.373   .     A
N285   Cu295   2.028   .     S
N285   C298    1.373   .     A
N286   C299    1.373   .     A
N286   Cu296   2.028   .     S
N286   C297    1.373   .     A
C287   C322    1.453   .     S
C288   C321    1.455   .     S
O289   Cu295   1.948   .     S
O289   C293    1.296   .     A
O290   Cu296   1.948   .     S
O290   C294    1.307   .     A
O291   Cu295   1.948   .     S
O291   C294    1.307   .     A
O292   Cu296   1.948   .     S
O292   C293    1.296   .     A
C293   C313    1.453   .     S
C294   C314    1.489   .     S
Cu295  Cu296   2.698   .     S
C297   N323    1.429   .     S
C298   N326    1.429   .     S
C298   C509    1.423   .     S
C299   N329    1.429   .     S
C300   N332    1.429   .     S
C300   C507    1.423   .     S
C301   H315    1.081   .     S
C301   C322    1.400   .     A
C302   C321    1.400   .     A
C302   H316    1.079   .     S
C302   C374    1.383   .     S
C303   C321    1.400   .     A
C303   H317    1.079   .     S
C303   C371    1.383   .     S
C304   H318    1.081   .     S
C304   C322    1.400   .     A
C305   C319    1.415   .     A
C305   C309    1.395   .     A
C305   O335    1.385   .     S
C306   C320    1.403   .     A
C306   O337    1.385   .     S
C306   C310    1.406   .     A
C307   C320    1.414   .     A
C307   O339    1.385   .     S
C307   C311    1.395   .     A
C308   O341    1.386   .     S
C308   C312    1.407   .     A
C308   C319    1.404   .     A
C309   C313    1.417   .     A
C309   O343    1.386   .     S
C310   O345    1.379   .     S
C310   C314    1.419   .     A
C311   C314    1.419   .     A
C311   O347    1.378   .     S
C312   O349    1.387   .     S
C312   C313    1.419   .     A
C319   C950    1.469   1_554 S
C320   C949    1.469   .     S
N323   O324    1.299   .     A
N323   O325    1.301   .     A
N326   O328    1.299   .     A
N326   O327    1.299   .     A
N329   O330    1.299   .     A
N329   O331    1.299   .     A
N332   O334    1.301   .     A
N332   O333    1.299   .     A
O335   H966    0.988   1_554 S
H336   O965    0.988   .     S
O337   H338    0.990   .     S
O339   H970    0.988   .     S
H340   O969    0.988   1_554 S
O341   H342    0.989   .     S
O343   H344    0.988   .     S
O345   H346    0.991   .     S
O347   H348    0.991   .     S
O349   H350    0.988   .     S
O351   Cu365   1.968   .     S
O351   C357    1.298   .     A
O352   Cu366   1.968   .     S
O352   C358    1.299   .     A
O353   Cu365   1.968   .     S
O353   C358    1.298   .     A
O354   Cu366   1.968   .     S
O354   C357    1.298   .     A
N355   C370    1.373   .     A
N355   Cu365   2.028   .     S
N355   C368    1.373   .     A
N356   C369    1.373   .     A
N356   Cu366   2.028   .     S
N356   C367    1.373   .     A
C357   C392    1.453   .     S
C358   C391    1.455   .     S
O359   Cu365   1.948   .     S
O359   C363    1.296   .     A
O360   Cu366   1.948   .     S
O360   C364    1.307   .     A
O361   Cu365   1.948   .     S
O361   C364    1.307   .     A
O362   Cu366   1.948   .     S
O362   C363    1.296   .     A
C363   C383    1.453   .     S
C364   C384    1.489   .     S
Cu365  Cu366   2.698   .     S
C367   N393    1.429   .     S
C368   N396    1.429   .     S
C368   C579    1.423   .     S
C369   N399    1.429   .     S
C370   N402    1.429   .     S
C370   C577    1.423   .     S
C371   H385    1.081   .     S
C371   C392    1.400   .     A
C372   C391    1.400   .     A
C372   H386    1.079   .     S
C372   C234    1.383   1_655 S
C373   C391    1.400   .     A
C373   H387    1.079   .     S
C373   C231    1.383   1_655 S
C374   H388    1.081   .     S
C374   C392    1.400   .     A
C375   C389    1.415   .     A
C375   C379    1.395   .     A
C375   O405    1.385   .     S
C376   C390    1.403   .     A
C376   O407    1.385   .     S
C376   C380    1.406   .     A
C377   C390    1.414   .     A
C377   O409    1.385   .     S
C377   C381    1.395   .     A
C378   O411    1.386   .     S
C378   C382    1.407   .     A
C378   C389    1.404   .     A
C379   C383    1.417   .     A
C379   O413    1.386   .     S
C380   O415    1.379   .     S
C380   C384    1.419   .     A
C381   C384    1.419   .     A
C381   O417    1.378   .     S
C382   O419    1.387   .     S
C382   C383    1.419   .     A
C389   C1020   1.469   1_554 S
C390   C1019   1.469   .     S
N393   O394    1.299   .     A
N393   O395    1.301   .     A
N396   O398    1.299   .     A
N396   O397    1.299   .     A
N399   O400    1.299   .     A
N399   O401    1.299   .     A
N402   O404    1.301   .     A
N402   O403    1.299   .     A
O405   H1036   0.988   1_554 S
H406   O1035   0.988   .     S
O407   H408    0.990   .     S
O409   H1040   0.988   .     S
H410   O1039   0.988   1_554 S
O411   H412    0.989   .     S
O413   H414    0.988   .     S
O415   H416    0.991   .     S
O417   H418    0.991   .     S
O419   H420    0.988   .     S
O421   Cu435   1.968   .     S
O421   C427    1.298   .     A
O422   Cu436   1.968   .     S
O422   C428    1.299   .     A
O423   Cu435   1.968   .     S
O423   C428    1.298   .     A
O424   Cu436   1.968   .     S
O424   C427    1.298   .     A
N425   C440    1.373   .     A
N425   Cu435   2.028   .     S
N425   C438    1.373   .     A
N426   C439    1.373   .     A
N426   Cu436   2.028   .     S
N426   C437    1.373   .     A
C427   C462    1.453   .     S
C428   C461    1.455   .     S
O429   Cu435   1.948   .     S
O429   C433    1.296   .     A
O430   Cu436   1.948   .     S
O430   C434    1.307   .     A
O431   Cu435   1.948   .     S
O431   C434    1.307   .     A
O432   Cu436   1.948   .     S
O432   C433    1.296   .     A
C433   C453    1.453   .     S
C434   C454    1.489   .     S
Cu435  Cu436   2.698   .     S
C437   N463    1.429   .     S
C438   N466    1.429   .     S
C438   C19     1.423   1_565 S
C439   N469    1.429   .     S
C440   N472    1.429   .     S
C440   C17     1.423   1_565 S
C441   H455    1.081   .     S
C441   C462    1.400   .     A
C441   C583    1.383   1_455 S
C442   C461    1.400   .     A
C442   H456    1.079   .     S
C442   C514    1.383   .     S
C443   C461    1.400   .     A
C443   H457    1.079   .     S
C443   C511    1.383   .     S
C444   H458    1.081   .     S
C444   C462    1.400   .     A
C444   C582    1.383   1_455 S
C445   C459    1.415   .     A
C445   C449    1.395   .     A
C445   O475    1.385   .     S
C446   C460    1.403   .     A
C446   O477    1.385   .     S
C446   C450    1.406   .     A
C447   C460    1.414   .     A
C447   O479    1.385   .     S
C447   C451    1.395   .     A
C448   O481    1.386   .     S
C448   C452    1.407   .     A
C448   C459    1.404   .     A
C449   C453    1.417   .     A
C449   O483    1.386   .     S
C450   O485    1.379   .     S
C450   C454    1.419   .     A
C451   C454    1.419   .     A
C451   O487    1.378   .     S
C452   O489    1.387   .     S
C452   C453    1.419   .     A
C459   C1090   1.469   1_554 S
C460   C1089   1.469   .     S
N463   O464    1.299   .     A
N463   O465    1.301   .     A
N466   O468    1.299   .     A
N466   O467    1.299   .     A
N469   O470    1.299   .     A
N469   O471    1.299   .     A
N472   O474    1.301   .     A
N472   O473    1.299   .     A
O475   H1106   0.988   1_554 S
H476   O1105   0.988   .     S
O477   H478    0.990   .     S
O479   H1110   0.988   .     S
H480   O1109   0.988   1_554 S
O481   H482    0.989   .     S
O483   H484    0.988   .     S
O485   H486    0.991   .     S
O487   H488    0.991   .     S
O489   H490    0.988   .     S
O491   Cu505   1.968   .     S
O491   C497    1.298   .     A
O492   Cu506   1.968   .     S
O492   C498    1.299   .     A
O493   Cu505   1.968   .     S
O493   C498    1.298   .     A
O494   Cu506   1.968   .     S
O494   C497    1.298   .     A
N495   C510    1.373   .     A
N495   Cu505   2.028   .     S
N495   C508    1.373   .     A
N496   C509    1.373   .     A
N496   Cu506   2.028   .     S
N496   C507    1.373   .     A
C497   C532    1.453   .     S
C498   C531    1.455   .     S
O499   Cu505   1.948   .     S
O499   C503    1.296   .     A
O500   Cu506   1.948   .     S
O500   C504    1.307   .     A
O501   Cu505   1.948   .     S
O501   C504    1.307   .     A
O502   Cu506   1.948   .     S
O502   C503    1.296   .     A
C503   C523    1.453   .     S
C504   C524    1.489   .     S
Cu505  Cu506   2.698   .     S
C507   N533    1.429   .     S
C508   N536    1.429   .     S
C508   C89     1.423   1_565 S
C509   N539    1.429   .     S
C510   N542    1.429   .     S
C510   C87     1.423   1_565 S
C511   H525    1.081   .     S
C511   C532    1.400   .     A
C512   C531    1.400   .     A
C512   H526    1.079   .     S
C512   C584    1.383   .     S
C513   C531    1.400   .     A
C513   H527    1.079   .     S
C513   C581    1.383   .     S
C514   H528    1.081   .     S
C514   C532    1.400   .     A
C515   C529    1.415   .     A
C515   C519    1.395   .     A
C515   O545    1.385   .     S
C516   C530    1.403   .     A
C516   O547    1.385   .     S
C516   C520    1.406   .     A
C517   C530    1.414   .     A
C517   O549    1.385   .     S
C517   C521    1.395   .     A
C518   O551    1.386   .     S
C518   C522    1.407   .     A
C518   C529    1.404   .     A
C519   C523    1.417   .     A
C519   O553    1.386   .     S
C520   O555    1.379   .     S
C520   C524    1.419   .     A
C521   C524    1.419   .     A
C521   O557    1.378   .     S
C522   O559    1.387   .     S
C522   C523    1.419   .     A
C529   C1160   1.469   1_554 S
C530   C1159   1.469   .     S
N533   O534    1.299   .     A
N533   O535    1.301   .     A
N536   O538    1.299   .     A
N536   O537    1.299   .     A
N539   O540    1.299   .     A
N539   O541    1.299   .     A
N542   O544    1.301   .     A
N542   O543    1.299   .     A
O545   H1176   0.988   1_554 S
H546   O1175   0.988   .     S
O547   H548    0.990   .     S
O549   H1180   0.988   .     S
H550   O1179   0.988   1_554 S
O551   H552    0.989   .     S
O553   H554    0.988   .     S
O555   H556    0.991   .     S
O557   H558    0.991   .     S
O559   H560    0.988   .     S
O561   Cu575   1.968   .     S
O561   C567    1.298   .     A
O562   Cu576   1.968   .     S
O562   C568    1.299   .     A
O563   Cu575   1.968   .     S
O563   C568    1.298   .     A
O564   Cu576   1.968   .     S
O564   C567    1.298   .     A
N565   C580    1.373   .     A
N565   Cu575   2.028   .     S
N565   C578    1.373   .     A
N566   C579    1.373   .     A
N566   Cu576   2.028   .     S
N566   C577    1.373   .     A
C567   C602    1.453   .     S
C568   C601    1.455   .     S
O569   Cu575   1.948   .     S
O569   C573    1.296   .     A
O570   Cu576   1.948   .     S
O570   C574    1.307   .     A
O571   Cu575   1.948   .     S
O571   C574    1.307   .     A
O572   Cu576   1.948   .     S
O572   C573    1.296   .     A
C573   C593    1.453   .     S
C574   C594    1.489   .     S
Cu575  Cu576   2.698   .     S
C577   N603    1.429   .     S
C578   N606    1.429   .     S
C578   C159    1.423   1_565 S
C579   N609    1.429   .     S
C580   N612    1.429   .     S
C580   C157    1.423   1_565 S
C581   H595    1.081   .     S
C581   C602    1.400   .     A
C582   C601    1.400   .     A
C582   H596    1.079   .     S
C582   C444    1.383   1_655 S
C583   C601    1.400   .     A
C583   H597    1.079   .     S
C583   C441    1.383   1_655 S
C584   H598    1.081   .     S
C584   C602    1.400   .     A
C585   C599    1.415   .     A
C585   C589    1.395   .     A
C585   O615    1.385   .     S
C586   C600    1.403   .     A
C586   O617    1.385   .     S
C586   C590    1.406   .     A
C587   C600    1.414   .     A
C587   O619    1.385   .     S
C587   C591    1.395   .     A
C588   O621    1.386   .     S
C588   C592    1.407   .     A
C588   C599    1.404   .     A
C589   C593    1.417   .     A
C589   O623    1.386   .     S
C590   O625    1.379   .     S
C590   C594    1.419   .     A
C591   C594    1.419   .     A
C591   O627    1.378   .     S
C592   O629    1.387   .     S
C592   C593    1.419   .     A
C599   C1230   1.469   1_554 S
C600   C1229   1.469   .     S
N603   O604    1.299   .     A
N603   O605    1.301   .     A
N606   O608    1.299   .     A
N606   O607    1.299   .     A
N609   O610    1.299   .     A
N609   O611    1.299   .     A
N612   O614    1.301   .     A
N612   O613    1.299   .     A
O615   H1246   0.988   1_554 S
H616   O1245   0.988   .     S
O617   H618    0.990   .     S
O619   H1250   0.988   .     S
H620   O1249   0.988   1_554 S
O621   H622    0.989   .     S
O623   H624    0.988   .     S
O625   H626    0.991   .     S
O627   H628    0.991   .     S
O629   H630    0.988   .     S
O631   Cu645   1.968   .     S
O631   C637    1.298   .     A
O632   Cu646   1.968   .     S
O632   C638    1.299   .     A
O633   Cu645   1.968   .     S
O633   C638    1.298   .     A
O634   Cu646   1.968   .     S
O634   C637    1.298   .     A
N635   C650    1.373   .     A
N635   Cu645   2.028   .     S
N635   C648    1.373   .     A
N636   C649    1.373   .     A
N636   Cu646   2.028   .     S
N636   C647    1.373   .     A
C637   C672    1.453   .     S
C638   C671    1.455   .     S
O639   Cu645   1.948   .     S
O639   C643    1.296   .     A
O640   Cu646   1.948   .     S
O640   C644    1.307   .     A
O641   Cu645   1.948   .     S
O641   C644    1.307   .     A
O642   Cu646   1.948   .     S
O642   C643    1.296   .     A
C643   C663    1.453   .     S
C644   C664    1.489   .     S
Cu645  Cu646   2.698   .     S
C647   N673    1.429   .     S
C647   C1070   1.423   1_545 S
C648   N676    1.429   .     S
C648   C859    1.423   .     S
C649   N679    1.429   .     S
C649   C1068   1.423   1_545 S
C650   N682    1.429   .     S
C650   C857    1.423   .     S
C651   H665    1.081   .     S
C651   C672    1.400   .     A
C651   C793    1.383   1_455 S
C652   C671    1.400   .     A
C652   H666    1.079   .     S
C652   C724    1.383   .     S
C653   C671    1.400   .     A
C653   H667    1.079   .     S
C653   C721    1.383   .     S
C654   H668    1.081   .     S
C654   C672    1.400   .     A
C654   C792    1.383   1_455 S
C655   C669    1.415   .     A
C655   C659    1.395   .     A
C655   O685    1.385   .     S
C656   C670    1.403   .     A
C656   O687    1.385   .     S
C656   C660    1.406   .     A
C657   C670    1.414   .     A
C657   O689    1.385   .     S
C657   C661    1.395   .     A
C658   O691    1.386   .     S
C658   C662    1.407   .     A
C658   C669    1.404   .     A
C659   C663    1.417   .     A
C659   O693    1.386   .     S
C660   O695    1.379   .     S
C660   C664    1.419   .     A
C661   C664    1.419   .     A
C661   O697    1.378   .     S
C662   O699    1.387   .     S
C662   C663    1.419   .     A
C670   C39     1.469   1_556 S
N673   O674    1.299   .     A
N673   O675    1.301   .     A
N676   O678    1.299   .     A
N676   O677    1.299   .     A
N679   O680    1.299   .     A
N679   O681    1.299   .     A
N682   O684    1.301   .     A
N682   O683    1.299   .     A
H686   O55     0.988   1_556 S
O687   H688    0.990   .     S
O689   H60     0.988   1_556 S
O691   H692    0.989   .     S
O693   H694    0.988   .     S
O695   H696    0.991   .     S
O697   H698    0.991   .     S
O699   H700    0.988   .     S
O701   Cu715   1.968   .     S
O701   C707    1.298   .     A
O702   Cu716   1.968   .     S
O702   C708    1.299   .     A
O703   Cu715   1.968   .     S
O703   C708    1.298   .     A
O704   Cu716   1.968   .     S
O704   C707    1.298   .     A
N705   C720    1.373   .     A
N705   Cu715   2.028   .     S
N705   C718    1.373   .     A
N706   C719    1.373   .     A
N706   Cu716   2.028   .     S
N706   C717    1.373   .     A
C707   C742    1.453   .     S
C708   C741    1.455   .     S
O709   Cu715   1.948   .     S
O709   C713    1.296   .     A
O710   Cu716   1.948   .     S
O710   C714    1.307   .     A
O711   Cu715   1.948   .     S
O711   C714    1.307   .     A
O712   Cu716   1.948   .     S
O712   C713    1.296   .     A
C713   C733    1.453   .     S
C714   C734    1.489   .     S
Cu715  Cu716   2.698   .     S
C717   N743    1.429   .     S
C717   C1140   1.423   1_545 S
C718   N746    1.429   .     S
C718   C929    1.423   .     S
C719   N749    1.429   .     S
C719   C1138   1.423   1_545 S
C720   N752    1.429   .     S
C720   C927    1.423   .     S
C721   H735    1.081   .     S
C721   C742    1.400   .     A
C722   C741    1.400   .     A
C722   H736    1.079   .     S
C722   C794    1.383   .     S
C723   C741    1.400   .     A
C723   H737    1.079   .     S
C723   C791    1.383   .     S
C724   H738    1.081   .     S
C724   C742    1.400   .     A
C725   C739    1.415   .     A
C725   C729    1.395   .     A
C725   O755    1.385   .     S
C726   C740    1.403   .     A
C726   O757    1.385   .     S
C726   C730    1.406   .     A
C727   C740    1.414   .     A
C727   O759    1.385   .     S
C727   C731    1.395   .     A
C728   O761    1.386   .     S
C728   C732    1.407   .     A
C728   C739    1.404   .     A
C729   C733    1.417   .     A
C729   O763    1.386   .     S
C730   O765    1.379   .     S
C730   C734    1.419   .     A
C731   C734    1.419   .     A
C731   O767    1.378   .     S
C732   O769    1.387   .     S
C732   C733    1.419   .     A
C740   C109    1.469   1_556 S
N743   O744    1.299   .     A
N743   O745    1.301   .     A
N746   O748    1.299   .     A
N746   O747    1.299   .     A
N749   O750    1.299   .     A
N749   O751    1.299   .     A
N752   O754    1.301   .     A
N752   O753    1.299   .     A
H756   O125    0.988   1_556 S
O757   H758    0.990   .     S
O759   H130    0.988   1_556 S
O761   H762    0.989   .     S
O763   H764    0.988   .     S
O765   H766    0.991   .     S
O767   H768    0.991   .     S
O769   H770    0.988   .     S
O771   Cu785   1.968   .     S
O771   C777    1.298   .     A
O772   Cu786   1.968   .     S
O772   C778    1.299   .     A
O773   Cu785   1.968   .     S
O773   C778    1.298   .     A
O774   Cu786   1.968   .     S
O774   C777    1.298   .     A
N775   C790    1.373   .     A
N775   Cu785   2.028   .     S
N775   C788    1.373   .     A
N776   C789    1.373   .     A
N776   Cu786   2.028   .     S
N776   C787    1.373   .     A
C777   C812    1.453   .     S
C778   C811    1.455   .     S
O779   Cu785   1.948   .     S
O779   C783    1.296   .     A
O780   Cu786   1.948   .     S
O780   C784    1.307   .     A
O781   Cu785   1.948   .     S
O781   C784    1.307   .     A
O782   Cu786   1.948   .     S
O782   C783    1.296   .     A
C783   C803    1.453   .     S
C784   C804    1.489   .     S
Cu785  Cu786   2.698   .     S
C787   N813    1.429   .     S
C787   C1210   1.423   1_545 S
C788   N816    1.429   .     S
C788   C999    1.423   .     S
C789   N819    1.429   .     S
C789   C1208   1.423   1_545 S
C790   N822    1.429   .     S
C790   C997    1.423   .     S
C791   H805    1.081   .     S
C791   C812    1.400   .     A
C792   C811    1.400   .     A
C792   H806    1.079   .     S
C792   C654    1.383   1_655 S
C793   C811    1.400   .     A
C793   H807    1.079   .     S
C793   C651    1.383   1_655 S
C794   H808    1.081   .     S
C794   C812    1.400   .     A
C795   C809    1.415   .     A
C795   C799    1.395   .     A
C795   O825    1.385   .     S
C796   C810    1.403   .     A
C796   O827    1.385   .     S
C796   C800    1.406   .     A
C797   C810    1.414   .     A
C797   O829    1.385   .     S
C797   C801    1.395   .     A
C798   O831    1.386   .     S
C798   C802    1.407   .     A
C798   C809    1.404   .     A
C799   C803    1.417   .     A
C799   O833    1.386   .     S
C800   O835    1.379   .     S
C800   C804    1.419   .     A
C801   C804    1.419   .     A
C801   O837    1.378   .     S
C802   O839    1.387   .     S
C802   C803    1.419   .     A
C810   C179    1.469   1_556 S
N813   O814    1.299   .     A
N813   O815    1.301   .     A
N816   O818    1.299   .     A
N816   O817    1.299   .     A
N819   O820    1.299   .     A
N819   O821    1.299   .     A
N822   O824    1.301   .     A
N822   O823    1.299   .     A
H826   O195    0.988   1_556 S
O827   H828    0.990   .     S
O829   H200    0.988   1_556 S
O831   H832    0.989   .     S
O833   H834    0.988   .     S
O835   H836    0.991   .     S
O837   H838    0.991   .     S
O839   H840    0.988   .     S
O841   Cu855   1.968   .     S
O841   C847    1.298   .     A
O842   Cu856   1.968   .     S
O842   C848    1.299   .     A
O843   Cu855   1.968   .     S
O843   C848    1.298   .     A
O844   Cu856   1.968   .     S
O844   C847    1.298   .     A
N845   C860    1.373   .     A
N845   Cu855   2.028   .     S
N845   C858    1.373   .     A
N846   C859    1.373   .     A
N846   Cu856   2.028   .     S
N846   C857    1.373   .     A
C847   C882    1.453   .     S
C848   C881    1.455   .     S
O849   Cu855   1.948   .     S
O849   C853    1.296   .     A
O850   Cu856   1.948   .     S
O850   C854    1.307   .     A
O851   Cu855   1.948   .     S
O851   C854    1.307   .     A
O852   Cu856   1.948   .     S
O852   C853    1.296   .     A
C853   C873    1.453   .     S
C854   C874    1.489   .     S
Cu855  Cu856   2.698   .     S
C857   N883    1.429   .     S
C858   N886    1.429   .     S
C858   C1069   1.423   .     S
C859   N889    1.429   .     S
C860   N892    1.429   .     S
C860   C1067   1.423   .     S
C861   H875    1.081   .     S
C861   C882    1.400   .     A
C861   C1003   1.383   1_455 S
C862   C881    1.400   .     A
C862   H876    1.079   .     S
C862   C934    1.383   .     S
C863   C881    1.400   .     A
C863   H877    1.079   .     S
C863   C931    1.383   .     S
C864   H878    1.081   .     S
C864   C882    1.400   .     A
C864   C1002   1.383   1_455 S
C865   C879    1.415   .     A
C865   C869    1.395   .     A
C865   O895    1.385   .     S
C866   C880    1.403   .     A
C866   O897    1.385   .     S
C866   C870    1.406   .     A
C867   C880    1.414   .     A
C867   O899    1.385   .     S
C867   C871    1.395   .     A
C868   O901    1.386   .     S
C868   C872    1.407   .     A
C868   C879    1.404   .     A
C869   C873    1.417   .     A
C869   O903    1.386   .     S
C870   O905    1.379   .     S
C870   C874    1.419   .     A
C871   C874    1.419   .     A
C871   O907    1.378   .     S
C872   O909    1.387   .     S
C872   C873    1.419   .     A
C880   C249    1.469   1_556 S
N883   O884    1.299   .     A
N883   O885    1.301   .     A
N886   O888    1.299   .     A
N886   O887    1.299   .     A
N889   O890    1.299   .     A
N889   O891    1.299   .     A
N892   O894    1.301   .     A
N892   O893    1.299   .     A
H896   O265    0.988   1_556 S
O897   H898    0.990   .     S
O899   H270    0.988   1_556 S
O901   H902    0.989   .     S
O903   H904    0.988   .     S
O905   H906    0.991   .     S
O907   H908    0.991   .     S
O909   H910    0.988   .     S
O911   Cu925   1.968   .     S
O911   C917    1.298   .     A
O912   Cu926   1.968   .     S
O912   C918    1.299   .     A
O913   Cu925   1.968   .     S
O913   C918    1.298   .     A
O914   Cu926   1.968   .     S
O914   C917    1.298   .     A
N915   C930    1.373   .     A
N915   Cu925   2.028   .     S
N915   C928    1.373   .     A
N916   C929    1.373   .     A
N916   Cu926   2.028   .     S
N916   C927    1.373   .     A
C917   C952    1.453   .     S
C918   C951    1.455   .     S
O919   Cu925   1.948   .     S
O919   C923    1.296   .     A
O920   Cu926   1.948   .     S
O920   C924    1.307   .     A
O921   Cu925   1.948   .     S
O921   C924    1.307   .     A
O922   Cu926   1.948   .     S
O922   C923    1.296   .     A
C923   C943    1.453   .     S
C924   C944    1.489   .     S
Cu925  Cu926   2.698   .     S
C927   N953    1.429   .     S
C928   N956    1.429   .     S
C928   C1139   1.423   .     S
C929   N959    1.429   .     S
C930   N962    1.429   .     S
C930   C1137   1.423   .     S
C931   H945    1.081   .     S
C931   C952    1.400   .     A
C932   C951    1.400   .     A
C932   H946    1.079   .     S
C932   C1004   1.383   .     S
C933   C951    1.400   .     A
C933   H947    1.079   .     S
C933   C1001   1.383   .     S
C934   H948    1.081   .     S
C934   C952    1.400   .     A
C935   C949    1.415   .     A
C935   C939    1.395   .     A
C935   O965    1.385   .     S
C936   C950    1.403   .     A
C936   O967    1.385   .     S
C936   C940    1.406   .     A
C937   C950    1.414   .     A
C937   O969    1.385   .     S
C937   C941    1.395   .     A
C938   O971    1.386   .     S
C938   C942    1.407   .     A
C938   C949    1.404   .     A
C939   C943    1.417   .     A
C939   O973    1.386   .     S
C940   O975    1.379   .     S
C940   C944    1.419   .     A
C941   C944    1.419   .     A
C941   O977    1.378   .     S
C942   O979    1.387   .     S
C942   C943    1.419   .     A
C950   C319    1.469   1_556 S
N953   O954    1.299   .     A
N953   O955    1.301   .     A
N956   O958    1.299   .     A
N956   O957    1.299   .     A
N959   O960    1.299   .     A
N959   O961    1.299   .     A
N962   O964    1.301   .     A
N962   O963    1.299   .     A
H966   O335    0.988   1_556 S
O967   H968    0.990   .     S
O969   H340    0.988   1_556 S
O971   H972    0.989   .     S
O973   H974    0.988   .     S
O975   H976    0.991   .     S
O977   H978    0.991   .     S
O979   H980    0.988   .     S
O981   Cu995   1.968   .     S
O981   C987    1.298   .     A
O982   Cu996   1.968   .     S
O982   C988    1.299   .     A
O983   Cu995   1.968   .     S
O983   C988    1.298   .     A
O984   Cu996   1.968   .     S
O984   C987    1.298   .     A
N985   C1000   1.373   .     A
N985   Cu995   2.028   .     S
N985   C998    1.373   .     A
N986   C999    1.373   .     A
N986   Cu996   2.028   .     S
N986   C997    1.373   .     A
C987   C1022   1.453   .     S
C988   C1021   1.455   .     S
O989   Cu995   1.948   .     S
O989   C993    1.296   .     A
O990   Cu996   1.948   .     S
O990   C994    1.307   .     A
O991   Cu995   1.948   .     S
O991   C994    1.307   .     A
O992   Cu996   1.948   .     S
O992   C993    1.296   .     A
C993   C1013   1.453   .     S
C994   C1014   1.489   .     S
Cu995  Cu996   2.698   .     S
C997   N1023   1.429   .     S
C998   N1026   1.429   .     S
C998   C1209   1.423   .     S
C999   N1029   1.429   .     S
C1000  N1032   1.429   .     S
C1000  C1207   1.423   .     S
C1001  H1015   1.081   .     S
C1001  C1022   1.400   .     A
C1002  C1021   1.400   .     A
C1002  H1016   1.079   .     S
C1002  C864    1.383   1_655 S
C1003  C1021   1.400   .     A
C1003  H1017   1.079   .     S
C1003  C861    1.383   1_655 S
C1004  H1018   1.081   .     S
C1004  C1022   1.400   .     A
C1005  C1019   1.415   .     A
C1005  C1009   1.395   .     A
C1005  O1035   1.385   .     S
C1006  C1020   1.403   .     A
C1006  O1037   1.385   .     S
C1006  C1010   1.406   .     A
C1007  C1020   1.414   .     A
C1007  O1039   1.385   .     S
C1007  C1011   1.395   .     A
C1008  O1041   1.386   .     S
C1008  C1012   1.407   .     A
C1008  C1019   1.404   .     A
C1009  C1013   1.417   .     A
C1009  O1043   1.386   .     S
C1010  O1045   1.379   .     S
C1010  C1014   1.419   .     A
C1011  C1014   1.419   .     A
C1011  O1047   1.378   .     S
C1012  O1049   1.387   .     S
C1012  C1013   1.419   .     A
C1020  C389    1.469   1_556 S
N1023  O1024   1.299   .     A
N1023  O1025   1.301   .     A
N1026  O1028   1.299   .     A
N1026  O1027   1.299   .     A
N1029  O1030   1.299   .     A
N1029  O1031   1.299   .     A
N1032  O1034   1.301   .     A
N1032  O1033   1.299   .     A
H1036  O405    0.988   1_556 S
O1037  H1038   0.990   .     S
O1039  H410    0.988   1_556 S
O1041  H1042   0.989   .     S
O1043  H1044   0.988   .     S
O1045  H1046   0.991   .     S
O1047  H1048   0.991   .     S
O1049  H1050   0.988   .     S
O1051  Cu1065  1.968   .     S
O1051  C1057   1.298   .     A
O1052  Cu1066  1.968   .     S
O1052  C1058   1.299   .     A
O1053  Cu1065  1.968   .     S
O1053  C1058   1.298   .     A
O1054  Cu1066  1.968   .     S
O1054  C1057   1.298   .     A
N1055  C1070   1.373   .     A
N1055  Cu1065  2.028   .     S
N1055  C1068   1.373   .     A
N1056  C1069   1.373   .     A
N1056  Cu1066  2.028   .     S
N1056  C1067   1.373   .     A
C1057  C1092   1.453   .     S
C1058  C1091   1.455   .     S
O1059  Cu1065  1.948   .     S
O1059  C1063   1.296   .     A
O1060  Cu1066  1.948   .     S
O1060  C1064   1.307   .     A
O1061  Cu1065  1.948   .     S
O1061  C1064   1.307   .     A
O1062  Cu1066  1.948   .     S
O1062  C1063   1.296   .     A
C1063  C1083   1.453   .     S
C1064  C1084   1.489   .     S
Cu1065 Cu1066  2.698   .     S
C1067  N1093   1.429   .     S
C1068  N1096   1.429   .     S
C1068  C649    1.423   1_565 S
C1069  N1099   1.429   .     S
C1070  N1102   1.429   .     S
C1070  C647    1.423   1_565 S
C1071  H1085   1.081   .     S
C1071  C1092   1.400   .     A
C1071  C1213   1.383   1_455 S
C1072  C1091   1.400   .     A
C1072  H1086   1.079   .     S
C1072  C1144   1.383   .     S
C1073  C1091   1.400   .     A
C1073  H1087   1.079   .     S
C1073  C1141   1.383   .     S
C1074  H1088   1.081   .     S
C1074  C1092   1.400   .     A
C1074  C1212   1.383   1_455 S
C1075  C1089   1.415   .     A
C1075  C1079   1.395   .     A
C1075  O1105   1.385   .     S
C1076  C1090   1.403   .     A
C1076  O1107   1.385   .     S
C1076  C1080   1.406   .     A
C1077  C1090   1.414   .     A
C1077  O1109   1.385   .     S
C1077  C1081   1.395   .     A
C1078  O1111   1.386   .     S
C1078  C1082   1.407   .     A
C1078  C1089   1.404   .     A
C1079  C1083   1.417   .     A
C1079  O1113   1.386   .     S
C1080  O1115   1.379   .     S
C1080  C1084   1.419   .     A
C1081  C1084   1.419   .     A
C1081  O1117   1.378   .     S
C1082  O1119   1.387   .     S
C1082  C1083   1.419   .     A
C1090  C459    1.469   1_556 S
N1093  O1094   1.299   .     A
N1093  O1095   1.301   .     A
N1096  O1098   1.299   .     A
N1096  O1097   1.299   .     A
N1099  O1100   1.299   .     A
N1099  O1101   1.299   .     A
N1102  O1104   1.301   .     A
N1102  O1103   1.299   .     A
H1106  O475    0.988   1_556 S
O1107  H1108   0.990   .     S
O1109  H480    0.988   1_556 S
O1111  H1112   0.989   .     S
O1113  H1114   0.988   .     S
O1115  H1116   0.991   .     S
O1117  H1118   0.991   .     S
O1119  H1120   0.988   .     S
O1121  Cu1135  1.968   .     S
O1121  C1127   1.298   .     A
O1122  Cu1136  1.968   .     S
O1122  C1128   1.299   .     A
O1123  Cu1135  1.968   .     S
O1123  C1128   1.298   .     A
O1124  Cu1136  1.968   .     S
O1124  C1127   1.298   .     A
N1125  C1140   1.373   .     A
N1125  Cu1135  2.028   .     S
N1125  C1138   1.373   .     A
N1126  C1139   1.373   .     A
N1126  Cu1136  2.028   .     S
N1126  C1137   1.373   .     A
C1127  C1162   1.453   .     S
C1128  C1161   1.455   .     S
O1129  Cu1135  1.948   .     S
O1129  C1133   1.296   .     A
O1130  Cu1136  1.948   .     S
O1130  C1134   1.307   .     A
O1131  Cu1135  1.948   .     S
O1131  C1134   1.307   .     A
O1132  Cu1136  1.948   .     S
O1132  C1133   1.296   .     A
C1133  C1153   1.453   .     S
C1134  C1154   1.489   .     S
Cu1135 Cu1136  2.698   .     S
C1137  N1163   1.429   .     S
C1138  N1166   1.429   .     S
C1138  C719    1.423   1_565 S
C1139  N1169   1.429   .     S
C1140  N1172   1.429   .     S
C1140  C717    1.423   1_565 S
C1141  H1155   1.081   .     S
C1141  C1162   1.400   .     A
C1142  C1161   1.400   .     A
C1142  H1156   1.079   .     S
C1142  C1214   1.383   .     S
C1143  C1161   1.400   .     A
C1143  H1157   1.079   .     S
C1143  C1211   1.383   .     S
C1144  H1158   1.081   .     S
C1144  C1162   1.400   .     A
C1145  C1159   1.415   .     A
C1145  C1149   1.395   .     A
C1145  O1175   1.385   .     S
C1146  C1160   1.403   .     A
C1146  O1177   1.385   .     S
C1146  C1150   1.406   .     A
C1147  C1160   1.414   .     A
C1147  O1179   1.385   .     S
C1147  C1151   1.395   .     A
C1148  O1181   1.386   .     S
C1148  C1152   1.407   .     A
C1148  C1159   1.404   .     A
C1149  C1153   1.417   .     A
C1149  O1183   1.386   .     S
C1150  O1185   1.379   .     S
C1150  C1154   1.419   .     A
C1151  C1154   1.419   .     A
C1151  O1187   1.378   .     S
C1152  O1189   1.387   .     S
C1152  C1153   1.419   .     A
C1160  C529    1.469   1_556 S
N1163  O1164   1.299   .     A
N1163  O1165   1.301   .     A
N1166  O1168   1.299   .     A
N1166  O1167   1.299   .     A
N1169  O1170   1.299   .     A
N1169  O1171   1.299   .     A
N1172  O1174   1.301   .     A
N1172  O1173   1.299   .     A
H1176  O545    0.988   1_556 S
O1177  H1178   0.990   .     S
O1179  H550    0.988   1_556 S
O1181  H1182   0.989   .     S
O1183  H1184   0.988   .     S
O1185  H1186   0.991   .     S
O1187  H1188   0.991   .     S
O1189  H1190   0.988   .     S
O1191  Cu1205  1.968   .     S
O1191  C1197   1.298   .     A
O1192  Cu1206  1.968   .     S
O1192  C1198   1.299   .     A
O1193  Cu1205  1.968   .     S
O1193  C1198   1.298   .     A
O1194  Cu1206  1.968   .     S
O1194  C1197   1.298   .     A
N1195  C1210   1.373   .     A
N1195  Cu1205  2.028   .     S
N1195  C1208   1.373   .     A
N1196  C1209   1.373   .     A
N1196  Cu1206  2.028   .     S
N1196  C1207   1.373   .     A
C1197  C1232   1.453   .     S
C1198  C1231   1.455   .     S
O1199  Cu1205  1.948   .     S
O1199  C1203   1.296   .     A
O1200  Cu1206  1.948   .     S
O1200  C1204   1.307   .     A
O1201  Cu1205  1.948   .     S
O1201  C1204   1.307   .     A
O1202  Cu1206  1.948   .     S
O1202  C1203   1.296   .     A
C1203  C1223   1.453   .     S
C1204  C1224   1.489   .     S
Cu1205 Cu1206  2.698   .     S
C1207  N1233   1.429   .     S
C1208  N1236   1.429   .     S
C1208  C789    1.423   1_565 S
C1209  N1239   1.429   .     S
C1210  N1242   1.429   .     S
C1210  C787    1.423   1_565 S
C1211  H1225   1.081   .     S
C1211  C1232   1.400   .     A
C1212  C1231   1.400   .     A
C1212  H1226   1.079   .     S
C1212  C1074   1.383   1_655 S
C1213  C1231   1.400   .     A
C1213  H1227   1.079   .     S
C1213  C1071   1.383   1_655 S
C1214  H1228   1.081   .     S
C1214  C1232   1.400   .     A
C1215  C1229   1.415   .     A
C1215  C1219   1.395   .     A
C1215  O1245   1.385   .     S
C1216  C1230   1.403   .     A
C1216  O1247   1.385   .     S
C1216  C1220   1.406   .     A
C1217  C1230   1.414   .     A
C1217  O1249   1.385   .     S
C1217  C1221   1.395   .     A
C1218  O1251   1.386   .     S
C1218  C1222   1.407   .     A
C1218  C1229   1.404   .     A
C1219  C1223   1.417   .     A
C1219  O1253   1.386   .     S
C1220  O1255   1.379   .     S
C1220  C1224   1.419   .     A
C1221  C1224   1.419   .     A
C1221  O1257   1.378   .     S
C1222  O1259   1.387   .     S
C1222  C1223   1.419   .     A
C1230  C599    1.469   1_556 S
N1233  O1234   1.299   .     A
N1233  O1235   1.301   .     A
N1236  O1238   1.299   .     A
N1236  O1237   1.299   .     A
N1239  O1240   1.299   .     A
N1239  O1241   1.299   .     A
N1242  O1244   1.301   .     A
N1242  O1243   1.299   .     A
H1246  O615    0.988   1_556 S
O1247  H1248   0.990   .     S
O1249  H620    0.988   1_556 S
O1251  H1252   0.989   .     S
O1253  H1254   0.988   .     S
O1255  H1256   0.991   .     S
O1257  H1258   0.991   .     S
O1259  H1260   0.988   .     S
