data_str_m3_o10_o18_pcu_sym.130
_audit_creation_date              2020-01-03
_audit_creation_method            'Materials Studio'
_symmetry_space_group_name_H-M    'P1'
_symmetry_Int_Tables_number       1
_symmetry_cell_setting            triclinic
loop_
_symmetry_equiv_pos_as_xyz
  x,y,z
_cell_length_a                    23.6533
_cell_length_b                    25.8723
_cell_length_c                    27.4439
_cell_angle_alpha                 94.4794
_cell_angle_beta                  93.1712
_cell_angle_gamma                 93.6544
loop_
_atom_site_label
_atom_site_type_symbol
_atom_site_fract_x
_atom_site_fract_y
_atom_site_fract_z
_atom_site_U_iso_or_equiv
_atom_site_adp_type
_atom_site_occupancy
C1     C     0.01470   0.26464   0.24927   0.00000  Uiso   1.00
C2     C     0.31240   0.16310   0.15892   0.00000  Uiso   1.00
C3     C     0.03334   0.18248   0.39325   0.00000  Uiso   1.00
C4     C     0.30271   0.16112   0.10609   0.00000  Uiso   1.00
C5     C     0.02672   0.23856   0.46693   0.00000  Uiso   1.00
C6     C     0.32182   0.12703   0.02480   0.00000  Uiso   1.00
C7     C     0.00461   0.21942   0.42041   0.00000  Uiso   1.00
C8     C     0.00463   0.13519   0.07449   0.00000  Uiso   1.00
C9     C     0.08237   0.16365   0.41298   0.00000  Uiso   1.00
C10    C     0.25444   0.18262   0.08767   0.00000  Uiso   1.00
C11    C     0.10893   0.18681   0.45651   0.00000  Uiso   1.00
C12    C     0.31863   0.06869   0.25074   0.00000  Uiso   1.00
C13    C     0.23744   0.17527   0.03805   0.00000  Uiso   1.00
C14    C     0.07928   0.22316   0.48484   0.00000  Uiso   1.00
C15    C     0.27065   0.14504   0.00677   0.00000  Uiso   1.00
C16    C     0.16425   0.17494   0.47215   0.00000  Uiso   1.00
C17    C     0.18589   0.19357   0.01978   0.00000  Uiso   1.00
C18    C     0.07360   0.00647   0.28474   0.00000  Uiso   1.00
C19    C     0.25977   0.32684   0.21523   0.00000  Uiso   1.00
C20    C     0.16477   0.11601   0.20264   0.00000  Uiso   1.00
C21    C     0.16859   0.21720   0.29749   0.00000  Uiso   1.00
C22    C     0.15527   0.22968   0.04750   0.00000  Uiso   1.00
C23    C     0.19922   0.14638   0.44117   0.00000  Uiso   1.00
C24    C     0.10305   0.24445   0.02998   0.00000  Uiso   1.00
C25    C     0.25172   0.13211   0.45827   0.00000  Uiso   1.00
C26    C     0.02212   0.31911   0.25619   0.00000  Uiso   1.00
C27    C     0.31121   0.01422   0.24381   0.00000  Uiso   1.00
C28    C     0.02117   0.17133   0.34104   0.00000  Uiso   1.00
H29    H     0.08121   0.27267   0.05190   0.00000  Uiso   1.00
H30    H     0.18793   0.13573   0.40294   0.00000  Uiso   1.00
H31    H     0.27706   0.10984   0.43365   0.00000  Uiso   1.00
H32    H     0.22849   0.20188   0.11352   0.00000  Uiso   1.00
H33    H     0.10037   0.13229   0.39218   0.00000  Uiso   1.00
H34    H     0.04279   0.11898   0.08848   0.00000  Uiso   1.00
H35    H     0.29978   0.23459   0.40513   0.00000  Uiso   1.00
H36    H     0.00405   0.26684   0.48796   0.00000  Uiso   1.00
H37    H     0.01479   0.10503   0.00086   0.00000  Uiso   1.00
H38    H     0.17165   0.24894   0.08213   0.00000  Uiso   1.00
N39    N     0.14695   0.15216   0.23739   0.00000  Uiso   1.00
N40    N     0.18638   0.18117   0.26260   0.00000  Uiso   1.00
N41    N     0.11438   0.02306   0.30738   0.00000  Uiso   1.00
N42    N     0.21901   0.31022   0.19256   0.00000  Uiso   1.00
N43    N     0.17901   0.08575   0.17333   0.00000  Uiso   1.00
N44    N     0.15439   0.24737   0.32691   0.00000  Uiso   1.00
O45    O     0.29719   0.24631   0.25309   0.00000  Uiso   1.00
O46    O     0.03614   0.08702   0.24690   0.00000  Uiso   1.00
O47    O     0.05822   0.23702   0.24501   0.00000  Uiso   1.00
O48    O     0.27512   0.09632   0.25499   0.00000  Uiso   1.00
O49    O     0.30328   0.17397   0.32247   0.00000  Uiso   1.00
O50    O     0.03005   0.15937   0.17753   0.00000  Uiso   1.00
O51    O     0.06431   0.16467   0.31439   0.00000  Uiso   1.00
O52    O     0.26902   0.16866   0.18561   0.00000  Uiso   1.00
Zn53   Zn    0.27033   0.17287   0.25539   0.00000  Uiso   1.00
Zn54   Zn    0.06300   0.16046   0.24460   0.00000  Uiso   1.00
C55    C     0.34804   0.26464   0.24927   0.00000  Uiso   1.00
C56    C     0.64573   0.16310   0.15892   0.00000  Uiso   1.00
C57    C     0.36668   0.18248   0.39325   0.00000  Uiso   1.00
C58    C     0.63604   0.16112   0.10609   0.00000  Uiso   1.00
C59    C     0.36005   0.23856   0.46693   0.00000  Uiso   1.00
C60    C     0.65515   0.12703   0.02480   0.00000  Uiso   1.00
C61    C     0.33794   0.21942   0.42041   0.00000  Uiso   1.00
C62    C     0.33796   0.13519   0.07449   0.00000  Uiso   1.00
C63    C     0.41570   0.16365   0.41298   0.00000  Uiso   1.00
C64    C     0.58777   0.18262   0.08767   0.00000  Uiso   1.00
C65    C     0.44226   0.18681   0.45651   0.00000  Uiso   1.00
C66    C     0.65196   0.06869   0.25074   0.00000  Uiso   1.00
C67    C     0.57077   0.17527   0.03805   0.00000  Uiso   1.00
C68    C     0.41261   0.22316   0.48484   0.00000  Uiso   1.00
C69    C     0.60398   0.14504   0.00677   0.00000  Uiso   1.00
C70    C     0.49758   0.17494   0.47215   0.00000  Uiso   1.00
C71    C     0.51923   0.19357   0.01978   0.00000  Uiso   1.00
C72    C     0.40693   0.00647   0.28474   0.00000  Uiso   1.00
C73    C     0.59310   0.32684   0.21523   0.00000  Uiso   1.00
C74    C     0.49810   0.11601   0.20264   0.00000  Uiso   1.00
C75    C     0.50193   0.21720   0.29749   0.00000  Uiso   1.00
C76    C     0.48860   0.22968   0.04750   0.00000  Uiso   1.00
C77    C     0.53255   0.14638   0.44117   0.00000  Uiso   1.00
C78    C     0.43638   0.24445   0.02998   0.00000  Uiso   1.00
C79    C     0.58506   0.13211   0.45827   0.00000  Uiso   1.00
C80    C     0.35546   0.31911   0.25619   0.00000  Uiso   1.00
C81    C     0.64455   0.01422   0.24381   0.00000  Uiso   1.00
C82    C     0.35450   0.17133   0.34104   0.00000  Uiso   1.00
H83    H     0.41454   0.27267   0.05190   0.00000  Uiso   1.00
H84    H     0.52126   0.13573   0.40294   0.00000  Uiso   1.00
H85    H     0.61039   0.10984   0.43365   0.00000  Uiso   1.00
H86    H     0.56183   0.20188   0.11352   0.00000  Uiso   1.00
H87    H     0.43370   0.13229   0.39218   0.00000  Uiso   1.00
H88    H     0.37613   0.11898   0.08848   0.00000  Uiso   1.00
H89    H     0.63312   0.23459   0.40513   0.00000  Uiso   1.00
H90    H     0.33739   0.26684   0.48796   0.00000  Uiso   1.00
H91    H     0.34812   0.10503   0.00086   0.00000  Uiso   1.00
H92    H     0.50498   0.24894   0.08213   0.00000  Uiso   1.00
N93    N     0.48029   0.15216   0.23739   0.00000  Uiso   1.00
N94    N     0.51971   0.18117   0.26260   0.00000  Uiso   1.00
N95    N     0.44772   0.02306   0.30738   0.00000  Uiso   1.00
N96    N     0.55234   0.31022   0.19256   0.00000  Uiso   1.00
N97    N     0.51235   0.08575   0.17333   0.00000  Uiso   1.00
N98    N     0.48773   0.24737   0.32691   0.00000  Uiso   1.00
O99    O     0.63052   0.24631   0.25309   0.00000  Uiso   1.00
O100   O     0.36948   0.08702   0.24690   0.00000  Uiso   1.00
O101   O     0.39155   0.23702   0.24501   0.00000  Uiso   1.00
O102   O     0.60845   0.09632   0.25499   0.00000  Uiso   1.00
O103   O     0.63662   0.17397   0.32247   0.00000  Uiso   1.00
O104   O     0.36338   0.15937   0.17753   0.00000  Uiso   1.00
O105   O     0.39764   0.16467   0.31439   0.00000  Uiso   1.00
O106   O     0.60236   0.16866   0.18561   0.00000  Uiso   1.00
Zn107  Zn    0.60366   0.17287   0.25539   0.00000  Uiso   1.00
Zn108  Zn    0.39634   0.16046   0.24460   0.00000  Uiso   1.00
C109   C     0.68137   0.26464   0.24927   0.00000  Uiso   1.00
C110   C     0.97906   0.16310   0.15892   0.00000  Uiso   1.00
C111   C     0.70001   0.18248   0.39325   0.00000  Uiso   1.00
C112   C     0.96937   0.16112   0.10609   0.00000  Uiso   1.00
C113   C     0.69338   0.23856   0.46693   0.00000  Uiso   1.00
C114   C     0.98848   0.12703   0.02480   0.00000  Uiso   1.00
C115   C     0.67127   0.21942   0.42041   0.00000  Uiso   1.00
C116   C     0.67129   0.13519   0.07449   0.00000  Uiso   1.00
C117   C     0.74903   0.16365   0.41298   0.00000  Uiso   1.00
C118   C     0.92110   0.18262   0.08767   0.00000  Uiso   1.00
C119   C     0.77560   0.18681   0.45651   0.00000  Uiso   1.00
C120   C     0.98530   0.06869   0.25074   0.00000  Uiso   1.00
C121   C     0.90410   0.17527   0.03805   0.00000  Uiso   1.00
C122   C     0.74594   0.22316   0.48484   0.00000  Uiso   1.00
C123   C     0.93731   0.14504   0.00677   0.00000  Uiso   1.00
C124   C     0.83092   0.17494   0.47215   0.00000  Uiso   1.00
C125   C     0.85256   0.19357   0.01978   0.00000  Uiso   1.00
C126   C     0.74026   0.00647   0.28474   0.00000  Uiso   1.00
C127   C     0.92643   0.32684   0.21523   0.00000  Uiso   1.00
C128   C     0.83144   0.11601   0.20264   0.00000  Uiso   1.00
C129   C     0.83526   0.21720   0.29749   0.00000  Uiso   1.00
C130   C     0.82194   0.22968   0.04750   0.00000  Uiso   1.00
C131   C     0.86588   0.14638   0.44117   0.00000  Uiso   1.00
C132   C     0.76972   0.24445   0.02998   0.00000  Uiso   1.00
C133   C     0.91839   0.13211   0.45827   0.00000  Uiso   1.00
C134   C     0.68879   0.31911   0.25619   0.00000  Uiso   1.00
C135   C     0.97788   0.01422   0.24381   0.00000  Uiso   1.00
C136   C     0.68783   0.17133   0.34104   0.00000  Uiso   1.00
H137   H     0.74788   0.27267   0.05190   0.00000  Uiso   1.00
H138   H     0.85460   0.13573   0.40294   0.00000  Uiso   1.00
H139   H     0.94373   0.10984   0.43365   0.00000  Uiso   1.00
H140   H     0.89516   0.20188   0.11352   0.00000  Uiso   1.00
H141   H     0.76703   0.13229   0.39218   0.00000  Uiso   1.00
H142   H     0.70946   0.11898   0.08848   0.00000  Uiso   1.00
H143   H     0.96645   0.23459   0.40513   0.00000  Uiso   1.00
H144   H     0.67072   0.26684   0.48796   0.00000  Uiso   1.00
H145   H     0.68146   0.10503   0.00086   0.00000  Uiso   1.00
H146   H     0.83831   0.24894   0.08213   0.00000  Uiso   1.00
N147   N     0.81362   0.15216   0.23739   0.00000  Uiso   1.00
N148   N     0.85305   0.18117   0.26260   0.00000  Uiso   1.00
N149   N     0.78105   0.02306   0.30738   0.00000  Uiso   1.00
N150   N     0.88568   0.31022   0.19256   0.00000  Uiso   1.00
N151   N     0.84568   0.08575   0.17333   0.00000  Uiso   1.00
N152   N     0.82106   0.24737   0.32691   0.00000  Uiso   1.00
O153   O     0.96386   0.24631   0.25309   0.00000  Uiso   1.00
O154   O     0.70281   0.08702   0.24690   0.00000  Uiso   1.00
O155   O     0.72488   0.23702   0.24501   0.00000  Uiso   1.00
O156   O     0.94178   0.09632   0.25499   0.00000  Uiso   1.00
O157   O     0.96995   0.17397   0.32247   0.00000  Uiso   1.00
O158   O     0.69672   0.15937   0.17753   0.00000  Uiso   1.00
O159   O     0.73098   0.16467   0.31439   0.00000  Uiso   1.00
O160   O     0.93569   0.16866   0.18561   0.00000  Uiso   1.00
Zn161  Zn    0.93700   0.17287   0.25539   0.00000  Uiso   1.00
Zn162  Zn    0.72967   0.16046   0.24460   0.00000  Uiso   1.00
C163   C     0.01470   0.59798   0.24927   0.00000  Uiso   1.00
C164   C     0.31240   0.49643   0.15892   0.00000  Uiso   1.00
C165   C     0.03334   0.51582   0.39325   0.00000  Uiso   1.00
C166   C     0.30271   0.49446   0.10609   0.00000  Uiso   1.00
C167   C     0.02672   0.57189   0.46693   0.00000  Uiso   1.00
C168   C     0.32182   0.46036   0.02480   0.00000  Uiso   1.00
C169   C     0.00461   0.55276   0.42041   0.00000  Uiso   1.00
C170   C     0.00463   0.46852   0.07449   0.00000  Uiso   1.00
C171   C     0.08237   0.49699   0.41298   0.00000  Uiso   1.00
C172   C     0.25444   0.51595   0.08767   0.00000  Uiso   1.00
C173   C     0.10893   0.52015   0.45651   0.00000  Uiso   1.00
C174   C     0.31863   0.40202   0.25074   0.00000  Uiso   1.00
C175   C     0.23744   0.50861   0.03805   0.00000  Uiso   1.00
C176   C     0.07928   0.55649   0.48484   0.00000  Uiso   1.00
C177   C     0.27065   0.47837   0.00677   0.00000  Uiso   1.00
C178   C     0.16425   0.50828   0.47215   0.00000  Uiso   1.00
C179   C     0.18589   0.52690   0.01978   0.00000  Uiso   1.00
C180   C     0.07360   0.33980   0.28474   0.00000  Uiso   1.00
C181   C     0.25977   0.66018   0.21523   0.00000  Uiso   1.00
C182   C     0.16477   0.44935   0.20264   0.00000  Uiso   1.00
C183   C     0.16859   0.55054   0.29749   0.00000  Uiso   1.00
C184   C     0.15527   0.56301   0.04750   0.00000  Uiso   1.00
C185   C     0.19922   0.47971   0.44117   0.00000  Uiso   1.00
C186   C     0.10305   0.57779   0.02998   0.00000  Uiso   1.00
C187   C     0.25172   0.46544   0.45827   0.00000  Uiso   1.00
C188   C     0.02212   0.65244   0.25619   0.00000  Uiso   1.00
C189   C     0.31121   0.34755   0.24381   0.00000  Uiso   1.00
C190   C     0.02117   0.50467   0.34104   0.00000  Uiso   1.00
H191   H     0.08121   0.60600   0.05190   0.00000  Uiso   1.00
H192   H     0.18793   0.46907   0.40294   0.00000  Uiso   1.00
H193   H     0.27706   0.44317   0.43365   0.00000  Uiso   1.00
H194   H     0.22849   0.53522   0.11352   0.00000  Uiso   1.00
H195   H     0.10037   0.46562   0.39218   0.00000  Uiso   1.00
H196   H     0.04279   0.45232   0.08848   0.00000  Uiso   1.00
H197   H     0.29978   0.56793   0.40513   0.00000  Uiso   1.00
H198   H     0.00405   0.60018   0.48796   0.00000  Uiso   1.00
H199   H     0.01479   0.43836   0.00086   0.00000  Uiso   1.00
H200   H     0.17165   0.58227   0.08213   0.00000  Uiso   1.00
N201   N     0.14695   0.48550   0.23739   0.00000  Uiso   1.00
N202   N     0.18638   0.51450   0.26260   0.00000  Uiso   1.00
N203   N     0.11438   0.35640   0.30738   0.00000  Uiso   1.00
N204   N     0.21901   0.64355   0.19256   0.00000  Uiso   1.00
N205   N     0.17901   0.41908   0.17333   0.00000  Uiso   1.00
N206   N     0.15439   0.58070   0.32691   0.00000  Uiso   1.00
O207   O     0.29719   0.57964   0.25309   0.00000  Uiso   1.00
O208   O     0.03614   0.42036   0.24690   0.00000  Uiso   1.00
O209   O     0.05822   0.57035   0.24501   0.00000  Uiso   1.00
O210   O     0.27512   0.42965   0.25499   0.00000  Uiso   1.00
O211   O     0.30328   0.50730   0.32247   0.00000  Uiso   1.00
O212   O     0.03005   0.49270   0.17753   0.00000  Uiso   1.00
O213   O     0.06431   0.49801   0.31439   0.00000  Uiso   1.00
O214   O     0.26902   0.50199   0.18561   0.00000  Uiso   1.00
Zn215  Zn    0.27033   0.50621   0.25539   0.00000  Uiso   1.00
Zn216  Zn    0.06300   0.49379   0.24460   0.00000  Uiso   1.00
C217   C     0.34804   0.59798   0.24927   0.00000  Uiso   1.00
C218   C     0.64573   0.49643   0.15892   0.00000  Uiso   1.00
C219   C     0.36668   0.51582   0.39325   0.00000  Uiso   1.00
C220   C     0.63604   0.49446   0.10609   0.00000  Uiso   1.00
C221   C     0.36005   0.57189   0.46693   0.00000  Uiso   1.00
C222   C     0.65515   0.46036   0.02480   0.00000  Uiso   1.00
C223   C     0.33794   0.55276   0.42041   0.00000  Uiso   1.00
C224   C     0.33796   0.46852   0.07449   0.00000  Uiso   1.00
C225   C     0.41570   0.49699   0.41298   0.00000  Uiso   1.00
C226   C     0.58777   0.51595   0.08767   0.00000  Uiso   1.00
C227   C     0.44226   0.52015   0.45651   0.00000  Uiso   1.00
C228   C     0.65196   0.40202   0.25074   0.00000  Uiso   1.00
C229   C     0.57077   0.50861   0.03805   0.00000  Uiso   1.00
C230   C     0.41261   0.55649   0.48484   0.00000  Uiso   1.00
C231   C     0.60398   0.47837   0.00677   0.00000  Uiso   1.00
C232   C     0.49758   0.50828   0.47215   0.00000  Uiso   1.00
C233   C     0.51923   0.52690   0.01978   0.00000  Uiso   1.00
C234   C     0.40693   0.33980   0.28474   0.00000  Uiso   1.00
C235   C     0.59310   0.66018   0.21523   0.00000  Uiso   1.00
C236   C     0.49810   0.44935   0.20264   0.00000  Uiso   1.00
C237   C     0.50193   0.55054   0.29749   0.00000  Uiso   1.00
C238   C     0.48860   0.56301   0.04750   0.00000  Uiso   1.00
C239   C     0.53255   0.47971   0.44117   0.00000  Uiso   1.00
C240   C     0.43638   0.57779   0.02998   0.00000  Uiso   1.00
C241   C     0.58506   0.46544   0.45827   0.00000  Uiso   1.00
C242   C     0.35546   0.65244   0.25619   0.00000  Uiso   1.00
C243   C     0.64455   0.34755   0.24381   0.00000  Uiso   1.00
C244   C     0.35450   0.50467   0.34104   0.00000  Uiso   1.00
H245   H     0.41454   0.60600   0.05190   0.00000  Uiso   1.00
H246   H     0.52126   0.46907   0.40294   0.00000  Uiso   1.00
H247   H     0.61039   0.44317   0.43365   0.00000  Uiso   1.00
H248   H     0.56183   0.53522   0.11352   0.00000  Uiso   1.00
H249   H     0.43370   0.46562   0.39218   0.00000  Uiso   1.00
H250   H     0.37613   0.45232   0.08848   0.00000  Uiso   1.00
H251   H     0.63312   0.56793   0.40513   0.00000  Uiso   1.00
H252   H     0.33739   0.60018   0.48796   0.00000  Uiso   1.00
H253   H     0.34812   0.43836   0.00086   0.00000  Uiso   1.00
H254   H     0.50498   0.58227   0.08213   0.00000  Uiso   1.00
N255   N     0.48029   0.48550   0.23739   0.00000  Uiso   1.00
N256   N     0.51971   0.51450   0.26260   0.00000  Uiso   1.00
N257   N     0.44772   0.35640   0.30738   0.00000  Uiso   1.00
N258   N     0.55234   0.64355   0.19256   0.00000  Uiso   1.00
N259   N     0.51235   0.41908   0.17333   0.00000  Uiso   1.00
N260   N     0.48773   0.58070   0.32691   0.00000  Uiso   1.00
O261   O     0.63052   0.57964   0.25309   0.00000  Uiso   1.00
O262   O     0.36948   0.42036   0.24690   0.00000  Uiso   1.00
O263   O     0.39155   0.57035   0.24501   0.00000  Uiso   1.00
O264   O     0.60845   0.42965   0.25499   0.00000  Uiso   1.00
O265   O     0.63662   0.50730   0.32247   0.00000  Uiso   1.00
O266   O     0.36338   0.49270   0.17753   0.00000  Uiso   1.00
O267   O     0.39764   0.49801   0.31439   0.00000  Uiso   1.00
O268   O     0.60236   0.50199   0.18561   0.00000  Uiso   1.00
Zn269  Zn    0.60366   0.50621   0.25539   0.00000  Uiso   1.00
Zn270  Zn    0.39634   0.49379   0.24460   0.00000  Uiso   1.00
C271   C     0.68137   0.59798   0.24927   0.00000  Uiso   1.00
C272   C     0.97906   0.49643   0.15892   0.00000  Uiso   1.00
C273   C     0.70001   0.51582   0.39325   0.00000  Uiso   1.00
C274   C     0.96937   0.49446   0.10609   0.00000  Uiso   1.00
C275   C     0.69338   0.57189   0.46693   0.00000  Uiso   1.00
C276   C     0.98848   0.46036   0.02480   0.00000  Uiso   1.00
C277   C     0.67127   0.55276   0.42041   0.00000  Uiso   1.00
C278   C     0.67129   0.46852   0.07449   0.00000  Uiso   1.00
C279   C     0.74903   0.49699   0.41298   0.00000  Uiso   1.00
C280   C     0.92110   0.51595   0.08767   0.00000  Uiso   1.00
C281   C     0.77560   0.52015   0.45651   0.00000  Uiso   1.00
C282   C     0.98530   0.40202   0.25074   0.00000  Uiso   1.00
C283   C     0.90410   0.50861   0.03805   0.00000  Uiso   1.00
C284   C     0.74594   0.55649   0.48484   0.00000  Uiso   1.00
C285   C     0.93731   0.47837   0.00677   0.00000  Uiso   1.00
C286   C     0.83092   0.50828   0.47215   0.00000  Uiso   1.00
C287   C     0.85256   0.52690   0.01978   0.00000  Uiso   1.00
C288   C     0.74026   0.33980   0.28474   0.00000  Uiso   1.00
C289   C     0.92643   0.66018   0.21523   0.00000  Uiso   1.00
C290   C     0.83144   0.44935   0.20264   0.00000  Uiso   1.00
C291   C     0.83526   0.55054   0.29749   0.00000  Uiso   1.00
C292   C     0.82194   0.56301   0.04750   0.00000  Uiso   1.00
C293   C     0.86588   0.47971   0.44117   0.00000  Uiso   1.00
C294   C     0.76972   0.57779   0.02998   0.00000  Uiso   1.00
C295   C     0.91839   0.46544   0.45827   0.00000  Uiso   1.00
C296   C     0.68879   0.65244   0.25619   0.00000  Uiso   1.00
C297   C     0.97788   0.34755   0.24381   0.00000  Uiso   1.00
C298   C     0.68783   0.50467   0.34104   0.00000  Uiso   1.00
H299   H     0.74788   0.60600   0.05190   0.00000  Uiso   1.00
H300   H     0.85460   0.46907   0.40294   0.00000  Uiso   1.00
H301   H     0.94373   0.44317   0.43365   0.00000  Uiso   1.00
H302   H     0.89516   0.53522   0.11352   0.00000  Uiso   1.00
H303   H     0.76703   0.46562   0.39218   0.00000  Uiso   1.00
H304   H     0.70946   0.45232   0.08848   0.00000  Uiso   1.00
H305   H     0.96645   0.56793   0.40513   0.00000  Uiso   1.00
H306   H     0.67072   0.60018   0.48796   0.00000  Uiso   1.00
H307   H     0.68146   0.43836   0.00086   0.00000  Uiso   1.00
H308   H     0.83831   0.58227   0.08213   0.00000  Uiso   1.00
N309   N     0.81362   0.48550   0.23739   0.00000  Uiso   1.00
N310   N     0.85305   0.51450   0.26260   0.00000  Uiso   1.00
N311   N     0.78105   0.35640   0.30738   0.00000  Uiso   1.00
N312   N     0.88568   0.64355   0.19256   0.00000  Uiso   1.00
N313   N     0.84568   0.41908   0.17333   0.00000  Uiso   1.00
N314   N     0.82106   0.58070   0.32691   0.00000  Uiso   1.00
O315   O     0.96386   0.57964   0.25309   0.00000  Uiso   1.00
O316   O     0.70281   0.42036   0.24690   0.00000  Uiso   1.00
O317   O     0.72488   0.57035   0.24501   0.00000  Uiso   1.00
O318   O     0.94178   0.42965   0.25499   0.00000  Uiso   1.00
O319   O     0.96995   0.50730   0.32247   0.00000  Uiso   1.00
O320   O     0.69672   0.49270   0.17753   0.00000  Uiso   1.00
O321   O     0.73098   0.49801   0.31439   0.00000  Uiso   1.00
O322   O     0.93569   0.50199   0.18561   0.00000  Uiso   1.00
Zn323  Zn    0.93700   0.50621   0.25539   0.00000  Uiso   1.00
Zn324  Zn    0.72967   0.49379   0.24460   0.00000  Uiso   1.00
C325   C     0.01470   0.93131   0.24927   0.00000  Uiso   1.00
C326   C     0.31240   0.82977   0.15892   0.00000  Uiso   1.00
C327   C     0.03334   0.84915   0.39325   0.00000  Uiso   1.00
C328   C     0.30271   0.82779   0.10609   0.00000  Uiso   1.00
C329   C     0.02672   0.90522   0.46693   0.00000  Uiso   1.00
C330   C     0.32182   0.79369   0.02480   0.00000  Uiso   1.00
C331   C     0.00461   0.88609   0.42041   0.00000  Uiso   1.00
C332   C     0.00463   0.80185   0.07449   0.00000  Uiso   1.00
C333   C     0.08237   0.83032   0.41298   0.00000  Uiso   1.00
C334   C     0.25444   0.84928   0.08767   0.00000  Uiso   1.00
C335   C     0.10893   0.85348   0.45651   0.00000  Uiso   1.00
C336   C     0.31863   0.73535   0.25074   0.00000  Uiso   1.00
C337   C     0.23744   0.84194   0.03805   0.00000  Uiso   1.00
C338   C     0.07928   0.88982   0.48484   0.00000  Uiso   1.00
C339   C     0.27065   0.81171   0.00677   0.00000  Uiso   1.00
C340   C     0.16425   0.84161   0.47215   0.00000  Uiso   1.00
C341   C     0.18589   0.86024   0.01978   0.00000  Uiso   1.00
C342   C     0.07360   0.67313   0.28474   0.00000  Uiso   1.00
C343   C     0.25977   0.99351   0.21523   0.00000  Uiso   1.00
C344   C     0.16477   0.78268   0.20264   0.00000  Uiso   1.00
C345   C     0.16859   0.88387   0.29749   0.00000  Uiso   1.00
C346   C     0.15527   0.89635   0.04750   0.00000  Uiso   1.00
C347   C     0.19922   0.81304   0.44117   0.00000  Uiso   1.00
C348   C     0.10305   0.91112   0.02998   0.00000  Uiso   1.00
C349   C     0.25172   0.79877   0.45827   0.00000  Uiso   1.00
C350   C     0.02212   0.98577   0.25619   0.00000  Uiso   1.00
C351   C     0.31121   0.68089   0.24381   0.00000  Uiso   1.00
C352   C     0.02117   0.83800   0.34104   0.00000  Uiso   1.00
H353   H     0.08121   0.93934   0.05190   0.00000  Uiso   1.00
H354   H     0.18793   0.80240   0.40294   0.00000  Uiso   1.00
H355   H     0.27706   0.77650   0.43365   0.00000  Uiso   1.00
H356   H     0.22849   0.86855   0.11352   0.00000  Uiso   1.00
H357   H     0.10037   0.79895   0.39218   0.00000  Uiso   1.00
H358   H     0.04279   0.78565   0.08848   0.00000  Uiso   1.00
H359   H     0.29978   0.90126   0.40513   0.00000  Uiso   1.00
H360   H     0.00405   0.93351   0.48796   0.00000  Uiso   1.00
H361   H     0.01479   0.77170   0.00086   0.00000  Uiso   1.00
H362   H     0.17165   0.91560   0.08213   0.00000  Uiso   1.00
N363   N     0.14695   0.81883   0.23739   0.00000  Uiso   1.00
N364   N     0.18638   0.84784   0.26260   0.00000  Uiso   1.00
N365   N     0.11438   0.68973   0.30738   0.00000  Uiso   1.00
N366   N     0.21901   0.97689   0.19256   0.00000  Uiso   1.00
N367   N     0.17901   0.75242   0.17333   0.00000  Uiso   1.00
N368   N     0.15439   0.91404   0.32691   0.00000  Uiso   1.00
O369   O     0.29719   0.91298   0.25309   0.00000  Uiso   1.00
O370   O     0.03614   0.75369   0.24690   0.00000  Uiso   1.00
O371   O     0.05822   0.90368   0.24501   0.00000  Uiso   1.00
O372   O     0.27512   0.76298   0.25499   0.00000  Uiso   1.00
O373   O     0.30328   0.84063   0.32247   0.00000  Uiso   1.00
O374   O     0.03005   0.82603   0.17753   0.00000  Uiso   1.00
O375   O     0.06431   0.83134   0.31439   0.00000  Uiso   1.00
O376   O     0.26902   0.83533   0.18561   0.00000  Uiso   1.00
Zn377  Zn    0.27033   0.83954   0.25539   0.00000  Uiso   1.00
Zn378  Zn    0.06300   0.82713   0.24460   0.00000  Uiso   1.00
C379   C     0.34804   0.93131   0.24927   0.00000  Uiso   1.00
C380   C     0.64573   0.82977   0.15892   0.00000  Uiso   1.00
C381   C     0.36668   0.84915   0.39325   0.00000  Uiso   1.00
C382   C     0.63604   0.82779   0.10609   0.00000  Uiso   1.00
C383   C     0.36005   0.90522   0.46693   0.00000  Uiso   1.00
C384   C     0.65515   0.79369   0.02480   0.00000  Uiso   1.00
C385   C     0.33794   0.88609   0.42041   0.00000  Uiso   1.00
C386   C     0.33796   0.80185   0.07449   0.00000  Uiso   1.00
C387   C     0.41570   0.83032   0.41298   0.00000  Uiso   1.00
C388   C     0.58777   0.84928   0.08767   0.00000  Uiso   1.00
C389   C     0.44226   0.85348   0.45651   0.00000  Uiso   1.00
C390   C     0.65196   0.73535   0.25074   0.00000  Uiso   1.00
C391   C     0.57077   0.84194   0.03805   0.00000  Uiso   1.00
C392   C     0.41261   0.88982   0.48484   0.00000  Uiso   1.00
C393   C     0.60398   0.81171   0.00677   0.00000  Uiso   1.00
C394   C     0.49758   0.84161   0.47215   0.00000  Uiso   1.00
C395   C     0.51923   0.86024   0.01978   0.00000  Uiso   1.00
C396   C     0.40693   0.67313   0.28474   0.00000  Uiso   1.00
C397   C     0.59310   0.99351   0.21523   0.00000  Uiso   1.00
C398   C     0.49810   0.78268   0.20264   0.00000  Uiso   1.00
C399   C     0.50193   0.88387   0.29749   0.00000  Uiso   1.00
C400   C     0.48860   0.89635   0.04750   0.00000  Uiso   1.00
C401   C     0.53255   0.81304   0.44117   0.00000  Uiso   1.00
C402   C     0.43638   0.91112   0.02998   0.00000  Uiso   1.00
C403   C     0.58506   0.79877   0.45827   0.00000  Uiso   1.00
C404   C     0.35546   0.98577   0.25619   0.00000  Uiso   1.00
C405   C     0.64455   0.68089   0.24381   0.00000  Uiso   1.00
C406   C     0.35450   0.83800   0.34104   0.00000  Uiso   1.00
H407   H     0.41454   0.93934   0.05190   0.00000  Uiso   1.00
H408   H     0.52126   0.80240   0.40294   0.00000  Uiso   1.00
H409   H     0.61039   0.77650   0.43365   0.00000  Uiso   1.00
H410   H     0.56183   0.86855   0.11352   0.00000  Uiso   1.00
H411   H     0.43370   0.79895   0.39218   0.00000  Uiso   1.00
H412   H     0.37613   0.78565   0.08848   0.00000  Uiso   1.00
H413   H     0.63312   0.90126   0.40513   0.00000  Uiso   1.00
H414   H     0.33739   0.93351   0.48796   0.00000  Uiso   1.00
H415   H     0.34812   0.77170   0.00086   0.00000  Uiso   1.00
H416   H     0.50498   0.91560   0.08213   0.00000  Uiso   1.00
N417   N     0.48029   0.81883   0.23739   0.00000  Uiso   1.00
N418   N     0.51971   0.84784   0.26260   0.00000  Uiso   1.00
N419   N     0.44772   0.68973   0.30738   0.00000  Uiso   1.00
N420   N     0.55234   0.97689   0.19256   0.00000  Uiso   1.00
N421   N     0.51235   0.75242   0.17333   0.00000  Uiso   1.00
N422   N     0.48773   0.91404   0.32691   0.00000  Uiso   1.00
O423   O     0.63052   0.91298   0.25309   0.00000  Uiso   1.00
O424   O     0.36948   0.75369   0.24690   0.00000  Uiso   1.00
O425   O     0.39155   0.90368   0.24501   0.00000  Uiso   1.00
O426   O     0.60845   0.76298   0.25499   0.00000  Uiso   1.00
O427   O     0.63662   0.84063   0.32247   0.00000  Uiso   1.00
O428   O     0.36338   0.82603   0.17753   0.00000  Uiso   1.00
O429   O     0.39764   0.83134   0.31439   0.00000  Uiso   1.00
O430   O     0.60236   0.83533   0.18561   0.00000  Uiso   1.00
Zn431  Zn    0.60366   0.83954   0.25539   0.00000  Uiso   1.00
Zn432  Zn    0.39634   0.82713   0.24460   0.00000  Uiso   1.00
C433   C     0.68137   0.93131   0.24927   0.00000  Uiso   1.00
C434   C     0.97906   0.82977   0.15892   0.00000  Uiso   1.00
C435   C     0.70001   0.84915   0.39325   0.00000  Uiso   1.00
C436   C     0.96937   0.82779   0.10609   0.00000  Uiso   1.00
C437   C     0.69338   0.90522   0.46693   0.00000  Uiso   1.00
C438   C     0.98848   0.79369   0.02480   0.00000  Uiso   1.00
C439   C     0.67127   0.88609   0.42041   0.00000  Uiso   1.00
C440   C     0.67129   0.80185   0.07449   0.00000  Uiso   1.00
C441   C     0.74903   0.83032   0.41298   0.00000  Uiso   1.00
C442   C     0.92110   0.84928   0.08767   0.00000  Uiso   1.00
C443   C     0.77560   0.85348   0.45651   0.00000  Uiso   1.00
C444   C     0.98530   0.73535   0.25074   0.00000  Uiso   1.00
C445   C     0.90410   0.84194   0.03805   0.00000  Uiso   1.00
C446   C     0.74594   0.88982   0.48484   0.00000  Uiso   1.00
C447   C     0.93731   0.81171   0.00677   0.00000  Uiso   1.00
C448   C     0.83092   0.84161   0.47215   0.00000  Uiso   1.00
C449   C     0.85256   0.86024   0.01978   0.00000  Uiso   1.00
C450   C     0.74026   0.67313   0.28474   0.00000  Uiso   1.00
C451   C     0.92643   0.99351   0.21523   0.00000  Uiso   1.00
C452   C     0.83144   0.78268   0.20264   0.00000  Uiso   1.00
C453   C     0.83526   0.88387   0.29749   0.00000  Uiso   1.00
C454   C     0.82194   0.89635   0.04750   0.00000  Uiso   1.00
C455   C     0.86588   0.81304   0.44117   0.00000  Uiso   1.00
C456   C     0.76972   0.91112   0.02998   0.00000  Uiso   1.00
C457   C     0.91839   0.79877   0.45827   0.00000  Uiso   1.00
C458   C     0.68879   0.98577   0.25619   0.00000  Uiso   1.00
C459   C     0.97788   0.68089   0.24381   0.00000  Uiso   1.00
C460   C     0.68783   0.83800   0.34104   0.00000  Uiso   1.00
H461   H     0.74788   0.93934   0.05190   0.00000  Uiso   1.00
H462   H     0.85460   0.80240   0.40294   0.00000  Uiso   1.00
H463   H     0.94373   0.77650   0.43365   0.00000  Uiso   1.00
H464   H     0.89516   0.86855   0.11352   0.00000  Uiso   1.00
H465   H     0.76703   0.79895   0.39218   0.00000  Uiso   1.00
H466   H     0.70946   0.78565   0.08848   0.00000  Uiso   1.00
H467   H     0.96645   0.90126   0.40513   0.00000  Uiso   1.00
H468   H     0.67072   0.93351   0.48796   0.00000  Uiso   1.00
H469   H     0.68146   0.77170   0.00086   0.00000  Uiso   1.00
H470   H     0.83831   0.91560   0.08213   0.00000  Uiso   1.00
N471   N     0.81362   0.81883   0.23739   0.00000  Uiso   1.00
N472   N     0.85305   0.84784   0.26260   0.00000  Uiso   1.00
N473   N     0.78105   0.68973   0.30738   0.00000  Uiso   1.00
N474   N     0.88568   0.97689   0.19256   0.00000  Uiso   1.00
N475   N     0.84568   0.75242   0.17333   0.00000  Uiso   1.00
N476   N     0.82106   0.91404   0.32691   0.00000  Uiso   1.00
O477   O     0.96386   0.91298   0.25309   0.00000  Uiso   1.00
O478   O     0.70281   0.75369   0.24690   0.00000  Uiso   1.00
O479   O     0.72488   0.90368   0.24501   0.00000  Uiso   1.00
O480   O     0.94178   0.76298   0.25499   0.00000  Uiso   1.00
O481   O     0.96995   0.84063   0.32247   0.00000  Uiso   1.00
O482   O     0.69672   0.82603   0.17753   0.00000  Uiso   1.00
O483   O     0.73098   0.83134   0.31439   0.00000  Uiso   1.00
O484   O     0.93569   0.83533   0.18561   0.00000  Uiso   1.00
Zn485  Zn    0.93700   0.83954   0.25539   0.00000  Uiso   1.00
Zn486  Zn    0.72967   0.82713   0.24460   0.00000  Uiso   1.00
C487   C     0.01470   0.26464   0.74927   0.00000  Uiso   1.00
C488   C     0.31240   0.16310   0.65892   0.00000  Uiso   1.00
C489   C     0.03334   0.18248   0.89325   0.00000  Uiso   1.00
C490   C     0.30271   0.16112   0.60609   0.00000  Uiso   1.00
C491   C     0.02672   0.23856   0.96693   0.00000  Uiso   1.00
C492   C     0.32182   0.12703   0.52480   0.00000  Uiso   1.00
C493   C     0.00461   0.21942   0.92041   0.00000  Uiso   1.00
C494   C     0.00463   0.13519   0.57449   0.00000  Uiso   1.00
C495   C     0.08237   0.16365   0.91298   0.00000  Uiso   1.00
C496   C     0.25444   0.18262   0.58767   0.00000  Uiso   1.00
C497   C     0.10893   0.18681   0.95651   0.00000  Uiso   1.00
C498   C     0.31863   0.06869   0.75074   0.00000  Uiso   1.00
C499   C     0.23744   0.17527   0.53805   0.00000  Uiso   1.00
C500   C     0.07928   0.22316   0.98484   0.00000  Uiso   1.00
C501   C     0.27065   0.14504   0.50677   0.00000  Uiso   1.00
C502   C     0.16425   0.17494   0.97215   0.00000  Uiso   1.00
C503   C     0.18589   0.19357   0.51978   0.00000  Uiso   1.00
C504   C     0.07360   0.00647   0.78474   0.00000  Uiso   1.00
C505   C     0.25977   0.32684   0.71523   0.00000  Uiso   1.00
C506   C     0.16477   0.11601   0.70264   0.00000  Uiso   1.00
C507   C     0.16859   0.21720   0.79749   0.00000  Uiso   1.00
C508   C     0.15527   0.22968   0.54750   0.00000  Uiso   1.00
C509   C     0.19922   0.14638   0.94117   0.00000  Uiso   1.00
C510   C     0.10305   0.24445   0.52998   0.00000  Uiso   1.00
C511   C     0.25172   0.13211   0.95827   0.00000  Uiso   1.00
C512   C     0.02212   0.31911   0.75619   0.00000  Uiso   1.00
C513   C     0.31121   0.01422   0.74381   0.00000  Uiso   1.00
C514   C     0.02117   0.17133   0.84104   0.00000  Uiso   1.00
H515   H     0.08121   0.27267   0.55190   0.00000  Uiso   1.00
H516   H     0.18793   0.13573   0.90294   0.00000  Uiso   1.00
H517   H     0.27706   0.10984   0.93365   0.00000  Uiso   1.00
H518   H     0.22849   0.20188   0.61352   0.00000  Uiso   1.00
H519   H     0.10037   0.13229   0.89218   0.00000  Uiso   1.00
H520   H     0.04279   0.11898   0.58848   0.00000  Uiso   1.00
H521   H     0.29978   0.23459   0.90513   0.00000  Uiso   1.00
H522   H     0.00405   0.26684   0.98796   0.00000  Uiso   1.00
H523   H     0.01479   0.10503   0.50086   0.00000  Uiso   1.00
H524   H     0.17165   0.24894   0.58213   0.00000  Uiso   1.00
N525   N     0.14695   0.15216   0.73739   0.00000  Uiso   1.00
N526   N     0.18638   0.18117   0.76260   0.00000  Uiso   1.00
N527   N     0.11438   0.02306   0.80738   0.00000  Uiso   1.00
N528   N     0.21901   0.31022   0.69256   0.00000  Uiso   1.00
N529   N     0.17901   0.08575   0.67333   0.00000  Uiso   1.00
N530   N     0.15439   0.24737   0.82691   0.00000  Uiso   1.00
O531   O     0.29719   0.24631   0.75309   0.00000  Uiso   1.00
O532   O     0.03614   0.08702   0.74690   0.00000  Uiso   1.00
O533   O     0.05822   0.23702   0.74501   0.00000  Uiso   1.00
O534   O     0.27512   0.09632   0.75499   0.00000  Uiso   1.00
O535   O     0.30328   0.17397   0.82247   0.00000  Uiso   1.00
O536   O     0.03005   0.15937   0.67753   0.00000  Uiso   1.00
O537   O     0.06431   0.16467   0.81439   0.00000  Uiso   1.00
O538   O     0.26902   0.16866   0.68561   0.00000  Uiso   1.00
Zn539  Zn    0.27033   0.17287   0.75539   0.00000  Uiso   1.00
Zn540  Zn    0.06300   0.16046   0.74460   0.00000  Uiso   1.00
C541   C     0.34804   0.26464   0.74927   0.00000  Uiso   1.00
C542   C     0.64573   0.16310   0.65892   0.00000  Uiso   1.00
C543   C     0.36668   0.18248   0.89325   0.00000  Uiso   1.00
C544   C     0.63604   0.16112   0.60609   0.00000  Uiso   1.00
C545   C     0.36005   0.23856   0.96693   0.00000  Uiso   1.00
C546   C     0.65515   0.12703   0.52480   0.00000  Uiso   1.00
C547   C     0.33794   0.21942   0.92041   0.00000  Uiso   1.00
C548   C     0.33796   0.13519   0.57449   0.00000  Uiso   1.00
C549   C     0.41570   0.16365   0.91298   0.00000  Uiso   1.00
C550   C     0.58777   0.18262   0.58767   0.00000  Uiso   1.00
C551   C     0.44226   0.18681   0.95651   0.00000  Uiso   1.00
C552   C     0.65196   0.06869   0.75074   0.00000  Uiso   1.00
C553   C     0.57077   0.17527   0.53805   0.00000  Uiso   1.00
C554   C     0.41261   0.22316   0.98484   0.00000  Uiso   1.00
C555   C     0.60398   0.14504   0.50677   0.00000  Uiso   1.00
C556   C     0.49758   0.17494   0.97215   0.00000  Uiso   1.00
C557   C     0.51923   0.19357   0.51978   0.00000  Uiso   1.00
C558   C     0.40693   0.00647   0.78474   0.00000  Uiso   1.00
C559   C     0.59310   0.32684   0.71523   0.00000  Uiso   1.00
C560   C     0.49810   0.11601   0.70264   0.00000  Uiso   1.00
C561   C     0.50193   0.21720   0.79749   0.00000  Uiso   1.00
C562   C     0.48860   0.22968   0.54750   0.00000  Uiso   1.00
C563   C     0.53255   0.14638   0.94117   0.00000  Uiso   1.00
C564   C     0.43638   0.24445   0.52998   0.00000  Uiso   1.00
C565   C     0.58506   0.13211   0.95827   0.00000  Uiso   1.00
C566   C     0.35546   0.31911   0.75619   0.00000  Uiso   1.00
C567   C     0.64455   0.01422   0.74381   0.00000  Uiso   1.00
C568   C     0.35450   0.17133   0.84104   0.00000  Uiso   1.00
H569   H     0.41454   0.27267   0.55190   0.00000  Uiso   1.00
H570   H     0.52126   0.13573   0.90294   0.00000  Uiso   1.00
H571   H     0.61039   0.10984   0.93365   0.00000  Uiso   1.00
H572   H     0.56183   0.20188   0.61352   0.00000  Uiso   1.00
H573   H     0.43370   0.13229   0.89218   0.00000  Uiso   1.00
H574   H     0.37613   0.11898   0.58848   0.00000  Uiso   1.00
H575   H     0.63312   0.23459   0.90513   0.00000  Uiso   1.00
H576   H     0.33739   0.26684   0.98796   0.00000  Uiso   1.00
H577   H     0.34812   0.10503   0.50086   0.00000  Uiso   1.00
H578   H     0.50498   0.24894   0.58213   0.00000  Uiso   1.00
N579   N     0.48029   0.15216   0.73739   0.00000  Uiso   1.00
N580   N     0.51971   0.18117   0.76260   0.00000  Uiso   1.00
N581   N     0.44772   0.02306   0.80738   0.00000  Uiso   1.00
N582   N     0.55234   0.31022   0.69256   0.00000  Uiso   1.00
N583   N     0.51235   0.08575   0.67333   0.00000  Uiso   1.00
N584   N     0.48773   0.24737   0.82691   0.00000  Uiso   1.00
O585   O     0.63052   0.24631   0.75309   0.00000  Uiso   1.00
O586   O     0.36948   0.08702   0.74690   0.00000  Uiso   1.00
O587   O     0.39155   0.23702   0.74501   0.00000  Uiso   1.00
O588   O     0.60845   0.09632   0.75499   0.00000  Uiso   1.00
O589   O     0.63662   0.17397   0.82247   0.00000  Uiso   1.00
O590   O     0.36338   0.15937   0.67753   0.00000  Uiso   1.00
O591   O     0.39764   0.16467   0.81439   0.00000  Uiso   1.00
O592   O     0.60236   0.16866   0.68561   0.00000  Uiso   1.00
Zn593  Zn    0.60366   0.17287   0.75539   0.00000  Uiso   1.00
Zn594  Zn    0.39634   0.16046   0.74460   0.00000  Uiso   1.00
C595   C     0.68137   0.26464   0.74927   0.00000  Uiso   1.00
C596   C     0.97906   0.16310   0.65892   0.00000  Uiso   1.00
C597   C     0.70001   0.18248   0.89325   0.00000  Uiso   1.00
C598   C     0.96937   0.16112   0.60609   0.00000  Uiso   1.00
C599   C     0.69338   0.23856   0.96693   0.00000  Uiso   1.00
C600   C     0.98848   0.12703   0.52480   0.00000  Uiso   1.00
C601   C     0.67127   0.21942   0.92041   0.00000  Uiso   1.00
C602   C     0.67129   0.13519   0.57449   0.00000  Uiso   1.00
C603   C     0.74903   0.16365   0.91298   0.00000  Uiso   1.00
C604   C     0.92110   0.18262   0.58767   0.00000  Uiso   1.00
C605   C     0.77560   0.18681   0.95651   0.00000  Uiso   1.00
C606   C     0.98530   0.06869   0.75074   0.00000  Uiso   1.00
C607   C     0.90410   0.17527   0.53805   0.00000  Uiso   1.00
C608   C     0.74594   0.22316   0.98484   0.00000  Uiso   1.00
C609   C     0.93731   0.14504   0.50677   0.00000  Uiso   1.00
C610   C     0.83092   0.17494   0.97215   0.00000  Uiso   1.00
C611   C     0.85256   0.19357   0.51978   0.00000  Uiso   1.00
C612   C     0.74026   0.00647   0.78474   0.00000  Uiso   1.00
C613   C     0.92643   0.32684   0.71523   0.00000  Uiso   1.00
C614   C     0.83144   0.11601   0.70264   0.00000  Uiso   1.00
C615   C     0.83526   0.21720   0.79749   0.00000  Uiso   1.00
C616   C     0.82194   0.22968   0.54750   0.00000  Uiso   1.00
C617   C     0.86588   0.14638   0.94117   0.00000  Uiso   1.00
C618   C     0.76972   0.24445   0.52998   0.00000  Uiso   1.00
C619   C     0.91839   0.13211   0.95827   0.00000  Uiso   1.00
C620   C     0.68879   0.31911   0.75619   0.00000  Uiso   1.00
C621   C     0.97788   0.01422   0.74381   0.00000  Uiso   1.00
C622   C     0.68783   0.17133   0.84104   0.00000  Uiso   1.00
H623   H     0.74788   0.27267   0.55190   0.00000  Uiso   1.00
H624   H     0.85460   0.13573   0.90294   0.00000  Uiso   1.00
H625   H     0.94373   0.10984   0.93365   0.00000  Uiso   1.00
H626   H     0.89516   0.20188   0.61352   0.00000  Uiso   1.00
H627   H     0.76703   0.13229   0.89218   0.00000  Uiso   1.00
H628   H     0.70946   0.11898   0.58848   0.00000  Uiso   1.00
H629   H     0.96645   0.23459   0.90513   0.00000  Uiso   1.00
H630   H     0.67072   0.26684   0.98796   0.00000  Uiso   1.00
H631   H     0.68146   0.10503   0.50086   0.00000  Uiso   1.00
H632   H     0.83831   0.24894   0.58213   0.00000  Uiso   1.00
N633   N     0.81362   0.15216   0.73739   0.00000  Uiso   1.00
N634   N     0.85305   0.18117   0.76260   0.00000  Uiso   1.00
N635   N     0.78105   0.02306   0.80738   0.00000  Uiso   1.00
N636   N     0.88568   0.31022   0.69256   0.00000  Uiso   1.00
N637   N     0.84568   0.08575   0.67333   0.00000  Uiso   1.00
N638   N     0.82106   0.24737   0.82691   0.00000  Uiso   1.00
O639   O     0.96386   0.24631   0.75309   0.00000  Uiso   1.00
O640   O     0.70281   0.08702   0.74690   0.00000  Uiso   1.00
O641   O     0.72488   0.23702   0.74501   0.00000  Uiso   1.00
O642   O     0.94178   0.09632   0.75499   0.00000  Uiso   1.00
O643   O     0.96995   0.17397   0.82247   0.00000  Uiso   1.00
O644   O     0.69672   0.15937   0.67753   0.00000  Uiso   1.00
O645   O     0.73098   0.16467   0.81439   0.00000  Uiso   1.00
O646   O     0.93569   0.16866   0.68561   0.00000  Uiso   1.00
Zn647  Zn    0.93700   0.17287   0.75539   0.00000  Uiso   1.00
Zn648  Zn    0.72967   0.16046   0.74460   0.00000  Uiso   1.00
C649   C     0.01470   0.59798   0.74927   0.00000  Uiso   1.00
C650   C     0.31240   0.49643   0.65892   0.00000  Uiso   1.00
C651   C     0.03334   0.51582   0.89325   0.00000  Uiso   1.00
C652   C     0.30271   0.49446   0.60609   0.00000  Uiso   1.00
C653   C     0.02672   0.57189   0.96693   0.00000  Uiso   1.00
C654   C     0.32182   0.46036   0.52480   0.00000  Uiso   1.00
C655   C     0.00461   0.55276   0.92041   0.00000  Uiso   1.00
C656   C     0.00463   0.46852   0.57449   0.00000  Uiso   1.00
C657   C     0.08237   0.49699   0.91298   0.00000  Uiso   1.00
C658   C     0.25444   0.51595   0.58767   0.00000  Uiso   1.00
C659   C     0.10893   0.52015   0.95651   0.00000  Uiso   1.00
C660   C     0.31863   0.40202   0.75074   0.00000  Uiso   1.00
C661   C     0.23744   0.50861   0.53805   0.00000  Uiso   1.00
C662   C     0.07928   0.55649   0.98484   0.00000  Uiso   1.00
C663   C     0.27065   0.47837   0.50677   0.00000  Uiso   1.00
C664   C     0.16425   0.50828   0.97215   0.00000  Uiso   1.00
C665   C     0.18589   0.52690   0.51978   0.00000  Uiso   1.00
C666   C     0.07360   0.33980   0.78474   0.00000  Uiso   1.00
C667   C     0.25977   0.66018   0.71523   0.00000  Uiso   1.00
C668   C     0.16477   0.44935   0.70264   0.00000  Uiso   1.00
C669   C     0.16859   0.55054   0.79749   0.00000  Uiso   1.00
C670   C     0.15527   0.56301   0.54750   0.00000  Uiso   1.00
C671   C     0.19922   0.47971   0.94117   0.00000  Uiso   1.00
C672   C     0.10305   0.57779   0.52998   0.00000  Uiso   1.00
C673   C     0.25172   0.46544   0.95827   0.00000  Uiso   1.00
C674   C     0.02212   0.65244   0.75619   0.00000  Uiso   1.00
C675   C     0.31121   0.34755   0.74381   0.00000  Uiso   1.00
C676   C     0.02117   0.50467   0.84104   0.00000  Uiso   1.00
H677   H     0.08121   0.60600   0.55190   0.00000  Uiso   1.00
H678   H     0.18793   0.46907   0.90294   0.00000  Uiso   1.00
H679   H     0.27706   0.44317   0.93365   0.00000  Uiso   1.00
H680   H     0.22849   0.53522   0.61352   0.00000  Uiso   1.00
H681   H     0.10037   0.46562   0.89218   0.00000  Uiso   1.00
H682   H     0.04279   0.45232   0.58848   0.00000  Uiso   1.00
H683   H     0.29978   0.56793   0.90513   0.00000  Uiso   1.00
H684   H     0.00405   0.60018   0.98796   0.00000  Uiso   1.00
H685   H     0.01479   0.43836   0.50086   0.00000  Uiso   1.00
H686   H     0.17165   0.58227   0.58213   0.00000  Uiso   1.00
N687   N     0.14695   0.48550   0.73739   0.00000  Uiso   1.00
N688   N     0.18638   0.51450   0.76260   0.00000  Uiso   1.00
N689   N     0.11438   0.35640   0.80738   0.00000  Uiso   1.00
N690   N     0.21901   0.64355   0.69256   0.00000  Uiso   1.00
N691   N     0.17901   0.41908   0.67333   0.00000  Uiso   1.00
N692   N     0.15439   0.58070   0.82691   0.00000  Uiso   1.00
O693   O     0.29719   0.57964   0.75309   0.00000  Uiso   1.00
O694   O     0.03614   0.42036   0.74690   0.00000  Uiso   1.00
O695   O     0.05822   0.57035   0.74501   0.00000  Uiso   1.00
O696   O     0.27512   0.42965   0.75499   0.00000  Uiso   1.00
O697   O     0.30328   0.50730   0.82247   0.00000  Uiso   1.00
O698   O     0.03005   0.49270   0.67753   0.00000  Uiso   1.00
O699   O     0.06431   0.49801   0.81439   0.00000  Uiso   1.00
O700   O     0.26902   0.50199   0.68561   0.00000  Uiso   1.00
Zn701  Zn    0.27033   0.50621   0.75539   0.00000  Uiso   1.00
Zn702  Zn    0.06300   0.49379   0.74460   0.00000  Uiso   1.00
C703   C     0.34804   0.59798   0.74927   0.00000  Uiso   1.00
C704   C     0.64573   0.49643   0.65892   0.00000  Uiso   1.00
C705   C     0.36668   0.51582   0.89325   0.00000  Uiso   1.00
C706   C     0.63604   0.49446   0.60609   0.00000  Uiso   1.00
C707   C     0.36005   0.57189   0.96693   0.00000  Uiso   1.00
C708   C     0.65515   0.46036   0.52480   0.00000  Uiso   1.00
C709   C     0.33794   0.55276   0.92041   0.00000  Uiso   1.00
C710   C     0.33796   0.46852   0.57449   0.00000  Uiso   1.00
C711   C     0.41570   0.49699   0.91298   0.00000  Uiso   1.00
C712   C     0.58777   0.51595   0.58767   0.00000  Uiso   1.00
C713   C     0.44226   0.52015   0.95651   0.00000  Uiso   1.00
C714   C     0.65196   0.40202   0.75074   0.00000  Uiso   1.00
C715   C     0.57077   0.50861   0.53805   0.00000  Uiso   1.00
C716   C     0.41261   0.55649   0.98484   0.00000  Uiso   1.00
C717   C     0.60398   0.47837   0.50677   0.00000  Uiso   1.00
C718   C     0.49758   0.50828   0.97215   0.00000  Uiso   1.00
C719   C     0.51923   0.52690   0.51978   0.00000  Uiso   1.00
C720   C     0.40693   0.33980   0.78474   0.00000  Uiso   1.00
C721   C     0.59310   0.66018   0.71523   0.00000  Uiso   1.00
C722   C     0.49810   0.44935   0.70264   0.00000  Uiso   1.00
C723   C     0.50193   0.55054   0.79749   0.00000  Uiso   1.00
C724   C     0.48860   0.56301   0.54750   0.00000  Uiso   1.00
C725   C     0.53255   0.47971   0.94117   0.00000  Uiso   1.00
C726   C     0.43638   0.57779   0.52998   0.00000  Uiso   1.00
C727   C     0.58506   0.46544   0.95827   0.00000  Uiso   1.00
C728   C     0.35546   0.65244   0.75619   0.00000  Uiso   1.00
C729   C     0.64455   0.34755   0.74381   0.00000  Uiso   1.00
C730   C     0.35450   0.50467   0.84104   0.00000  Uiso   1.00
H731   H     0.41454   0.60600   0.55190   0.00000  Uiso   1.00
H732   H     0.52126   0.46907   0.90294   0.00000  Uiso   1.00
H733   H     0.61039   0.44317   0.93365   0.00000  Uiso   1.00
H734   H     0.56183   0.53522   0.61352   0.00000  Uiso   1.00
H735   H     0.43370   0.46562   0.89218   0.00000  Uiso   1.00
H736   H     0.37613   0.45232   0.58848   0.00000  Uiso   1.00
H737   H     0.63312   0.56793   0.90513   0.00000  Uiso   1.00
H738   H     0.33739   0.60018   0.98796   0.00000  Uiso   1.00
H739   H     0.34812   0.43836   0.50086   0.00000  Uiso   1.00
H740   H     0.50498   0.58227   0.58213   0.00000  Uiso   1.00
N741   N     0.48029   0.48550   0.73739   0.00000  Uiso   1.00
N742   N     0.51971   0.51450   0.76260   0.00000  Uiso   1.00
N743   N     0.44772   0.35640   0.80738   0.00000  Uiso   1.00
N744   N     0.55234   0.64355   0.69256   0.00000  Uiso   1.00
N745   N     0.51235   0.41908   0.67333   0.00000  Uiso   1.00
N746   N     0.48773   0.58070   0.82691   0.00000  Uiso   1.00
O747   O     0.63052   0.57964   0.75309   0.00000  Uiso   1.00
O748   O     0.36948   0.42036   0.74690   0.00000  Uiso   1.00
O749   O     0.39155   0.57035   0.74501   0.00000  Uiso   1.00
O750   O     0.60845   0.42965   0.75499   0.00000  Uiso   1.00
O751   O     0.63662   0.50730   0.82247   0.00000  Uiso   1.00
O752   O     0.36338   0.49270   0.67753   0.00000  Uiso   1.00
O753   O     0.39764   0.49801   0.81439   0.00000  Uiso   1.00
O754   O     0.60236   0.50199   0.68561   0.00000  Uiso   1.00
Zn755  Zn    0.60366   0.50621   0.75539   0.00000  Uiso   1.00
Zn756  Zn    0.39634   0.49379   0.74460   0.00000  Uiso   1.00
C757   C     0.68137   0.59798   0.74927   0.00000  Uiso   1.00
C758   C     0.97906   0.49643   0.65892   0.00000  Uiso   1.00
C759   C     0.70001   0.51582   0.89325   0.00000  Uiso   1.00
C760   C     0.96937   0.49446   0.60609   0.00000  Uiso   1.00
C761   C     0.69338   0.57189   0.96693   0.00000  Uiso   1.00
C762   C     0.98848   0.46036   0.52480   0.00000  Uiso   1.00
C763   C     0.67127   0.55276   0.92041   0.00000  Uiso   1.00
C764   C     0.67129   0.46852   0.57449   0.00000  Uiso   1.00
C765   C     0.74903   0.49699   0.91298   0.00000  Uiso   1.00
C766   C     0.92110   0.51595   0.58767   0.00000  Uiso   1.00
C767   C     0.77560   0.52015   0.95651   0.00000  Uiso   1.00
C768   C     0.98530   0.40202   0.75074   0.00000  Uiso   1.00
C769   C     0.90410   0.50861   0.53805   0.00000  Uiso   1.00
C770   C     0.74594   0.55649   0.98484   0.00000  Uiso   1.00
C771   C     0.93731   0.47837   0.50677   0.00000  Uiso   1.00
C772   C     0.83092   0.50828   0.97215   0.00000  Uiso   1.00
C773   C     0.85256   0.52690   0.51978   0.00000  Uiso   1.00
C774   C     0.74026   0.33980   0.78474   0.00000  Uiso   1.00
C775   C     0.92643   0.66018   0.71523   0.00000  Uiso   1.00
C776   C     0.83144   0.44935   0.70264   0.00000  Uiso   1.00
C777   C     0.83526   0.55054   0.79749   0.00000  Uiso   1.00
C778   C     0.82194   0.56301   0.54750   0.00000  Uiso   1.00
C779   C     0.86588   0.47971   0.94117   0.00000  Uiso   1.00
C780   C     0.76972   0.57779   0.52998   0.00000  Uiso   1.00
C781   C     0.91839   0.46544   0.95827   0.00000  Uiso   1.00
C782   C     0.68879   0.65244   0.75619   0.00000  Uiso   1.00
C783   C     0.97788   0.34755   0.74381   0.00000  Uiso   1.00
C784   C     0.68783   0.50467   0.84104   0.00000  Uiso   1.00
H785   H     0.74788   0.60600   0.55190   0.00000  Uiso   1.00
H786   H     0.85460   0.46907   0.90294   0.00000  Uiso   1.00
H787   H     0.94373   0.44317   0.93365   0.00000  Uiso   1.00
H788   H     0.89516   0.53522   0.61352   0.00000  Uiso   1.00
H789   H     0.76703   0.46562   0.89218   0.00000  Uiso   1.00
H790   H     0.70946   0.45232   0.58848   0.00000  Uiso   1.00
H791   H     0.96645   0.56793   0.90513   0.00000  Uiso   1.00
H792   H     0.67072   0.60018   0.98796   0.00000  Uiso   1.00
H793   H     0.68146   0.43836   0.50086   0.00000  Uiso   1.00
H794   H     0.83831   0.58227   0.58213   0.00000  Uiso   1.00
N795   N     0.81362   0.48550   0.73739   0.00000  Uiso   1.00
N796   N     0.85305   0.51450   0.76260   0.00000  Uiso   1.00
N797   N     0.78105   0.35640   0.80738   0.00000  Uiso   1.00
N798   N     0.88568   0.64355   0.69256   0.00000  Uiso   1.00
N799   N     0.84568   0.41908   0.67333   0.00000  Uiso   1.00
N800   N     0.82106   0.58070   0.82691   0.00000  Uiso   1.00
O801   O     0.96386   0.57964   0.75309   0.00000  Uiso   1.00
O802   O     0.70281   0.42036   0.74690   0.00000  Uiso   1.00
O803   O     0.72488   0.57035   0.74501   0.00000  Uiso   1.00
O804   O     0.94178   0.42965   0.75499   0.00000  Uiso   1.00
O805   O     0.96995   0.50730   0.82247   0.00000  Uiso   1.00
O806   O     0.69672   0.49270   0.67753   0.00000  Uiso   1.00
O807   O     0.73098   0.49801   0.81439   0.00000  Uiso   1.00
O808   O     0.93569   0.50199   0.68561   0.00000  Uiso   1.00
Zn809  Zn    0.93700   0.50621   0.75539   0.00000  Uiso   1.00
Zn810  Zn    0.72967   0.49379   0.74460   0.00000  Uiso   1.00
C811   C     0.01470   0.93131   0.74927   0.00000  Uiso   1.00
C812   C     0.31240   0.82977   0.65892   0.00000  Uiso   1.00
C813   C     0.03334   0.84915   0.89325   0.00000  Uiso   1.00
C814   C     0.30271   0.82779   0.60609   0.00000  Uiso   1.00
C815   C     0.02672   0.90522   0.96693   0.00000  Uiso   1.00
C816   C     0.32182   0.79369   0.52480   0.00000  Uiso   1.00
C817   C     0.00461   0.88609   0.92041   0.00000  Uiso   1.00
C818   C     0.00463   0.80185   0.57449   0.00000  Uiso   1.00
C819   C     0.08237   0.83032   0.91298   0.00000  Uiso   1.00
C820   C     0.25444   0.84928   0.58767   0.00000  Uiso   1.00
C821   C     0.10893   0.85348   0.95651   0.00000  Uiso   1.00
C822   C     0.31863   0.73535   0.75074   0.00000  Uiso   1.00
C823   C     0.23744   0.84194   0.53805   0.00000  Uiso   1.00
C824   C     0.07928   0.88982   0.98484   0.00000  Uiso   1.00
C825   C     0.27065   0.81171   0.50677   0.00000  Uiso   1.00
C826   C     0.16425   0.84161   0.97215   0.00000  Uiso   1.00
C827   C     0.18589   0.86024   0.51978   0.00000  Uiso   1.00
C828   C     0.07360   0.67313   0.78474   0.00000  Uiso   1.00
C829   C     0.25977   0.99351   0.71523   0.00000  Uiso   1.00
C830   C     0.16477   0.78268   0.70264   0.00000  Uiso   1.00
C831   C     0.16859   0.88387   0.79749   0.00000  Uiso   1.00
C832   C     0.15527   0.89635   0.54750   0.00000  Uiso   1.00
C833   C     0.19922   0.81304   0.94117   0.00000  Uiso   1.00
C834   C     0.10305   0.91112   0.52998   0.00000  Uiso   1.00
C835   C     0.25172   0.79877   0.95827   0.00000  Uiso   1.00
C836   C     0.02212   0.98577   0.75619   0.00000  Uiso   1.00
C837   C     0.31121   0.68089   0.74381   0.00000  Uiso   1.00
C838   C     0.02117   0.83800   0.84104   0.00000  Uiso   1.00
H839   H     0.08121   0.93934   0.55190   0.00000  Uiso   1.00
H840   H     0.18793   0.80240   0.90294   0.00000  Uiso   1.00
H841   H     0.27706   0.77650   0.93365   0.00000  Uiso   1.00
H842   H     0.22849   0.86855   0.61352   0.00000  Uiso   1.00
H843   H     0.10037   0.79895   0.89218   0.00000  Uiso   1.00
H844   H     0.04279   0.78565   0.58848   0.00000  Uiso   1.00
H845   H     0.29978   0.90126   0.90513   0.00000  Uiso   1.00
H846   H     0.00405   0.93351   0.98796   0.00000  Uiso   1.00
H847   H     0.01479   0.77170   0.50086   0.00000  Uiso   1.00
H848   H     0.17165   0.91560   0.58213   0.00000  Uiso   1.00
N849   N     0.14695   0.81883   0.73739   0.00000  Uiso   1.00
N850   N     0.18638   0.84784   0.76260   0.00000  Uiso   1.00
N851   N     0.11438   0.68973   0.80738   0.00000  Uiso   1.00
N852   N     0.21901   0.97689   0.69256   0.00000  Uiso   1.00
N853   N     0.17901   0.75242   0.67333   0.00000  Uiso   1.00
N854   N     0.15439   0.91404   0.82691   0.00000  Uiso   1.00
O855   O     0.29719   0.91298   0.75309   0.00000  Uiso   1.00
O856   O     0.03614   0.75369   0.74690   0.00000  Uiso   1.00
O857   O     0.05822   0.90368   0.74501   0.00000  Uiso   1.00
O858   O     0.27512   0.76298   0.75499   0.00000  Uiso   1.00
O859   O     0.30328   0.84063   0.82247   0.00000  Uiso   1.00
O860   O     0.03005   0.82603   0.67753   0.00000  Uiso   1.00
O861   O     0.06431   0.83134   0.81439   0.00000  Uiso   1.00
O862   O     0.26902   0.83533   0.68561   0.00000  Uiso   1.00
Zn863  Zn    0.27033   0.83954   0.75539   0.00000  Uiso   1.00
Zn864  Zn    0.06300   0.82713   0.74460   0.00000  Uiso   1.00
C865   C     0.34804   0.93131   0.74927   0.00000  Uiso   1.00
C866   C     0.64573   0.82977   0.65892   0.00000  Uiso   1.00
C867   C     0.36668   0.84915   0.89325   0.00000  Uiso   1.00
C868   C     0.63604   0.82779   0.60609   0.00000  Uiso   1.00
C869   C     0.36005   0.90522   0.96693   0.00000  Uiso   1.00
C870   C     0.65515   0.79369   0.52480   0.00000  Uiso   1.00
C871   C     0.33794   0.88609   0.92041   0.00000  Uiso   1.00
C872   C     0.33796   0.80185   0.57449   0.00000  Uiso   1.00
C873   C     0.41570   0.83032   0.91298   0.00000  Uiso   1.00
C874   C     0.58777   0.84928   0.58767   0.00000  Uiso   1.00
C875   C     0.44226   0.85348   0.95651   0.00000  Uiso   1.00
C876   C     0.65196   0.73535   0.75074   0.00000  Uiso   1.00
C877   C     0.57077   0.84194   0.53805   0.00000  Uiso   1.00
C878   C     0.41261   0.88982   0.98484   0.00000  Uiso   1.00
C879   C     0.60398   0.81171   0.50677   0.00000  Uiso   1.00
C880   C     0.49758   0.84161   0.97215   0.00000  Uiso   1.00
C881   C     0.51923   0.86024   0.51978   0.00000  Uiso   1.00
C882   C     0.40693   0.67313   0.78474   0.00000  Uiso   1.00
C883   C     0.59310   0.99351   0.71523   0.00000  Uiso   1.00
C884   C     0.49810   0.78268   0.70264   0.00000  Uiso   1.00
C885   C     0.50193   0.88387   0.79749   0.00000  Uiso   1.00
C886   C     0.48860   0.89635   0.54750   0.00000  Uiso   1.00
C887   C     0.53255   0.81304   0.94117   0.00000  Uiso   1.00
C888   C     0.43638   0.91112   0.52998   0.00000  Uiso   1.00
C889   C     0.58506   0.79877   0.95827   0.00000  Uiso   1.00
C890   C     0.35546   0.98577   0.75619   0.00000  Uiso   1.00
C891   C     0.64455   0.68089   0.74381   0.00000  Uiso   1.00
C892   C     0.35450   0.83800   0.84104   0.00000  Uiso   1.00
H893   H     0.41454   0.93934   0.55190   0.00000  Uiso   1.00
H894   H     0.52126   0.80240   0.90294   0.00000  Uiso   1.00
H895   H     0.61039   0.77650   0.93365   0.00000  Uiso   1.00
H896   H     0.56183   0.86855   0.61352   0.00000  Uiso   1.00
H897   H     0.43370   0.79895   0.89218   0.00000  Uiso   1.00
H898   H     0.37613   0.78565   0.58848   0.00000  Uiso   1.00
H899   H     0.63312   0.90126   0.90513   0.00000  Uiso   1.00
H900   H     0.33739   0.93351   0.98796   0.00000  Uiso   1.00
H901   H     0.34812   0.77170   0.50086   0.00000  Uiso   1.00
H902   H     0.50498   0.91560   0.58213   0.00000  Uiso   1.00
N903   N     0.48029   0.81883   0.73739   0.00000  Uiso   1.00
N904   N     0.51971   0.84784   0.76260   0.00000  Uiso   1.00
N905   N     0.44772   0.68973   0.80738   0.00000  Uiso   1.00
N906   N     0.55234   0.97689   0.69256   0.00000  Uiso   1.00
N907   N     0.51235   0.75242   0.67333   0.00000  Uiso   1.00
N908   N     0.48773   0.91404   0.82691   0.00000  Uiso   1.00
O909   O     0.63052   0.91298   0.75309   0.00000  Uiso   1.00
O910   O     0.36948   0.75369   0.74690   0.00000  Uiso   1.00
O911   O     0.39155   0.90368   0.74501   0.00000  Uiso   1.00
O912   O     0.60845   0.76298   0.75499   0.00000  Uiso   1.00
O913   O     0.63662   0.84063   0.82247   0.00000  Uiso   1.00
O914   O     0.36338   0.82603   0.67753   0.00000  Uiso   1.00
O915   O     0.39764   0.83134   0.81439   0.00000  Uiso   1.00
O916   O     0.60236   0.83533   0.68561   0.00000  Uiso   1.00
Zn917  Zn    0.60366   0.83954   0.75539   0.00000  Uiso   1.00
Zn918  Zn    0.39634   0.82713   0.74460   0.00000  Uiso   1.00
C919   C     0.68137   0.93131   0.74927   0.00000  Uiso   1.00
C920   C     0.97906   0.82977   0.65892   0.00000  Uiso   1.00
C921   C     0.70001   0.84915   0.89325   0.00000  Uiso   1.00
C922   C     0.96937   0.82779   0.60609   0.00000  Uiso   1.00
C923   C     0.69338   0.90522   0.96693   0.00000  Uiso   1.00
C924   C     0.98848   0.79369   0.52480   0.00000  Uiso   1.00
C925   C     0.67127   0.88609   0.92041   0.00000  Uiso   1.00
C926   C     0.67129   0.80185   0.57449   0.00000  Uiso   1.00
C927   C     0.74903   0.83032   0.91298   0.00000  Uiso   1.00
C928   C     0.92110   0.84928   0.58767   0.00000  Uiso   1.00
C929   C     0.77560   0.85348   0.95651   0.00000  Uiso   1.00
C930   C     0.98530   0.73535   0.75074   0.00000  Uiso   1.00
C931   C     0.90410   0.84194   0.53805   0.00000  Uiso   1.00
C932   C     0.74594   0.88982   0.98484   0.00000  Uiso   1.00
C933   C     0.93731   0.81171   0.50677   0.00000  Uiso   1.00
C934   C     0.83092   0.84161   0.97215   0.00000  Uiso   1.00
C935   C     0.85256   0.86024   0.51978   0.00000  Uiso   1.00
C936   C     0.74026   0.67313   0.78474   0.00000  Uiso   1.00
C937   C     0.92643   0.99351   0.71523   0.00000  Uiso   1.00
C938   C     0.83144   0.78268   0.70264   0.00000  Uiso   1.00
C939   C     0.83526   0.88387   0.79749   0.00000  Uiso   1.00
C940   C     0.82194   0.89635   0.54750   0.00000  Uiso   1.00
C941   C     0.86588   0.81304   0.94117   0.00000  Uiso   1.00
C942   C     0.76972   0.91112   0.52998   0.00000  Uiso   1.00
C943   C     0.91839   0.79877   0.95827   0.00000  Uiso   1.00
C944   C     0.68879   0.98577   0.75619   0.00000  Uiso   1.00
C945   C     0.97788   0.68089   0.74381   0.00000  Uiso   1.00
C946   C     0.68783   0.83800   0.84104   0.00000  Uiso   1.00
H947   H     0.74788   0.93934   0.55190   0.00000  Uiso   1.00
H948   H     0.85460   0.80240   0.90294   0.00000  Uiso   1.00
H949   H     0.94373   0.77650   0.93365   0.00000  Uiso   1.00
H950   H     0.89516   0.86855   0.61352   0.00000  Uiso   1.00
H951   H     0.76703   0.79895   0.89218   0.00000  Uiso   1.00
H952   H     0.70946   0.78565   0.58848   0.00000  Uiso   1.00
H953   H     0.96645   0.90126   0.90513   0.00000  Uiso   1.00
H954   H     0.67072   0.93351   0.98796   0.00000  Uiso   1.00
H955   H     0.68146   0.77170   0.50086   0.00000  Uiso   1.00
H956   H     0.83831   0.91560   0.58213   0.00000  Uiso   1.00
N957   N     0.81362   0.81883   0.73739   0.00000  Uiso   1.00
N958   N     0.85305   0.84784   0.76260   0.00000  Uiso   1.00
N959   N     0.78105   0.68973   0.80738   0.00000  Uiso   1.00
N960   N     0.88568   0.97689   0.69256   0.00000  Uiso   1.00
N961   N     0.84568   0.75242   0.67333   0.00000  Uiso   1.00
N962   N     0.82106   0.91404   0.82691   0.00000  Uiso   1.00
O963   O     0.96386   0.91298   0.75309   0.00000  Uiso   1.00
O964   O     0.70281   0.75369   0.74690   0.00000  Uiso   1.00
O965   O     0.72488   0.90368   0.74501   0.00000  Uiso   1.00
O966   O     0.94178   0.76298   0.75499   0.00000  Uiso   1.00
O967   O     0.96995   0.84063   0.82247   0.00000  Uiso   1.00
O968   O     0.69672   0.82603   0.67753   0.00000  Uiso   1.00
O969   O     0.73098   0.83134   0.81439   0.00000  Uiso   1.00
O970   O     0.93569   0.83533   0.68561   0.00000  Uiso   1.00
Zn971  Zn    0.93700   0.83954   0.75539   0.00000  Uiso   1.00
Zn972  Zn    0.72967   0.82713   0.74460   0.00000  Uiso   1.00
loop_
_geom_bond_atom_site_label_1
_geom_bond_atom_site_label_2
_geom_bond_distance
_geom_bond_site_symmetry_2
_ccdc_geom_bond_type
C1     C26     1.405   .     S
C1     O47     1.295   .     A
C1     O153    1.277   1_455 S
C2     C4      1.452   .     S
C2     O52     1.302   .     A
C2     O104    1.296   .     S
C3     C9      1.385   .     A
C3     C28     1.449   .     S
C3     C7      1.400   .     A
C4     C10     1.389   .     A
C4     C62     1.399   .     S
C5     C14     1.404   .     A
C5     H36     1.084   .     S
C5     C7      1.394   .     A
C6     C15     1.403   .     A
C6     C62     1.392   .     S
C6     H91     1.084   .     S
C7     H143    1.083   1_455 S
C8     H34     1.083   .     S
C8     C112    1.399   1_455 S
C8     C114    1.392   1_455 S
C9     H33     1.079   .     S
C9     C11     1.392   .     A
C10    H32     1.077   .     S
C10    C13     1.393   .     A
C11    C14     1.418   .     A
C11    C16     1.414   .     A
C12    O48     1.295   .     A
C12    C27     1.406   .     S
C12    O100    1.277   .     S
C13    C17     1.416   .     A
C13    C15     1.419   .     A
C14    C510    1.390   .     S
C15    C511    1.389   1_554 S
C16    C23     1.418   .     A
C16    C503    1.414   .     S
C17    C22     1.419   .     A
C17    C502    1.414   1_554 S
C18    N41     1.158   .     T
C18    C350    1.459   1_545 S
C19    N42     1.158   .     T
C19    C189    1.459   .     S
C20    N43     1.157   .     T
C20    N39     1.385   .     S
C21    N44     1.157   .     T
C21    N40     1.385   .     S
C22    C24     1.388   .     A
C22    H38     1.078   .     S
C23    H30     1.078   .     S
C23    C25     1.386   .     A
C24    H29     1.084   .     S
C24    C500    1.390   1_554 S
C25    H31     1.084   .     S
C25    C501    1.389   .     S
C26    C180    1.459   .     S
C26    C297    1.360   1_455 S
C27    C343    1.459   1_545 S
C27    C404    1.360   1_545 S
C28    O51     1.301   .     A
C28    O157    1.296   1_455 S
H35    C61     1.083   .     S
H37    C114    1.084   1_455 S
N39    Zn54    2.030   .     S
N39    N40     1.292   .     D
N40    Zn53    2.030   .     S
O45    Zn53    1.972   .     S
O45    C55     1.277   .     S
O46    Zn54    1.972   .     S
O46    C120    1.277   1_455 S
O47    Zn54    1.990   .     S
O48    Zn53    1.990   .     S
O49    Zn53    1.956   .     S
O49    C82     1.296   .     S
O50    Zn54    1.956   .     S
O50    C110    1.296   1_455 S
O51    Zn54    1.908   .     S
O52    Zn53    1.908   .     S
C55    C80     1.405   .     S
C55    O101    1.295   .     A
C56    C58     1.452   .     S
C56    O106    1.302   .     A
C56    O158    1.296   .     S
C57    C63     1.385   .     A
C57    C82     1.449   .     S
C57    C61     1.400   .     A
C58    C64     1.389   .     A
C58    C116    1.399   .     S
C59    C68     1.404   .     A
C59    H90     1.084   .     S
C59    C61     1.394   .     A
C60    C69     1.403   .     A
C60    C116    1.392   .     S
C60    H145    1.084   .     S
C62    H88     1.083   .     S
C63    H87     1.079   .     S
C63    C65     1.392   .     A
C64    H86     1.077   .     S
C64    C67     1.393   .     A
C65    C68     1.418   .     A
C65    C70     1.414   .     A
C66    O102    1.295   .     A
C66    C81     1.406   .     S
C66    O154    1.277   .     S
C67    C71     1.416   .     A
C67    C69     1.419   .     A
C68    C564    1.390   .     S
C69    C565    1.389   1_554 S
C70    C77     1.418   .     A
C70    C557    1.414   .     S
C71    C76     1.419   .     A
C71    C556    1.414   1_554 S
C72    N95     1.158   .     T
C72    C404    1.459   1_545 S
C73    N96     1.158   .     T
C73    C243    1.459   .     S
C74    N97     1.157   .     T
C74    N93     1.385   .     S
C75    N98     1.157   .     T
C75    N94     1.385   .     S
C76    C78     1.388   .     A
C76    H92     1.078   .     S
C77    H84     1.078   .     S
C77    C79     1.386   .     A
C78    H83     1.084   .     S
C78    C554    1.390   1_554 S
C79    H85     1.084   .     S
C79    C555    1.389   .     S
C80    C234    1.459   .     S
C80    C189    1.360   .     S
C81    C397    1.459   1_545 S
C81    C458    1.360   1_545 S
C82    O105    1.301   .     A
H89    C115    1.083   .     S
N93    Zn108   2.030   .     S
N93    N94     1.292   .     D
N94    Zn107   2.030   .     S
O99    Zn107   1.972   .     S
O99    C109    1.277   .     S
O100   Zn108   1.972   .     S
O101   Zn108   1.990   .     S
O102   Zn107   1.990   .     S
O103   Zn107   1.956   .     S
O103   C136    1.296   .     S
O104   Zn108   1.956   .     S
O105   Zn108   1.908   .     S
O106   Zn107   1.908   .     S
C109   C134    1.405   .     S
C109   O155    1.295   .     A
C110   C112    1.452   .     S
C110   O160    1.302   .     A
C110   O50     1.296   1_655 S
C111   C117    1.385   .     A
C111   C136    1.449   .     S
C111   C115    1.400   .     A
C112   C118    1.389   .     A
C112   C8      1.399   1_655 S
C113   C122    1.404   .     A
C113   H144    1.084   .     S
C113   C115    1.394   .     A
C114   C123    1.403   .     A
C114   C8      1.392   1_655 S
C114   H37     1.084   1_655 S
C116   H142    1.083   .     S
C117   H141    1.079   .     S
C117   C119    1.392   .     A
C118   H140    1.077   .     S
C118   C121    1.393   .     A
C119   C122    1.418   .     A
C119   C124    1.414   .     A
C120   O156    1.295   .     A
C120   C135    1.406   .     S
C120   O46     1.277   1_655 S
C121   C125    1.416   .     A
C121   C123    1.419   .     A
C122   C618    1.390   .     S
C123   C619    1.389   1_554 S
C124   C131    1.418   .     A
C124   C611    1.414   .     S
C125   C130    1.419   .     A
C125   C610    1.414   1_554 S
C126   N149    1.158   .     T
C126   C458    1.459   1_545 S
C127   N150    1.158   .     T
C127   C297    1.459   .     S
C128   N151    1.157   .     T
C128   N147    1.385   .     S
C129   N152    1.157   .     T
C129   N148    1.385   .     S
C130   C132    1.388   .     A
C130   H146    1.078   .     S
C131   H138    1.078   .     S
C131   C133    1.386   .     A
C132   H137    1.084   .     S
C132   C608    1.390   1_554 S
C133   H139    1.084   .     S
C133   C609    1.389   .     S
C134   C288    1.459   .     S
C134   C243    1.360   .     S
C135   C451    1.459   1_545 S
C135   C350    1.360   1_645 S
C136   O159    1.301   .     A
H143   C7      1.083   1_655 S
N147   Zn162   2.030   .     S
N147   N148    1.292   .     D
N148   Zn161   2.030   .     S
O153   Zn161   1.972   .     S
O153   C1      1.277   1_655 S
O154   Zn162   1.972   .     S
O155   Zn162   1.990   .     S
O156   Zn161   1.990   .     S
O157   Zn161   1.956   .     S
O157   C28     1.296   1_655 S
O158   Zn162   1.956   .     S
O159   Zn162   1.908   .     S
O160   Zn161   1.908   .     S
C163   C188    1.405   .     S
C163   O209    1.295   .     A
C163   O315    1.277   1_455 S
C164   C166    1.452   .     S
C164   O214    1.302   .     A
C164   O266    1.296   .     S
C165   C171    1.385   .     A
C165   C190    1.449   .     S
C165   C169    1.400   .     A
C166   C172    1.389   .     A
C166   C224    1.399   .     S
C167   C176    1.404   .     A
C167   H198    1.084   .     S
C167   C169    1.394   .     A
C168   C177    1.403   .     A
C168   C224    1.392   .     S
C168   H253    1.084   .     S
C169   H305    1.083   1_455 S
C170   H196    1.083   .     S
C170   C274    1.399   1_455 S
C170   C276    1.392   1_455 S
C171   H195    1.079   .     S
C171   C173    1.392   .     A
C172   H194    1.077   .     S
C172   C175    1.393   .     A
C173   C176    1.418   .     A
C173   C178    1.414   .     A
C174   O210    1.295   .     A
C174   C189    1.406   .     S
C174   O262    1.277   .     S
C175   C179    1.416   .     A
C175   C177    1.419   .     A
C176   C672    1.390   .     S
C177   C673    1.389   1_554 S
C178   C185    1.418   .     A
C178   C665    1.414   .     S
C179   C184    1.419   .     A
C179   C664    1.414   1_554 S
C180   N203    1.158   .     T
C181   N204    1.158   .     T
C181   C351    1.459   .     S
C182   N205    1.157   .     T
C182   N201    1.385   .     S
C183   N206    1.157   .     T
C183   N202    1.385   .     S
C184   C186    1.388   .     A
C184   H200    1.078   .     S
C185   H192    1.078   .     S
C185   C187    1.386   .     A
C186   H191    1.084   .     S
C186   C662    1.390   1_554 S
C187   H193    1.084   .     S
C187   C663    1.389   .     S
C188   C342    1.459   .     S
C188   C459    1.360   1_455 S
C190   O213    1.301   .     A
C190   O319    1.296   1_455 S
H197   C223    1.083   .     S
H199   C276    1.084   1_455 S
N201   Zn216   2.030   .     S
N201   N202    1.292   .     D
N202   Zn215   2.030   .     S
O207   Zn215   1.972   .     S
O207   C217    1.277   .     S
O208   Zn216   1.972   .     S
O208   C282    1.277   1_455 S
O209   Zn216   1.990   .     S
O210   Zn215   1.990   .     S
O211   Zn215   1.956   .     S
O211   C244    1.296   .     S
O212   Zn216   1.956   .     S
O212   C272    1.296   1_455 S
O213   Zn216   1.908   .     S
O214   Zn215   1.908   .     S
C217   C242    1.405   .     S
C217   O263    1.295   .     A
C218   C220    1.452   .     S
C218   O268    1.302   .     A
C218   O320    1.296   .     S
C219   C225    1.385   .     A
C219   C244    1.449   .     S
C219   C223    1.400   .     A
C220   C226    1.389   .     A
C220   C278    1.399   .     S
C221   C230    1.404   .     A
C221   H252    1.084   .     S
C221   C223    1.394   .     A
C222   C231    1.403   .     A
C222   C278    1.392   .     S
C222   H307    1.084   .     S
C224   H250    1.083   .     S
C225   H249    1.079   .     S
C225   C227    1.392   .     A
C226   H248    1.077   .     S
C226   C229    1.393   .     A
C227   C230    1.418   .     A
C227   C232    1.414   .     A
C228   O264    1.295   .     A
C228   C243    1.406   .     S
C228   O316    1.277   .     S
C229   C233    1.416   .     A
C229   C231    1.419   .     A
C230   C726    1.390   .     S
C231   C727    1.389   1_554 S
C232   C239    1.418   .     A
C232   C719    1.414   .     S
C233   C238    1.419   .     A
C233   C718    1.414   1_554 S
C234   N257    1.158   .     T
C235   N258    1.158   .     T
C235   C405    1.459   .     S
C236   N259    1.157   .     T
C236   N255    1.385   .     S
C237   N260    1.157   .     T
C237   N256    1.385   .     S
C238   C240    1.388   .     A
C238   H254    1.078   .     S
C239   H246    1.078   .     S
C239   C241    1.386   .     A
C240   H245    1.084   .     S
C240   C716    1.390   1_554 S
C241   H247    1.084   .     S
C241   C717    1.389   .     S
C242   C396    1.459   .     S
C242   C351    1.360   .     S
C244   O267    1.301   .     A
H251   C277    1.083   .     S
N255   Zn270   2.030   .     S
N255   N256    1.292   .     D
N256   Zn269   2.030   .     S
O261   Zn269   1.972   .     S
O261   C271    1.277   .     S
O262   Zn270   1.972   .     S
O263   Zn270   1.990   .     S
O264   Zn269   1.990   .     S
O265   Zn269   1.956   .     S
O265   C298    1.296   .     S
O266   Zn270   1.956   .     S
O267   Zn270   1.908   .     S
O268   Zn269   1.908   .     S
C271   C296    1.405   .     S
C271   O317    1.295   .     A
C272   C274    1.452   .     S
C272   O322    1.302   .     A
C272   O212    1.296   1_655 S
C273   C279    1.385   .     A
C273   C298    1.449   .     S
C273   C277    1.400   .     A
C274   C280    1.389   .     A
C274   C170    1.399   1_655 S
C275   C284    1.404   .     A
C275   H306    1.084   .     S
C275   C277    1.394   .     A
C276   C285    1.403   .     A
C276   C170    1.392   1_655 S
C276   H199    1.084   1_655 S
C278   H304    1.083   .     S
C279   H303    1.079   .     S
C279   C281    1.392   .     A
C280   H302    1.077   .     S
C280   C283    1.393   .     A
C281   C284    1.418   .     A
C281   C286    1.414   .     A
C282   O318    1.295   .     A
C282   C297    1.406   .     S
C282   O208    1.277   1_655 S
C283   C287    1.416   .     A
C283   C285    1.419   .     A
C284   C780    1.390   .     S
C285   C781    1.389   1_554 S
C286   C293    1.418   .     A
C286   C773    1.414   .     S
C287   C292    1.419   .     A
C287   C772    1.414   1_554 S
C288   N311    1.158   .     T
C289   N312    1.158   .     T
C289   C459    1.459   .     S
C290   N313    1.157   .     T
C290   N309    1.385   .     S
C291   N314    1.157   .     T
C291   N310    1.385   .     S
C292   C294    1.388   .     A
C292   H308    1.078   .     S
C293   H300    1.078   .     S
C293   C295    1.386   .     A
C294   H299    1.084   .     S
C294   C770    1.390   1_554 S
C295   H301    1.084   .     S
C295   C771    1.389   .     S
C296   C450    1.459   .     S
C296   C405    1.360   .     S
C297   C26     1.360   1_655 S
C298   O321    1.301   .     A
H305   C169    1.083   1_655 S
N309   Zn324   2.030   .     S
N309   N310    1.292   .     D
N310   Zn323   2.030   .     S
O315   Zn323   1.972   .     S
O315   C163    1.277   1_655 S
O316   Zn324   1.972   .     S
O317   Zn324   1.990   .     S
O318   Zn323   1.990   .     S
O319   Zn323   1.956   .     S
O319   C190    1.296   1_655 S
O320   Zn324   1.956   .     S
O321   Zn324   1.908   .     S
O322   Zn323   1.908   .     S
C325   C350    1.405   .     S
C325   O371    1.295   .     A
C325   O477    1.277   1_455 S
C326   C328    1.452   .     S
C326   O376    1.302   .     A
C326   O428    1.296   .     S
C327   C333    1.385   .     A
C327   C352    1.449   .     S
C327   C331    1.400   .     A
C328   C334    1.389   .     A
C328   C386    1.399   .     S
C329   C338    1.404   .     A
C329   H360    1.084   .     S
C329   C331    1.394   .     A
C330   C339    1.403   .     A
C330   C386    1.392   .     S
C330   H415    1.084   .     S
C331   H467    1.083   1_455 S
C332   H358    1.083   .     S
C332   C436    1.399   1_455 S
C332   C438    1.392   1_455 S
C333   H357    1.079   .     S
C333   C335    1.392   .     A
C334   H356    1.077   .     S
C334   C337    1.393   .     A
C335   C338    1.418   .     A
C335   C340    1.414   .     A
C336   O372    1.295   .     A
C336   C351    1.406   .     S
C336   O424    1.277   .     S
C337   C341    1.416   .     A
C337   C339    1.419   .     A
C338   C834    1.390   .     S
C339   C835    1.389   1_554 S
C340   C347    1.418   .     A
C340   C827    1.414   .     S
C341   C346    1.419   .     A
C341   C826    1.414   1_554 S
C342   N365    1.158   .     T
C343   N366    1.158   .     T
C343   C27     1.459   1_565 S
C344   N367    1.157   .     T
C344   N363    1.385   .     S
C345   N368    1.157   .     T
C345   N364    1.385   .     S
C346   C348    1.388   .     A
C346   H362    1.078   .     S
C347   H354    1.078   .     S
C347   C349    1.386   .     A
C348   H353    1.084   .     S
C348   C824    1.390   1_554 S
C349   H355    1.084   .     S
C349   C825    1.389   .     S
C350   C18     1.459   1_565 S
C350   C135    1.360   1_465 S
C352   O375    1.301   .     A
C352   O481    1.296   1_455 S
H359   C385    1.083   .     S
H361   C438    1.084   1_455 S
N363   Zn378   2.030   .     S
N363   N364    1.292   .     D
N364   Zn377   2.030   .     S
O369   Zn377   1.972   .     S
O369   C379    1.277   .     S
O370   Zn378   1.972   .     S
O370   C444    1.277   1_455 S
O371   Zn378   1.990   .     S
O372   Zn377   1.990   .     S
O373   Zn377   1.956   .     S
O373   C406    1.296   .     S
O374   Zn378   1.956   .     S
O374   C434    1.296   1_455 S
O375   Zn378   1.908   .     S
O376   Zn377   1.908   .     S
C379   C404    1.405   .     S
C379   O425    1.295   .     A
C380   C382    1.452   .     S
C380   O430    1.302   .     A
C380   O482    1.296   .     S
C381   C387    1.385   .     A
C381   C406    1.449   .     S
C381   C385    1.400   .     A
C382   C388    1.389   .     A
C382   C440    1.399   .     S
C383   C392    1.404   .     A
C383   H414    1.084   .     S
C383   C385    1.394   .     A
C384   C393    1.403   .     A
C384   C440    1.392   .     S
C384   H469    1.084   .     S
C386   H412    1.083   .     S
C387   H411    1.079   .     S
C387   C389    1.392   .     A
C388   H410    1.077   .     S
C388   C391    1.393   .     A
C389   C392    1.418   .     A
C389   C394    1.414   .     A
C390   O426    1.295   .     A
C390   C405    1.406   .     S
C390   O478    1.277   .     S
C391   C395    1.416   .     A
C391   C393    1.419   .     A
C392   C888    1.390   .     S
C393   C889    1.389   1_554 S
C394   C401    1.418   .     A
C394   C881    1.414   .     S
C395   C400    1.419   .     A
C395   C880    1.414   1_554 S
C396   N419    1.158   .     T
C397   N420    1.158   .     T
C397   C81     1.459   1_565 S
C398   N421    1.157   .     T
C398   N417    1.385   .     S
C399   N422    1.157   .     T
C399   N418    1.385   .     S
C400   C402    1.388   .     A
C400   H416    1.078   .     S
C401   H408    1.078   .     S
C401   C403    1.386   .     A
C402   H407    1.084   .     S
C402   C878    1.390   1_554 S
C403   H409    1.084   .     S
C403   C879    1.389   .     S
C404   C72     1.459   1_565 S
C404   C27     1.360   1_565 S
C406   O429    1.301   .     A
H413   C439    1.083   .     S
N417   Zn432   2.030   .     S
N417   N418    1.292   .     D
N418   Zn431   2.030   .     S
O423   Zn431   1.972   .     S
O423   C433    1.277   .     S
O424   Zn432   1.972   .     S
O425   Zn432   1.990   .     S
O426   Zn431   1.990   .     S
O427   Zn431   1.956   .     S
O427   C460    1.296   .     S
O428   Zn432   1.956   .     S
O429   Zn432   1.908   .     S
O430   Zn431   1.908   .     S
C433   C458    1.405   .     S
C433   O479    1.295   .     A
C434   C436    1.452   .     S
C434   O484    1.302   .     A
C434   O374    1.296   1_655 S
C435   C441    1.385   .     A
C435   C460    1.449   .     S
C435   C439    1.400   .     A
C436   C442    1.389   .     A
C436   C332    1.399   1_655 S
C437   C446    1.404   .     A
C437   H468    1.084   .     S
C437   C439    1.394   .     A
C438   C447    1.403   .     A
C438   C332    1.392   1_655 S
C438   H361    1.084   1_655 S
C440   H466    1.083   .     S
C441   H465    1.079   .     S
C441   C443    1.392   .     A
C442   H464    1.077   .     S
C442   C445    1.393   .     A
C443   C446    1.418   .     A
C443   C448    1.414   .     A
C444   O480    1.295   .     A
C444   C459    1.406   .     S
C444   O370    1.277   1_655 S
C445   C449    1.416   .     A
C445   C447    1.419   .     A
C446   C942    1.390   .     S
C447   C943    1.389   1_554 S
C448   C455    1.418   .     A
C448   C935    1.414   .     S
C449   C454    1.419   .     A
C449   C934    1.414   1_554 S
C450   N473    1.158   .     T
C451   N474    1.158   .     T
C451   C135    1.459   1_565 S
C452   N475    1.157   .     T
C452   N471    1.385   .     S
C453   N476    1.157   .     T
C453   N472    1.385   .     S
C454   C456    1.388   .     A
C454   H470    1.078   .     S
C455   H462    1.078   .     S
C455   C457    1.386   .     A
C456   H461    1.084   .     S
C456   C932    1.390   1_554 S
C457   H463    1.084   .     S
C457   C933    1.389   .     S
C458   C126    1.459   1_565 S
C458   C81     1.360   1_565 S
C459   C188    1.360   1_655 S
C460   O483    1.301   .     A
H467   C331    1.083   1_655 S
N471   Zn486   2.030   .     S
N471   N472    1.292   .     D
N472   Zn485   2.030   .     S
O477   Zn485   1.972   .     S
O477   C325    1.277   1_655 S
O478   Zn486   1.972   .     S
O479   Zn486   1.990   .     S
O480   Zn485   1.990   .     S
O481   Zn485   1.956   .     S
O481   C352    1.296   1_655 S
O482   Zn486   1.956   .     S
O483   Zn486   1.908   .     S
O484   Zn485   1.908   .     S
C487   C512    1.405   .     S
C487   O533    1.295   .     A
C487   O639    1.277   1_455 S
C488   C490    1.452   .     S
C488   O538    1.302   .     A
C488   O590    1.296   .     S
C489   C495    1.385   .     A
C489   C514    1.449   .     S
C489   C493    1.400   .     A
C490   C496    1.389   .     A
C490   C548    1.399   .     S
C491   C500    1.404   .     A
C491   H522    1.084   .     S
C491   C493    1.394   .     A
C492   C501    1.403   .     A
C492   C548    1.392   .     S
C492   H577    1.084   .     S
C493   H629    1.083   1_455 S
C494   H520    1.083   .     S
C494   C598    1.399   1_455 S
C494   C600    1.392   1_455 S
C495   H519    1.079   .     S
C495   C497    1.392   .     A
C496   H518    1.077   .     S
C496   C499    1.393   .     A
C497   C500    1.418   .     A
C497   C502    1.414   .     A
C498   O534    1.295   .     A
C498   C513    1.406   .     S
C498   O586    1.277   .     S
C499   C503    1.416   .     A
C499   C501    1.419   .     A
C500   C24     1.390   1_556 S
C502   C509    1.418   .     A
C502   C17     1.414   1_556 S
C503   C508    1.419   .     A
C504   N527    1.158   .     T
C504   C836    1.459   1_545 S
C505   N528    1.158   .     T
C505   C675    1.459   .     S
C506   N529    1.157   .     T
C506   N525    1.385   .     S
C507   N530    1.157   .     T
C507   N526    1.385   .     S
C508   C510    1.388   .     A
C508   H524    1.078   .     S
C509   H516    1.078   .     S
C509   C511    1.386   .     A
C510   H515    1.084   .     S
C511   H517    1.084   .     S
C511   C15     1.389   1_556 S
C512   C666    1.459   .     S
C512   C783    1.360   1_455 S
C513   C829    1.459   1_545 S
C513   C890    1.360   1_545 S
C514   O537    1.301   .     A
C514   O643    1.296   1_455 S
H521   C547    1.083   .     S
H523   C600    1.084   1_455 S
N525   Zn540   2.030   .     S
N525   N526    1.292   .     D
N526   Zn539   2.030   .     S
O531   Zn539   1.972   .     S
O531   C541    1.277   .     S
O532   Zn540   1.972   .     S
O532   C606    1.277   1_455 S
O533   Zn540   1.990   .     S
O534   Zn539   1.990   .     S
O535   Zn539   1.956   .     S
O535   C568    1.296   .     S
O536   Zn540   1.956   .     S
O536   C596    1.296   1_455 S
O537   Zn540   1.908   .     S
O538   Zn539   1.908   .     S
C541   C566    1.405   .     S
C541   O587    1.295   .     A
C542   C544    1.452   .     S
C542   O592    1.302   .     A
C542   O644    1.296   .     S
C543   C549    1.385   .     A
C543   C568    1.449   .     S
C543   C547    1.400   .     A
C544   C550    1.389   .     A
C544   C602    1.399   .     S
C545   C554    1.404   .     A
C545   H576    1.084   .     S
C545   C547    1.394   .     A
C546   C555    1.403   .     A
C546   C602    1.392   .     S
C546   H631    1.084   .     S
C548   H574    1.083   .     S
C549   H573    1.079   .     S
C549   C551    1.392   .     A
C550   H572    1.077   .     S
C550   C553    1.393   .     A
C551   C554    1.418   .     A
C551   C556    1.414   .     A
C552   O588    1.295   .     A
C552   C567    1.406   .     S
C552   O640    1.277   .     S
C553   C557    1.416   .     A
C553   C555    1.419   .     A
C554   C78     1.390   1_556 S
C556   C563    1.418   .     A
C556   C71     1.414   1_556 S
C557   C562    1.419   .     A
C558   N581    1.158   .     T
C558   C890    1.459   1_545 S
C559   N582    1.158   .     T
C559   C729    1.459   .     S
C560   N583    1.157   .     T
C560   N579    1.385   .     S
C561   N584    1.157   .     T
C561   N580    1.385   .     S
C562   C564    1.388   .     A
C562   H578    1.078   .     S
C563   H570    1.078   .     S
C563   C565    1.386   .     A
C564   H569    1.084   .     S
C565   H571    1.084   .     S
C565   C69     1.389   1_556 S
C566   C720    1.459   .     S
C566   C675    1.360   .     S
C567   C883    1.459   1_545 S
C567   C944    1.360   1_545 S
C568   O591    1.301   .     A
H575   C601    1.083   .     S
N579   Zn594   2.030   .     S
N579   N580    1.292   .     D
N580   Zn593   2.030   .     S
O585   Zn593   1.972   .     S
O585   C595    1.277   .     S
O586   Zn594   1.972   .     S
O587   Zn594   1.990   .     S
O588   Zn593   1.990   .     S
O589   Zn593   1.956   .     S
O589   C622    1.296   .     S
O590   Zn594   1.956   .     S
O591   Zn594   1.908   .     S
O592   Zn593   1.908   .     S
C595   C620    1.405   .     S
C595   O641    1.295   .     A
C596   C598    1.452   .     S
C596   O646    1.302   .     A
C596   O536    1.296   1_655 S
C597   C603    1.385   .     A
C597   C622    1.449   .     S
C597   C601    1.400   .     A
C598   C604    1.389   .     A
C598   C494    1.399   1_655 S
C599   C608    1.404   .     A
C599   H630    1.084   .     S
C599   C601    1.394   .     A
C600   C609    1.403   .     A
C600   C494    1.392   1_655 S
C600   H523    1.084   1_655 S
C602   H628    1.083   .     S
C603   H627    1.079   .     S
C603   C605    1.392   .     A
C604   H626    1.077   .     S
C604   C607    1.393   .     A
C605   C608    1.418   .     A
C605   C610    1.414   .     A
C606   O642    1.295   .     A
C606   C621    1.406   .     S
C606   O532    1.277   1_655 S
C607   C611    1.416   .     A
C607   C609    1.419   .     A
C608   C132    1.390   1_556 S
C610   C617    1.418   .     A
C610   C125    1.414   1_556 S
C611   C616    1.419   .     A
C612   N635    1.158   .     T
C612   C944    1.459   1_545 S
C613   N636    1.158   .     T
C613   C783    1.459   .     S
C614   N637    1.157   .     T
C614   N633    1.385   .     S
C615   N638    1.157   .     T
C615   N634    1.385   .     S
C616   C618    1.388   .     A
C616   H632    1.078   .     S
C617   H624    1.078   .     S
C617   C619    1.386   .     A
C618   H623    1.084   .     S
C619   H625    1.084   .     S
C619   C123    1.389   1_556 S
C620   C774    1.459   .     S
C620   C729    1.360   .     S
C621   C937    1.459   1_545 S
C621   C836    1.360   1_645 S
C622   O645    1.301   .     A
H629   C493    1.083   1_655 S
N633   Zn648   2.030   .     S
N633   N634    1.292   .     D
N634   Zn647   2.030   .     S
O639   Zn647   1.972   .     S
O639   C487    1.277   1_655 S
O640   Zn648   1.972   .     S
O641   Zn648   1.990   .     S
O642   Zn647   1.990   .     S
O643   Zn647   1.956   .     S
O643   C514    1.296   1_655 S
O644   Zn648   1.956   .     S
O645   Zn648   1.908   .     S
O646   Zn647   1.908   .     S
C649   C674    1.405   .     S
C649   O695    1.295   .     A
C649   O801    1.277   1_455 S
C650   C652    1.452   .     S
C650   O700    1.302   .     A
C650   O752    1.296   .     S
C651   C657    1.385   .     A
C651   C676    1.449   .     S
C651   C655    1.400   .     A
C652   C658    1.389   .     A
C652   C710    1.399   .     S
C653   C662    1.404   .     A
C653   H684    1.084   .     S
C653   C655    1.394   .     A
C654   C663    1.403   .     A
C654   C710    1.392   .     S
C654   H739    1.084   .     S
C655   H791    1.083   1_455 S
C656   H682    1.083   .     S
C656   C760    1.399   1_455 S
C656   C762    1.392   1_455 S
C657   H681    1.079   .     S
C657   C659    1.392   .     A
C658   H680    1.077   .     S
C658   C661    1.393   .     A
C659   C662    1.418   .     A
C659   C664    1.414   .     A
C660   O696    1.295   .     A
C660   C675    1.406   .     S
C660   O748    1.277   .     S
C661   C665    1.416   .     A
C661   C663    1.419   .     A
C662   C186    1.390   1_556 S
C664   C671    1.418   .     A
C664   C179    1.414   1_556 S
C665   C670    1.419   .     A
C666   N689    1.158   .     T
C667   N690    1.158   .     T
C667   C837    1.459   .     S
C668   N691    1.157   .     T
C668   N687    1.385   .     S
C669   N692    1.157   .     T
C669   N688    1.385   .     S
C670   C672    1.388   .     A
C670   H686    1.078   .     S
C671   H678    1.078   .     S
C671   C673    1.386   .     A
C672   H677    1.084   .     S
C673   H679    1.084   .     S
C673   C177    1.389   1_556 S
C674   C828    1.459   .     S
C674   C945    1.360   1_455 S
C676   O699    1.301   .     A
C676   O805    1.296   1_455 S
H683   C709    1.083   .     S
H685   C762    1.084   1_455 S
N687   Zn702   2.030   .     S
N687   N688    1.292   .     D
N688   Zn701   2.030   .     S
O693   Zn701   1.972   .     S
O693   C703    1.277   .     S
O694   Zn702   1.972   .     S
O694   C768    1.277   1_455 S
O695   Zn702   1.990   .     S
O696   Zn701   1.990   .     S
O697   Zn701   1.956   .     S
O697   C730    1.296   .     S
O698   Zn702   1.956   .     S
O698   C758    1.296   1_455 S
O699   Zn702   1.908   .     S
O700   Zn701   1.908   .     S
C703   C728    1.405   .     S
C703   O749    1.295   .     A
C704   C706    1.452   .     S
C704   O754    1.302   .     A
C704   O806    1.296   .     S
C705   C711    1.385   .     A
C705   C730    1.449   .     S
C705   C709    1.400   .     A
C706   C712    1.389   .     A
C706   C764    1.399   .     S
C707   C716    1.404   .     A
C707   H738    1.084   .     S
C707   C709    1.394   .     A
C708   C717    1.403   .     A
C708   C764    1.392   .     S
C708   H793    1.084   .     S
C710   H736    1.083   .     S
C711   H735    1.079   .     S
C711   C713    1.392   .     A
C712   H734    1.077   .     S
C712   C715    1.393   .     A
C713   C716    1.418   .     A
C713   C718    1.414   .     A
C714   O750    1.295   .     A
C714   C729    1.406   .     S
C714   O802    1.277   .     S
C715   C719    1.416   .     A
C715   C717    1.419   .     A
C716   C240    1.390   1_556 S
C718   C725    1.418   .     A
C718   C233    1.414   1_556 S
C719   C724    1.419   .     A
C720   N743    1.158   .     T
C721   N744    1.158   .     T
C721   C891    1.459   .     S
C722   N745    1.157   .     T
C722   N741    1.385   .     S
C723   N746    1.157   .     T
C723   N742    1.385   .     S
C724   C726    1.388   .     A
C724   H740    1.078   .     S
C725   H732    1.078   .     S
C725   C727    1.386   .     A
C726   H731    1.084   .     S
C727   H733    1.084   .     S
C727   C231    1.389   1_556 S
C728   C882    1.459   .     S
C728   C837    1.360   .     S
C730   O753    1.301   .     A
H737   C763    1.083   .     S
N741   Zn756   2.030   .     S
N741   N742    1.292   .     D
N742   Zn755   2.030   .     S
O747   Zn755   1.972   .     S
O747   C757    1.277   .     S
O748   Zn756   1.972   .     S
O749   Zn756   1.990   .     S
O750   Zn755   1.990   .     S
O751   Zn755   1.956   .     S
O751   C784    1.296   .     S
O752   Zn756   1.956   .     S
O753   Zn756   1.908   .     S
O754   Zn755   1.908   .     S
C757   C782    1.405   .     S
C757   O803    1.295   .     A
C758   C760    1.452   .     S
C758   O808    1.302   .     A
C758   O698    1.296   1_655 S
C759   C765    1.385   .     A
C759   C784    1.449   .     S
C759   C763    1.400   .     A
C760   C766    1.389   .     A
C760   C656    1.399   1_655 S
C761   C770    1.404   .     A
C761   H792    1.084   .     S
C761   C763    1.394   .     A
C762   C771    1.403   .     A
C762   C656    1.392   1_655 S
C762   H685    1.084   1_655 S
C764   H790    1.083   .     S
C765   H789    1.079   .     S
C765   C767    1.392   .     A
C766   H788    1.077   .     S
C766   C769    1.393   .     A
C767   C770    1.418   .     A
C767   C772    1.414   .     A
C768   O804    1.295   .     A
C768   C783    1.406   .     S
C768   O694    1.277   1_655 S
C769   C773    1.416   .     A
C769   C771    1.419   .     A
C770   C294    1.390   1_556 S
C772   C779    1.418   .     A
C772   C287    1.414   1_556 S
C773   C778    1.419   .     A
C774   N797    1.158   .     T
C775   N798    1.158   .     T
C775   C945    1.459   .     S
C776   N799    1.157   .     T
C776   N795    1.385   .     S
C777   N800    1.157   .     T
C777   N796    1.385   .     S
C778   C780    1.388   .     A
C778   H794    1.078   .     S
C779   H786    1.078   .     S
C779   C781    1.386   .     A
C780   H785    1.084   .     S
C781   H787    1.084   .     S
C781   C285    1.389   1_556 S
C782   C936    1.459   .     S
C782   C891    1.360   .     S
C783   C512    1.360   1_655 S
C784   O807    1.301   .     A
H791   C655    1.083   1_655 S
N795   Zn810   2.030   .     S
N795   N796    1.292   .     D
N796   Zn809   2.030   .     S
O801   Zn809   1.972   .     S
O801   C649    1.277   1_655 S
O802   Zn810   1.972   .     S
O803   Zn810   1.990   .     S
O804   Zn809   1.990   .     S
O805   Zn809   1.956   .     S
O805   C676    1.296   1_655 S
O806   Zn810   1.956   .     S
O807   Zn810   1.908   .     S
O808   Zn809   1.908   .     S
C811   C836    1.405   .     S
C811   O857    1.295   .     A
C811   O963    1.277   1_455 S
C812   C814    1.452   .     S
C812   O862    1.302   .     A
C812   O914    1.296   .     S
C813   C819    1.385   .     A
C813   C838    1.449   .     S
C813   C817    1.400   .     A
C814   C820    1.389   .     A
C814   C872    1.399   .     S
C815   C824    1.404   .     A
C815   H846    1.084   .     S
C815   C817    1.394   .     A
C816   C825    1.403   .     A
C816   C872    1.392   .     S
C816   H901    1.084   .     S
C817   H953    1.083   1_455 S
C818   H844    1.083   .     S
C818   C922    1.399   1_455 S
C818   C924    1.392   1_455 S
C819   H843    1.079   .     S
C819   C821    1.392   .     A
C820   H842    1.077   .     S
C820   C823    1.393   .     A
C821   C824    1.418   .     A
C821   C826    1.414   .     A
C822   O858    1.295   .     A
C822   C837    1.406   .     S
C822   O910    1.277   .     S
C823   C827    1.416   .     A
C823   C825    1.419   .     A
C824   C348    1.390   1_556 S
C826   C833    1.418   .     A
C826   C341    1.414   1_556 S
C827   C832    1.419   .     A
C828   N851    1.158   .     T
C829   N852    1.158   .     T
C829   C513    1.459   1_565 S
C830   N853    1.157   .     T
C830   N849    1.385   .     S
C831   N854    1.157   .     T
C831   N850    1.385   .     S
C832   C834    1.388   .     A
C832   H848    1.078   .     S
C833   H840    1.078   .     S
C833   C835    1.386   .     A
C834   H839    1.084   .     S
C835   H841    1.084   .     S
C835   C339    1.389   1_556 S
C836   C504    1.459   1_565 S
C836   C621    1.360   1_465 S
C838   O861    1.301   .     A
C838   O967    1.296   1_455 S
H845   C871    1.083   .     S
H847   C924    1.084   1_455 S
N849   Zn864   2.030   .     S
N849   N850    1.292   .     D
N850   Zn863   2.030   .     S
O855   Zn863   1.972   .     S
O855   C865    1.277   .     S
O856   Zn864   1.972   .     S
O856   C930    1.277   1_455 S
O857   Zn864   1.990   .     S
O858   Zn863   1.990   .     S
O859   Zn863   1.956   .     S
O859   C892    1.296   .     S
O860   Zn864   1.956   .     S
O860   C920    1.296   1_455 S
O861   Zn864   1.908   .     S
O862   Zn863   1.908   .     S
C865   C890    1.405   .     S
C865   O911    1.295   .     A
C866   C868    1.452   .     S
C866   O916    1.302   .     A
C866   O968    1.296   .     S
C867   C873    1.385   .     A
C867   C892    1.449   .     S
C867   C871    1.400   .     A
C868   C874    1.389   .     A
C868   C926    1.399   .     S
C869   C878    1.404   .     A
C869   H900    1.084   .     S
C869   C871    1.394   .     A
C870   C879    1.403   .     A
C870   C926    1.392   .     S
C870   H955    1.084   .     S
C872   H898    1.083   .     S
C873   H897    1.079   .     S
C873   C875    1.392   .     A
C874   H896    1.077   .     S
C874   C877    1.393   .     A
C875   C878    1.418   .     A
C875   C880    1.414   .     A
C876   O912    1.295   .     A
C876   C891    1.406   .     S
C876   O964    1.277   .     S
C877   C881    1.416   .     A
C877   C879    1.419   .     A
C878   C402    1.390   1_556 S
C880   C887    1.418   .     A
C880   C395    1.414   1_556 S
C881   C886    1.419   .     A
C882   N905    1.158   .     T
C883   N906    1.158   .     T
C883   C567    1.459   1_565 S
C884   N907    1.157   .     T
C884   N903    1.385   .     S
C885   N908    1.157   .     T
C885   N904    1.385   .     S
C886   C888    1.388   .     A
C886   H902    1.078   .     S
C887   H894    1.078   .     S
C887   C889    1.386   .     A
C888   H893    1.084   .     S
C889   H895    1.084   .     S
C889   C393    1.389   1_556 S
C890   C558    1.459   1_565 S
C890   C513    1.360   1_565 S
C892   O915    1.301   .     A
H899   C925    1.083   .     S
N903   Zn918   2.030   .     S
N903   N904    1.292   .     D
N904   Zn917   2.030   .     S
O909   Zn917   1.972   .     S
O909   C919    1.277   .     S
O910   Zn918   1.972   .     S
O911   Zn918   1.990   .     S
O912   Zn917   1.990   .     S
O913   Zn917   1.956   .     S
O913   C946    1.296   .     S
O914   Zn918   1.956   .     S
O915   Zn918   1.908   .     S
O916   Zn917   1.908   .     S
C919   C944    1.405   .     S
C919   O965    1.295   .     A
C920   C922    1.452   .     S
C920   O970    1.302   .     A
C920   O860    1.296   1_655 S
C921   C927    1.385   .     A
C921   C946    1.449   .     S
C921   C925    1.400   .     A
C922   C928    1.389   .     A
C922   C818    1.399   1_655 S
C923   C932    1.404   .     A
C923   H954    1.084   .     S
C923   C925    1.394   .     A
C924   C933    1.403   .     A
C924   C818    1.392   1_655 S
C924   H847    1.084   1_655 S
C926   H952    1.083   .     S
C927   H951    1.079   .     S
C927   C929    1.392   .     A
C928   H950    1.077   .     S
C928   C931    1.393   .     A
C929   C932    1.418   .     A
C929   C934    1.414   .     A
C930   O966    1.295   .     A
C930   C945    1.406   .     S
C930   O856    1.277   1_655 S
C931   C935    1.416   .     A
C931   C933    1.419   .     A
C932   C456    1.390   1_556 S
C934   C941    1.418   .     A
C934   C449    1.414   1_556 S
C935   C940    1.419   .     A
C936   N959    1.158   .     T
C937   N960    1.158   .     T
C937   C621    1.459   1_565 S
C938   N961    1.157   .     T
C938   N957    1.385   .     S
C939   N962    1.157   .     T
C939   N958    1.385   .     S
C940   C942    1.388   .     A
C940   H956    1.078   .     S
C941   H948    1.078   .     S
C941   C943    1.386   .     A
C942   H947    1.084   .     S
C943   H949    1.084   .     S
C943   C447    1.389   1_556 S
C944   C612    1.459   1_565 S
C944   C567    1.360   1_565 S
C945   C674    1.360   1_655 S
C946   O969    1.301   .     A
H953   C817    1.083   1_655 S
N957   Zn972   2.030   .     S
N957   N958    1.292   .     D
N958   Zn971   2.030   .     S
O963   Zn971   1.972   .     S
O963   C811    1.277   1_655 S
O964   Zn972   1.972   .     S
O965   Zn972   1.990   .     S
O966   Zn971   1.990   .     S
O967   Zn971   1.956   .     S
O967   C838    1.296   1_655 S
O968   Zn972   1.956   .     S
O969   Zn972   1.908   .     S
O970   Zn971   1.908   .     S
