data_str_m2_o10_o18_pcu_sym.132
_audit_creation_date              2020-01-03
_audit_creation_method            'Materials Studio'
_symmetry_space_group_name_H-M    'P1'
_symmetry_Int_Tables_number       1
_symmetry_cell_setting            triclinic
loop_
_symmetry_equiv_pos_as_xyz
  x,y,z
_cell_length_a                    22.2509
_cell_length_b                    26.0517
_cell_length_c                    31.4193
_cell_angle_alpha                 94.1199
_cell_angle_beta                  75.7168
_cell_angle_gamma                 103.0159
loop_
_atom_site_label
_atom_site_type_symbol
_atom_site_fract_x
_atom_site_fract_y
_atom_site_fract_z
_atom_site_U_iso_or_equiv
_atom_site_adp_type
_atom_site_occupancy
C1     C     0.18164   0.26674   0.25139   0.00000  Uiso   1.00
C2     C     0.15161   0.06659   0.24878   0.00000  Uiso   1.00
C3     C     0.08124   0.16903   0.04685   0.00000  Uiso   1.00
C4     C     0.21398   0.25723   0.47917   0.00000  Uiso   1.00
C5     C     0.03899   0.15961   0.01955   0.00000  Uiso   1.00
C6     C     0.25491   0.27132   0.00698   0.00000  Uiso   1.00
C7     C     0.19013   0.32265   0.25213   0.00000  Uiso   1.00
C8     C     0.14300   0.01066   0.24828   0.00000  Uiso   1.00
C9     C     0.12919   0.16638   0.33363   0.00000  Uiso   1.00
C10    C     0.20506   0.17131   0.16685   0.00000  Uiso   1.00
C11    C     0.10812   0.17142   0.38240   0.00000  Uiso   1.00
C12    C     0.22784   0.18561   0.12043   0.00000  Uiso   1.00
C13    C     0.01998   0.15301   0.44667   0.00000  Uiso   1.00
C14    C     0.29029   0.25408   0.07000   0.00000  Uiso   1.00
C15    C     0.04292   0.15543   0.40140   0.00000  Uiso   1.00
C16    C     0.28000   0.22764   0.10878   0.00000  Uiso   1.00
C17    C     0.15131   0.19067   0.41038   0.00000  Uiso   1.00
C18    C     0.18829   0.16690   0.09114   0.00000  Uiso   1.00
C19    C     0.12578   0.19280   0.45701   0.00000  Uiso   1.00
C20    C     0.19199   0.19959   0.05564   0.00000  Uiso   1.00
C21    C     0.06126   0.16877   0.47441   0.00000  Uiso   1.00
C22    C     0.24611   0.24150   0.04403   0.00000  Uiso   1.00
C23    C     0.16329   0.21319   0.48771   0.00000  Uiso   1.00
C24    C     0.14575   0.19183   0.03017   0.00000  Uiso   1.00
Cu25   Cu    0.10737   0.16108   0.24517   0.00000  Uiso   1.00
Cu26   Cu    0.22596   0.17225   0.25484   0.00000  Uiso   1.00
H27    H     0.32270   0.14290   0.03346   0.00000  Uiso   1.00
H28    H     0.29424   0.30498   0.49897   0.00000  Uiso   1.00
H29    H     0.31103   0.24180   0.13076   0.00000  Uiso   1.00
H30    H     0.00949   0.14156   0.38105   0.00000  Uiso   1.00
H31    H     0.30325   0.13702   0.46002   0.00000  Uiso   1.00
H32    H     0.33103   0.28635   0.06143   0.00000  Uiso   1.00
H33    H     0.06198   0.16237   0.08148   0.00000  Uiso   1.00
H34    H     0.22105   0.28200   0.45176   0.00000  Uiso   1.00
H35    H     0.23559   0.01303   0.25576   0.00000  Uiso   1.00
H36    H     0.09751   0.32027   0.24469   0.00000  Uiso   1.00
H37    H     0.00198   0.20575   0.28397   0.00000  Uiso   1.00
H38    H     0.33158   0.12772   0.21580   0.00000  Uiso   1.00
N39    N     0.31506   0.18068   0.26212   0.00000  Uiso   1.00
N40    N     0.01827   0.15265   0.23788   0.00000  Uiso   1.00
O41    O     0.12815   0.23809   0.24686   0.00000  Uiso   1.00
O42    O     0.20518   0.09524   0.25314   0.00000  Uiso   1.00
O43    O     0.22829   0.24753   0.25503   0.00000  Uiso   1.00
O44    O     0.10504   0.08580   0.24498   0.00000  Uiso   1.00
O45    O     0.08851   0.15930   0.30855   0.00000  Uiso   1.00
O46    O     0.24482   0.17403   0.19146   0.00000  Uiso   1.00
O47    O     0.18866   0.16874   0.31671   0.00000  Uiso   1.00
O48    O     0.14468   0.16460   0.18329   0.00000  Uiso   1.00
C49    C     0.15124   0.10961   0.09540   0.00000  Uiso   1.00
C50    C     0.16839   0.07682   0.05324   0.00000  Uiso   1.00
C51    C     0.13735   0.01862   0.06057   0.00000  Uiso   1.00
H52    H     0.15866   0.00166   0.08326   0.00000  Uiso   1.00
H53    H     0.08562   0.01389   0.07478   0.00000  Uiso   1.00
H54    H     0.14457   0.33003   0.02878   0.00000  Uiso   1.00
H55    H     0.15217   0.09050   0.02624   0.00000  Uiso   1.00
H56    H     0.22070   0.08095   0.04273   0.00000  Uiso   1.00
H57    H     0.16293   0.09021   0.12178   0.00000  Uiso   1.00
H58    H     0.09944   0.10657   0.10598   0.00000  Uiso   1.00
C59    C     0.22381   0.20000   0.39240   0.00000  Uiso   1.00
C60    C     0.25307   0.25286   0.36819   0.00000  Uiso   1.00
C61    C     0.32267   0.27286   0.36961   0.00000  Uiso   1.00
H62    H     0.01746   0.24309   0.35484   0.00000  Uiso   1.00
H63    H     0.00928   0.30975   0.35070   0.00000  Uiso   1.00
H64    H     0.32714   0.28125   0.40396   0.00000  Uiso   1.00
H65    H     0.25131   0.24878   0.33330   0.00000  Uiso   1.00
H66    H     0.22596   0.28351   0.38221   0.00000  Uiso   1.00
H67    H     0.24798   0.19720   0.41869   0.00000  Uiso   1.00
H68    H     0.23738   0.16639   0.37157   0.00000  Uiso   1.00
C69    C     0.51497   0.26674   0.25139   0.00000  Uiso   1.00
C70    C     0.48494   0.06659   0.24878   0.00000  Uiso   1.00
C71    C     0.41457   0.16903   0.04685   0.00000  Uiso   1.00
C72    C     0.54731   0.25723   0.47917   0.00000  Uiso   1.00
C73    C     0.37232   0.15961   0.01955   0.00000  Uiso   1.00
C74    C     0.58824   0.27132   0.00698   0.00000  Uiso   1.00
C75    C     0.52346   0.32265   0.25213   0.00000  Uiso   1.00
C76    C     0.47633   0.01066   0.24828   0.00000  Uiso   1.00
C77    C     0.46252   0.16638   0.33363   0.00000  Uiso   1.00
C78    C     0.53840   0.17131   0.16685   0.00000  Uiso   1.00
C79    C     0.44146   0.17142   0.38240   0.00000  Uiso   1.00
C80    C     0.56117   0.18561   0.12043   0.00000  Uiso   1.00
C81    C     0.35332   0.15301   0.44667   0.00000  Uiso   1.00
C82    C     0.62363   0.25408   0.07000   0.00000  Uiso   1.00
C83    C     0.37625   0.15543   0.40140   0.00000  Uiso   1.00
C84    C     0.61333   0.22764   0.10878   0.00000  Uiso   1.00
C85    C     0.48464   0.19067   0.41038   0.00000  Uiso   1.00
C86    C     0.52162   0.16690   0.09114   0.00000  Uiso   1.00
C87    C     0.45912   0.19280   0.45701   0.00000  Uiso   1.00
C88    C     0.52532   0.19959   0.05564   0.00000  Uiso   1.00
C89    C     0.39459   0.16877   0.47441   0.00000  Uiso   1.00
C90    C     0.57945   0.24150   0.04403   0.00000  Uiso   1.00
C91    C     0.49662   0.21319   0.48771   0.00000  Uiso   1.00
C92    C     0.47908   0.19183   0.03017   0.00000  Uiso   1.00
Cu93   Cu    0.44071   0.16108   0.24517   0.00000  Uiso   1.00
Cu94   Cu    0.55929   0.17225   0.25484   0.00000  Uiso   1.00
H95    H     0.65603   0.14290   0.03346   0.00000  Uiso   1.00
H96    H     0.62757   0.30498   0.49897   0.00000  Uiso   1.00
H97    H     0.64436   0.24180   0.13076   0.00000  Uiso   1.00
H98    H     0.34282   0.14156   0.38105   0.00000  Uiso   1.00
H99    H     0.63659   0.13702   0.46002   0.00000  Uiso   1.00
H100   H     0.66436   0.28635   0.06143   0.00000  Uiso   1.00
H101   H     0.39531   0.16237   0.08148   0.00000  Uiso   1.00
H102   H     0.55438   0.28200   0.45176   0.00000  Uiso   1.00
H103   H     0.56892   0.01303   0.25576   0.00000  Uiso   1.00
H104   H     0.43085   0.32027   0.24469   0.00000  Uiso   1.00
H105   H     0.33532   0.20575   0.28397   0.00000  Uiso   1.00
H106   H     0.66491   0.12772   0.21580   0.00000  Uiso   1.00
N107   N     0.64839   0.18068   0.26212   0.00000  Uiso   1.00
N108   N     0.35161   0.15265   0.23788   0.00000  Uiso   1.00
O109   O     0.46148   0.23809   0.24686   0.00000  Uiso   1.00
O110   O     0.53852   0.09524   0.25314   0.00000  Uiso   1.00
O111   O     0.56163   0.24753   0.25503   0.00000  Uiso   1.00
O112   O     0.43837   0.08580   0.24498   0.00000  Uiso   1.00
O113   O     0.42185   0.15930   0.30855   0.00000  Uiso   1.00
O114   O     0.57815   0.17403   0.19146   0.00000  Uiso   1.00
O115   O     0.52199   0.16874   0.31671   0.00000  Uiso   1.00
O116   O     0.47801   0.16460   0.18329   0.00000  Uiso   1.00
C117   C     0.48457   0.10961   0.09540   0.00000  Uiso   1.00
C118   C     0.50173   0.07682   0.05324   0.00000  Uiso   1.00
C119   C     0.47069   0.01862   0.06057   0.00000  Uiso   1.00
H120   H     0.49199   0.00166   0.08326   0.00000  Uiso   1.00
H121   H     0.41896   0.01389   0.07478   0.00000  Uiso   1.00
H122   H     0.47791   0.33003   0.02878   0.00000  Uiso   1.00
H123   H     0.48550   0.09050   0.02624   0.00000  Uiso   1.00
H124   H     0.55403   0.08095   0.04273   0.00000  Uiso   1.00
H125   H     0.49626   0.09021   0.12178   0.00000  Uiso   1.00
H126   H     0.43278   0.10657   0.10598   0.00000  Uiso   1.00
C127   C     0.55714   0.20000   0.39240   0.00000  Uiso   1.00
C128   C     0.58641   0.25286   0.36819   0.00000  Uiso   1.00
C129   C     0.65600   0.27286   0.36961   0.00000  Uiso   1.00
H130   H     0.35080   0.24309   0.35484   0.00000  Uiso   1.00
H131   H     0.34261   0.30975   0.35070   0.00000  Uiso   1.00
H132   H     0.66047   0.28125   0.40396   0.00000  Uiso   1.00
H133   H     0.58464   0.24878   0.33330   0.00000  Uiso   1.00
H134   H     0.55930   0.28351   0.38221   0.00000  Uiso   1.00
H135   H     0.58131   0.19720   0.41869   0.00000  Uiso   1.00
H136   H     0.57071   0.16639   0.37157   0.00000  Uiso   1.00
C137   C     0.84831   0.26674   0.25139   0.00000  Uiso   1.00
C138   C     0.81827   0.06659   0.24878   0.00000  Uiso   1.00
C139   C     0.74791   0.16903   0.04685   0.00000  Uiso   1.00
C140   C     0.88065   0.25723   0.47917   0.00000  Uiso   1.00
C141   C     0.70565   0.15961   0.01955   0.00000  Uiso   1.00
C142   C     0.92157   0.27132   0.00698   0.00000  Uiso   1.00
C143   C     0.85679   0.32265   0.25213   0.00000  Uiso   1.00
C144   C     0.80966   0.01066   0.24828   0.00000  Uiso   1.00
C145   C     0.79585   0.16638   0.33363   0.00000  Uiso   1.00
C146   C     0.87173   0.17131   0.16685   0.00000  Uiso   1.00
C147   C     0.77479   0.17142   0.38240   0.00000  Uiso   1.00
C148   C     0.89451   0.18561   0.12043   0.00000  Uiso   1.00
C149   C     0.68665   0.15301   0.44667   0.00000  Uiso   1.00
C150   C     0.95696   0.25408   0.07000   0.00000  Uiso   1.00
C151   C     0.70958   0.15543   0.40140   0.00000  Uiso   1.00
C152   C     0.94667   0.22764   0.10878   0.00000  Uiso   1.00
C153   C     0.81797   0.19067   0.41038   0.00000  Uiso   1.00
C154   C     0.85496   0.16690   0.09114   0.00000  Uiso   1.00
C155   C     0.79245   0.19280   0.45701   0.00000  Uiso   1.00
C156   C     0.85866   0.19959   0.05564   0.00000  Uiso   1.00
C157   C     0.72793   0.16877   0.47441   0.00000  Uiso   1.00
C158   C     0.91278   0.24150   0.04403   0.00000  Uiso   1.00
C159   C     0.82995   0.21319   0.48771   0.00000  Uiso   1.00
C160   C     0.81241   0.19183   0.03017   0.00000  Uiso   1.00
Cu161  Cu    0.77404   0.16108   0.24517   0.00000  Uiso   1.00
Cu162  Cu    0.89263   0.17225   0.25484   0.00000  Uiso   1.00
H163   H     0.98937   0.14290   0.03346   0.00000  Uiso   1.00
H164   H     0.96090   0.30498   0.49897   0.00000  Uiso   1.00
H165   H     0.97769   0.24180   0.13076   0.00000  Uiso   1.00
H166   H     0.67616   0.14156   0.38105   0.00000  Uiso   1.00
H167   H     0.96992   0.13702   0.46002   0.00000  Uiso   1.00
H168   H     0.99769   0.28635   0.06143   0.00000  Uiso   1.00
H169   H     0.72864   0.16237   0.08148   0.00000  Uiso   1.00
H170   H     0.88772   0.28200   0.45176   0.00000  Uiso   1.00
H171   H     0.90225   0.01303   0.25576   0.00000  Uiso   1.00
H172   H     0.76418   0.32027   0.24469   0.00000  Uiso   1.00
H173   H     0.66865   0.20575   0.28397   0.00000  Uiso   1.00
H174   H     0.99825   0.12772   0.21580   0.00000  Uiso   1.00
N175   N     0.98173   0.18068   0.26212   0.00000  Uiso   1.00
N176   N     0.68494   0.15265   0.23788   0.00000  Uiso   1.00
O177   O     0.79482   0.23809   0.24686   0.00000  Uiso   1.00
O178   O     0.87185   0.09524   0.25314   0.00000  Uiso   1.00
O179   O     0.89496   0.24753   0.25503   0.00000  Uiso   1.00
O180   O     0.77171   0.08580   0.24498   0.00000  Uiso   1.00
O181   O     0.75518   0.15930   0.30855   0.00000  Uiso   1.00
O182   O     0.91149   0.17403   0.19146   0.00000  Uiso   1.00
O183   O     0.85532   0.16874   0.31671   0.00000  Uiso   1.00
O184   O     0.81134   0.16460   0.18329   0.00000  Uiso   1.00
C185   C     0.81791   0.10961   0.09540   0.00000  Uiso   1.00
C186   C     0.83506   0.07682   0.05324   0.00000  Uiso   1.00
C187   C     0.80402   0.01862   0.06057   0.00000  Uiso   1.00
H188   H     0.82533   0.00166   0.08326   0.00000  Uiso   1.00
H189   H     0.75229   0.01389   0.07478   0.00000  Uiso   1.00
H190   H     0.81124   0.33003   0.02878   0.00000  Uiso   1.00
H191   H     0.81884   0.09050   0.02624   0.00000  Uiso   1.00
H192   H     0.88737   0.08095   0.04273   0.00000  Uiso   1.00
H193   H     0.82959   0.09021   0.12178   0.00000  Uiso   1.00
H194   H     0.76611   0.10657   0.10598   0.00000  Uiso   1.00
C195   C     0.89048   0.20000   0.39240   0.00000  Uiso   1.00
C196   C     0.91974   0.25286   0.36819   0.00000  Uiso   1.00
C197   C     0.98933   0.27286   0.36961   0.00000  Uiso   1.00
H198   H     0.68413   0.24309   0.35484   0.00000  Uiso   1.00
H199   H     0.67594   0.30975   0.35070   0.00000  Uiso   1.00
H200   H     0.99381   0.28125   0.40396   0.00000  Uiso   1.00
H201   H     0.91798   0.24878   0.33330   0.00000  Uiso   1.00
H202   H     0.89263   0.28351   0.38221   0.00000  Uiso   1.00
H203   H     0.91464   0.19720   0.41869   0.00000  Uiso   1.00
H204   H     0.90404   0.16639   0.37157   0.00000  Uiso   1.00
C205   C     0.18164   0.60008   0.25139   0.00000  Uiso   1.00
C206   C     0.15161   0.39992   0.24878   0.00000  Uiso   1.00
C207   C     0.08124   0.50236   0.04685   0.00000  Uiso   1.00
C208   C     0.21398   0.59056   0.47917   0.00000  Uiso   1.00
C209   C     0.03899   0.49295   0.01955   0.00000  Uiso   1.00
C210   C     0.25491   0.60466   0.00698   0.00000  Uiso   1.00
C211   C     0.19013   0.65599   0.25213   0.00000  Uiso   1.00
C212   C     0.14300   0.34400   0.24828   0.00000  Uiso   1.00
C213   C     0.12919   0.49972   0.33363   0.00000  Uiso   1.00
C214   C     0.20506   0.50464   0.16685   0.00000  Uiso   1.00
C215   C     0.10812   0.50475   0.38240   0.00000  Uiso   1.00
C216   C     0.22784   0.51894   0.12043   0.00000  Uiso   1.00
C217   C     0.01998   0.48635   0.44667   0.00000  Uiso   1.00
C218   C     0.29029   0.58742   0.07000   0.00000  Uiso   1.00
C219   C     0.04292   0.48876   0.40140   0.00000  Uiso   1.00
C220   C     0.28000   0.56097   0.10878   0.00000  Uiso   1.00
C221   C     0.15131   0.52400   0.41038   0.00000  Uiso   1.00
C222   C     0.18829   0.50024   0.09114   0.00000  Uiso   1.00
C223   C     0.12578   0.52614   0.45701   0.00000  Uiso   1.00
C224   C     0.19199   0.53292   0.05564   0.00000  Uiso   1.00
C225   C     0.06126   0.50211   0.47441   0.00000  Uiso   1.00
C226   C     0.24611   0.57483   0.04403   0.00000  Uiso   1.00
C227   C     0.16329   0.54652   0.48771   0.00000  Uiso   1.00
C228   C     0.14575   0.52517   0.03017   0.00000  Uiso   1.00
Cu229  Cu    0.10737   0.49441   0.24517   0.00000  Uiso   1.00
Cu230  Cu    0.22596   0.50559   0.25484   0.00000  Uiso   1.00
H231   H     0.32270   0.47624   0.03346   0.00000  Uiso   1.00
H232   H     0.29424   0.63831   0.49897   0.00000  Uiso   1.00
H233   H     0.31103   0.57513   0.13076   0.00000  Uiso   1.00
H234   H     0.00949   0.47489   0.38105   0.00000  Uiso   1.00
H235   H     0.30325   0.47035   0.46002   0.00000  Uiso   1.00
H236   H     0.33103   0.61968   0.06143   0.00000  Uiso   1.00
H237   H     0.06198   0.49570   0.08148   0.00000  Uiso   1.00
H238   H     0.22105   0.61533   0.45176   0.00000  Uiso   1.00
H239   H     0.23559   0.34637   0.25576   0.00000  Uiso   1.00
H240   H     0.09751   0.65361   0.24469   0.00000  Uiso   1.00
H241   H     0.00198   0.53908   0.28397   0.00000  Uiso   1.00
H242   H     0.33158   0.46106   0.21580   0.00000  Uiso   1.00
N243   N     0.31506   0.51401   0.26212   0.00000  Uiso   1.00
N244   N     0.01827   0.48599   0.23788   0.00000  Uiso   1.00
O245   O     0.12815   0.57142   0.24686   0.00000  Uiso   1.00
O246   O     0.20518   0.42858   0.25314   0.00000  Uiso   1.00
O247   O     0.22829   0.58086   0.25503   0.00000  Uiso   1.00
O248   O     0.10504   0.41914   0.24498   0.00000  Uiso   1.00
O249   O     0.08851   0.49263   0.30855   0.00000  Uiso   1.00
O250   O     0.24482   0.50737   0.19146   0.00000  Uiso   1.00
O251   O     0.18866   0.50207   0.31671   0.00000  Uiso   1.00
O252   O     0.14468   0.49793   0.18329   0.00000  Uiso   1.00
C253   C     0.15124   0.44294   0.09540   0.00000  Uiso   1.00
C254   C     0.16839   0.41015   0.05324   0.00000  Uiso   1.00
C255   C     0.13735   0.35195   0.06057   0.00000  Uiso   1.00
H256   H     0.15866   0.33499   0.08326   0.00000  Uiso   1.00
H257   H     0.08562   0.34722   0.07478   0.00000  Uiso   1.00
H258   H     0.14457   0.66336   0.02878   0.00000  Uiso   1.00
H259   H     0.15217   0.42383   0.02624   0.00000  Uiso   1.00
H260   H     0.22070   0.41429   0.04273   0.00000  Uiso   1.00
H261   H     0.16293   0.42354   0.12178   0.00000  Uiso   1.00
H262   H     0.09944   0.43990   0.10598   0.00000  Uiso   1.00
C263   C     0.22381   0.53333   0.39240   0.00000  Uiso   1.00
C264   C     0.25307   0.58619   0.36819   0.00000  Uiso   1.00
C265   C     0.32267   0.60619   0.36961   0.00000  Uiso   1.00
H266   H     0.01746   0.57643   0.35484   0.00000  Uiso   1.00
H267   H     0.00928   0.64308   0.35070   0.00000  Uiso   1.00
H268   H     0.32714   0.61458   0.40396   0.00000  Uiso   1.00
H269   H     0.25131   0.58211   0.33330   0.00000  Uiso   1.00
H270   H     0.22596   0.61684   0.38221   0.00000  Uiso   1.00
H271   H     0.24798   0.53054   0.41869   0.00000  Uiso   1.00
H272   H     0.23738   0.49972   0.37157   0.00000  Uiso   1.00
C273   C     0.51497   0.60008   0.25139   0.00000  Uiso   1.00
C274   C     0.48494   0.39992   0.24878   0.00000  Uiso   1.00
C275   C     0.41457   0.50236   0.04685   0.00000  Uiso   1.00
C276   C     0.54731   0.59056   0.47917   0.00000  Uiso   1.00
C277   C     0.37232   0.49295   0.01955   0.00000  Uiso   1.00
C278   C     0.58824   0.60466   0.00698   0.00000  Uiso   1.00
C279   C     0.52346   0.65599   0.25213   0.00000  Uiso   1.00
C280   C     0.47633   0.34400   0.24828   0.00000  Uiso   1.00
C281   C     0.46252   0.49972   0.33363   0.00000  Uiso   1.00
C282   C     0.53840   0.50464   0.16685   0.00000  Uiso   1.00
C283   C     0.44146   0.50475   0.38240   0.00000  Uiso   1.00
C284   C     0.56117   0.51894   0.12043   0.00000  Uiso   1.00
C285   C     0.35332   0.48635   0.44667   0.00000  Uiso   1.00
C286   C     0.62363   0.58742   0.07000   0.00000  Uiso   1.00
C287   C     0.37625   0.48876   0.40140   0.00000  Uiso   1.00
C288   C     0.61333   0.56097   0.10878   0.00000  Uiso   1.00
C289   C     0.48464   0.52400   0.41038   0.00000  Uiso   1.00
C290   C     0.52162   0.50024   0.09114   0.00000  Uiso   1.00
C291   C     0.45912   0.52614   0.45701   0.00000  Uiso   1.00
C292   C     0.52532   0.53292   0.05564   0.00000  Uiso   1.00
C293   C     0.39459   0.50211   0.47441   0.00000  Uiso   1.00
C294   C     0.57945   0.57483   0.04403   0.00000  Uiso   1.00
C295   C     0.49662   0.54652   0.48771   0.00000  Uiso   1.00
C296   C     0.47908   0.52517   0.03017   0.00000  Uiso   1.00
Cu297  Cu    0.44071   0.49441   0.24517   0.00000  Uiso   1.00
Cu298  Cu    0.55929   0.50559   0.25484   0.00000  Uiso   1.00
H299   H     0.65603   0.47624   0.03346   0.00000  Uiso   1.00
H300   H     0.62757   0.63831   0.49897   0.00000  Uiso   1.00
H301   H     0.64436   0.57513   0.13076   0.00000  Uiso   1.00
H302   H     0.34282   0.47489   0.38105   0.00000  Uiso   1.00
H303   H     0.63659   0.47035   0.46002   0.00000  Uiso   1.00
H304   H     0.66436   0.61968   0.06143   0.00000  Uiso   1.00
H305   H     0.39531   0.49570   0.08148   0.00000  Uiso   1.00
H306   H     0.55438   0.61533   0.45176   0.00000  Uiso   1.00
H307   H     0.56892   0.34637   0.25576   0.00000  Uiso   1.00
H308   H     0.43085   0.65361   0.24469   0.00000  Uiso   1.00
H309   H     0.33532   0.53908   0.28397   0.00000  Uiso   1.00
H310   H     0.66491   0.46106   0.21580   0.00000  Uiso   1.00
N311   N     0.64839   0.51401   0.26212   0.00000  Uiso   1.00
N312   N     0.35161   0.48599   0.23788   0.00000  Uiso   1.00
O313   O     0.46148   0.57142   0.24686   0.00000  Uiso   1.00
O314   O     0.53852   0.42858   0.25314   0.00000  Uiso   1.00
O315   O     0.56163   0.58086   0.25503   0.00000  Uiso   1.00
O316   O     0.43837   0.41914   0.24498   0.00000  Uiso   1.00
O317   O     0.42185   0.49263   0.30855   0.00000  Uiso   1.00
O318   O     0.57815   0.50737   0.19146   0.00000  Uiso   1.00
O319   O     0.52199   0.50207   0.31671   0.00000  Uiso   1.00
O320   O     0.47801   0.49793   0.18329   0.00000  Uiso   1.00
C321   C     0.48457   0.44294   0.09540   0.00000  Uiso   1.00
C322   C     0.50173   0.41015   0.05324   0.00000  Uiso   1.00
C323   C     0.47069   0.35195   0.06057   0.00000  Uiso   1.00
H324   H     0.49199   0.33499   0.08326   0.00000  Uiso   1.00
H325   H     0.41896   0.34722   0.07478   0.00000  Uiso   1.00
H326   H     0.47791   0.66336   0.02878   0.00000  Uiso   1.00
H327   H     0.48550   0.42383   0.02624   0.00000  Uiso   1.00
H328   H     0.55403   0.41429   0.04273   0.00000  Uiso   1.00
H329   H     0.49626   0.42354   0.12178   0.00000  Uiso   1.00
H330   H     0.43278   0.43990   0.10598   0.00000  Uiso   1.00
C331   C     0.55714   0.53333   0.39240   0.00000  Uiso   1.00
C332   C     0.58641   0.58619   0.36819   0.00000  Uiso   1.00
C333   C     0.65600   0.60619   0.36961   0.00000  Uiso   1.00
H334   H     0.35080   0.57643   0.35484   0.00000  Uiso   1.00
H335   H     0.34261   0.64308   0.35070   0.00000  Uiso   1.00
H336   H     0.66047   0.61458   0.40396   0.00000  Uiso   1.00
H337   H     0.58464   0.58211   0.33330   0.00000  Uiso   1.00
H338   H     0.55930   0.61684   0.38221   0.00000  Uiso   1.00
H339   H     0.58131   0.53054   0.41869   0.00000  Uiso   1.00
H340   H     0.57071   0.49972   0.37157   0.00000  Uiso   1.00
C341   C     0.84831   0.60008   0.25139   0.00000  Uiso   1.00
C342   C     0.81827   0.39992   0.24878   0.00000  Uiso   1.00
C343   C     0.74791   0.50236   0.04685   0.00000  Uiso   1.00
C344   C     0.88065   0.59056   0.47917   0.00000  Uiso   1.00
C345   C     0.70565   0.49295   0.01955   0.00000  Uiso   1.00
C346   C     0.92157   0.60466   0.00698   0.00000  Uiso   1.00
C347   C     0.85679   0.65599   0.25213   0.00000  Uiso   1.00
C348   C     0.80966   0.34400   0.24828   0.00000  Uiso   1.00
C349   C     0.79585   0.49972   0.33363   0.00000  Uiso   1.00
C350   C     0.87173   0.50464   0.16685   0.00000  Uiso   1.00
C351   C     0.77479   0.50475   0.38240   0.00000  Uiso   1.00
C352   C     0.89451   0.51894   0.12043   0.00000  Uiso   1.00
C353   C     0.68665   0.48635   0.44667   0.00000  Uiso   1.00
C354   C     0.95696   0.58742   0.07000   0.00000  Uiso   1.00
C355   C     0.70958   0.48876   0.40140   0.00000  Uiso   1.00
C356   C     0.94667   0.56097   0.10878   0.00000  Uiso   1.00
C357   C     0.81797   0.52400   0.41038   0.00000  Uiso   1.00
C358   C     0.85496   0.50024   0.09114   0.00000  Uiso   1.00
C359   C     0.79245   0.52614   0.45701   0.00000  Uiso   1.00
C360   C     0.85866   0.53292   0.05564   0.00000  Uiso   1.00
C361   C     0.72793   0.50211   0.47441   0.00000  Uiso   1.00
C362   C     0.91278   0.57483   0.04403   0.00000  Uiso   1.00
C363   C     0.82995   0.54652   0.48771   0.00000  Uiso   1.00
C364   C     0.81241   0.52517   0.03017   0.00000  Uiso   1.00
Cu365  Cu    0.77404   0.49441   0.24517   0.00000  Uiso   1.00
Cu366  Cu    0.89263   0.50559   0.25484   0.00000  Uiso   1.00
H367   H     0.98937   0.47624   0.03346   0.00000  Uiso   1.00
H368   H     0.96090   0.63831   0.49897   0.00000  Uiso   1.00
H369   H     0.97769   0.57513   0.13076   0.00000  Uiso   1.00
H370   H     0.67616   0.47489   0.38105   0.00000  Uiso   1.00
H371   H     0.96992   0.47035   0.46002   0.00000  Uiso   1.00
H372   H     0.99769   0.61968   0.06143   0.00000  Uiso   1.00
H373   H     0.72864   0.49570   0.08148   0.00000  Uiso   1.00
H374   H     0.88772   0.61533   0.45176   0.00000  Uiso   1.00
H375   H     0.90225   0.34637   0.25576   0.00000  Uiso   1.00
H376   H     0.76418   0.65361   0.24469   0.00000  Uiso   1.00
H377   H     0.66865   0.53908   0.28397   0.00000  Uiso   1.00
H378   H     0.99825   0.46106   0.21580   0.00000  Uiso   1.00
N379   N     0.98173   0.51401   0.26212   0.00000  Uiso   1.00
N380   N     0.68494   0.48599   0.23788   0.00000  Uiso   1.00
O381   O     0.79482   0.57142   0.24686   0.00000  Uiso   1.00
O382   O     0.87185   0.42858   0.25314   0.00000  Uiso   1.00
O383   O     0.89496   0.58086   0.25503   0.00000  Uiso   1.00
O384   O     0.77171   0.41914   0.24498   0.00000  Uiso   1.00
O385   O     0.75518   0.49263   0.30855   0.00000  Uiso   1.00
O386   O     0.91149   0.50737   0.19146   0.00000  Uiso   1.00
O387   O     0.85532   0.50207   0.31671   0.00000  Uiso   1.00
O388   O     0.81134   0.49793   0.18329   0.00000  Uiso   1.00
C389   C     0.81791   0.44294   0.09540   0.00000  Uiso   1.00
C390   C     0.83506   0.41015   0.05324   0.00000  Uiso   1.00
C391   C     0.80402   0.35195   0.06057   0.00000  Uiso   1.00
H392   H     0.82533   0.33499   0.08326   0.00000  Uiso   1.00
H393   H     0.75229   0.34722   0.07478   0.00000  Uiso   1.00
H394   H     0.81124   0.66336   0.02878   0.00000  Uiso   1.00
H395   H     0.81884   0.42383   0.02624   0.00000  Uiso   1.00
H396   H     0.88737   0.41429   0.04273   0.00000  Uiso   1.00
H397   H     0.82959   0.42354   0.12178   0.00000  Uiso   1.00
H398   H     0.76611   0.43990   0.10598   0.00000  Uiso   1.00
C399   C     0.89048   0.53333   0.39240   0.00000  Uiso   1.00
C400   C     0.91974   0.58619   0.36819   0.00000  Uiso   1.00
C401   C     0.98933   0.60619   0.36961   0.00000  Uiso   1.00
H402   H     0.68413   0.57643   0.35484   0.00000  Uiso   1.00
H403   H     0.67594   0.64308   0.35070   0.00000  Uiso   1.00
H404   H     0.99381   0.61458   0.40396   0.00000  Uiso   1.00
H405   H     0.91798   0.58211   0.33330   0.00000  Uiso   1.00
H406   H     0.89263   0.61684   0.38221   0.00000  Uiso   1.00
H407   H     0.91464   0.53054   0.41869   0.00000  Uiso   1.00
H408   H     0.90404   0.49972   0.37157   0.00000  Uiso   1.00
C409   C     0.18164   0.93341   0.25139   0.00000  Uiso   1.00
C410   C     0.15161   0.73325   0.24878   0.00000  Uiso   1.00
C411   C     0.08124   0.83570   0.04685   0.00000  Uiso   1.00
C412   C     0.21398   0.92390   0.47917   0.00000  Uiso   1.00
C413   C     0.03899   0.82628   0.01955   0.00000  Uiso   1.00
C414   C     0.25491   0.93799   0.00698   0.00000  Uiso   1.00
C415   C     0.19013   0.98932   0.25213   0.00000  Uiso   1.00
C416   C     0.14300   0.67733   0.24828   0.00000  Uiso   1.00
C417   C     0.12919   0.83305   0.33363   0.00000  Uiso   1.00
C418   C     0.20506   0.83797   0.16685   0.00000  Uiso   1.00
C419   C     0.10812   0.83808   0.38240   0.00000  Uiso   1.00
C420   C     0.22784   0.85228   0.12043   0.00000  Uiso   1.00
C421   C     0.01998   0.81968   0.44667   0.00000  Uiso   1.00
C422   C     0.29029   0.92075   0.07000   0.00000  Uiso   1.00
C423   C     0.04292   0.82209   0.40140   0.00000  Uiso   1.00
C424   C     0.28000   0.89430   0.10878   0.00000  Uiso   1.00
C425   C     0.15131   0.85734   0.41038   0.00000  Uiso   1.00
C426   C     0.18829   0.83357   0.09114   0.00000  Uiso   1.00
C427   C     0.12578   0.85947   0.45701   0.00000  Uiso   1.00
C428   C     0.19199   0.86625   0.05564   0.00000  Uiso   1.00
C429   C     0.06126   0.83544   0.47441   0.00000  Uiso   1.00
C430   C     0.24611   0.90816   0.04403   0.00000  Uiso   1.00
C431   C     0.16329   0.87985   0.48771   0.00000  Uiso   1.00
C432   C     0.14575   0.85850   0.03017   0.00000  Uiso   1.00
Cu433  Cu    0.10737   0.82775   0.24517   0.00000  Uiso   1.00
Cu434  Cu    0.22596   0.83892   0.25484   0.00000  Uiso   1.00
H435   H     0.32270   0.80957   0.03346   0.00000  Uiso   1.00
H436   H     0.29424   0.97165   0.49897   0.00000  Uiso   1.00
H437   H     0.31103   0.90847   0.13076   0.00000  Uiso   1.00
H438   H     0.00949   0.80822   0.38105   0.00000  Uiso   1.00
H439   H     0.30325   0.80369   0.46002   0.00000  Uiso   1.00
H440   H     0.33103   0.95301   0.06143   0.00000  Uiso   1.00
H441   H     0.06198   0.82903   0.08148   0.00000  Uiso   1.00
H442   H     0.22105   0.94866   0.45176   0.00000  Uiso   1.00
H443   H     0.23559   0.67970   0.25576   0.00000  Uiso   1.00
H444   H     0.09751   0.98694   0.24469   0.00000  Uiso   1.00
H445   H     0.00198   0.87242   0.28397   0.00000  Uiso   1.00
H446   H     0.33158   0.79439   0.21580   0.00000  Uiso   1.00
N447   N     0.31506   0.84735   0.26212   0.00000  Uiso   1.00
N448   N     0.01827   0.81932   0.23788   0.00000  Uiso   1.00
O449   O     0.12815   0.90476   0.24686   0.00000  Uiso   1.00
O450   O     0.20518   0.76191   0.25314   0.00000  Uiso   1.00
O451   O     0.22829   0.91420   0.25503   0.00000  Uiso   1.00
O452   O     0.10504   0.75247   0.24498   0.00000  Uiso   1.00
O453   O     0.08851   0.82597   0.30855   0.00000  Uiso   1.00
O454   O     0.24482   0.84070   0.19146   0.00000  Uiso   1.00
O455   O     0.18866   0.83540   0.31671   0.00000  Uiso   1.00
O456   O     0.14468   0.83126   0.18329   0.00000  Uiso   1.00
C457   C     0.15124   0.77628   0.09540   0.00000  Uiso   1.00
C458   C     0.16839   0.74349   0.05324   0.00000  Uiso   1.00
C459   C     0.13735   0.68529   0.06057   0.00000  Uiso   1.00
H460   H     0.15866   0.66832   0.08326   0.00000  Uiso   1.00
H461   H     0.08562   0.68056   0.07478   0.00000  Uiso   1.00
H462   H     0.14457   0.99670   0.02878   0.00000  Uiso   1.00
H463   H     0.15217   0.75716   0.02624   0.00000  Uiso   1.00
H464   H     0.22070   0.74762   0.04273   0.00000  Uiso   1.00
H465   H     0.16293   0.75688   0.12178   0.00000  Uiso   1.00
H466   H     0.09944   0.77323   0.10598   0.00000  Uiso   1.00
C467   C     0.22381   0.86666   0.39240   0.00000  Uiso   1.00
C468   C     0.25307   0.91953   0.36819   0.00000  Uiso   1.00
C469   C     0.32267   0.93952   0.36961   0.00000  Uiso   1.00
H470   H     0.01746   0.90976   0.35484   0.00000  Uiso   1.00
H471   H     0.00928   0.97642   0.35070   0.00000  Uiso   1.00
H472   H     0.32714   0.94792   0.40396   0.00000  Uiso   1.00
H473   H     0.25131   0.91544   0.33330   0.00000  Uiso   1.00
H474   H     0.22596   0.95017   0.38221   0.00000  Uiso   1.00
H475   H     0.24798   0.86387   0.41869   0.00000  Uiso   1.00
H476   H     0.23738   0.83306   0.37157   0.00000  Uiso   1.00
C477   C     0.51497   0.93341   0.25139   0.00000  Uiso   1.00
C478   C     0.48494   0.73325   0.24878   0.00000  Uiso   1.00
C479   C     0.41457   0.83570   0.04685   0.00000  Uiso   1.00
C480   C     0.54731   0.92390   0.47917   0.00000  Uiso   1.00
C481   C     0.37232   0.82628   0.01955   0.00000  Uiso   1.00
C482   C     0.58824   0.93799   0.00698   0.00000  Uiso   1.00
C483   C     0.52346   0.98932   0.25213   0.00000  Uiso   1.00
C484   C     0.47633   0.67733   0.24828   0.00000  Uiso   1.00
C485   C     0.46252   0.83305   0.33363   0.00000  Uiso   1.00
C486   C     0.53840   0.83797   0.16685   0.00000  Uiso   1.00
C487   C     0.44146   0.83808   0.38240   0.00000  Uiso   1.00
C488   C     0.56117   0.85228   0.12043   0.00000  Uiso   1.00
C489   C     0.35332   0.81968   0.44667   0.00000  Uiso   1.00
C490   C     0.62363   0.92075   0.07000   0.00000  Uiso   1.00
C491   C     0.37625   0.82209   0.40140   0.00000  Uiso   1.00
C492   C     0.61333   0.89430   0.10878   0.00000  Uiso   1.00
C493   C     0.48464   0.85734   0.41038   0.00000  Uiso   1.00
C494   C     0.52162   0.83357   0.09114   0.00000  Uiso   1.00
C495   C     0.45912   0.85947   0.45701   0.00000  Uiso   1.00
C496   C     0.52532   0.86625   0.05564   0.00000  Uiso   1.00
C497   C     0.39459   0.83544   0.47441   0.00000  Uiso   1.00
C498   C     0.57945   0.90816   0.04403   0.00000  Uiso   1.00
C499   C     0.49662   0.87985   0.48771   0.00000  Uiso   1.00
C500   C     0.47908   0.85850   0.03017   0.00000  Uiso   1.00
Cu501  Cu    0.44071   0.82775   0.24517   0.00000  Uiso   1.00
Cu502  Cu    0.55929   0.83892   0.25484   0.00000  Uiso   1.00
H503   H     0.65603   0.80957   0.03346   0.00000  Uiso   1.00
H504   H     0.62757   0.97165   0.49897   0.00000  Uiso   1.00
H505   H     0.64436   0.90847   0.13076   0.00000  Uiso   1.00
H506   H     0.34282   0.80822   0.38105   0.00000  Uiso   1.00
H507   H     0.63659   0.80369   0.46002   0.00000  Uiso   1.00
H508   H     0.66436   0.95301   0.06143   0.00000  Uiso   1.00
H509   H     0.39531   0.82903   0.08148   0.00000  Uiso   1.00
H510   H     0.55438   0.94866   0.45176   0.00000  Uiso   1.00
H511   H     0.56892   0.67970   0.25576   0.00000  Uiso   1.00
H512   H     0.43085   0.98694   0.24469   0.00000  Uiso   1.00
H513   H     0.33532   0.87242   0.28397   0.00000  Uiso   1.00
H514   H     0.66491   0.79439   0.21580   0.00000  Uiso   1.00
N515   N     0.64839   0.84735   0.26212   0.00000  Uiso   1.00
N516   N     0.35161   0.81932   0.23788   0.00000  Uiso   1.00
O517   O     0.46148   0.90476   0.24686   0.00000  Uiso   1.00
O518   O     0.53852   0.76191   0.25314   0.00000  Uiso   1.00
O519   O     0.56163   0.91420   0.25503   0.00000  Uiso   1.00
O520   O     0.43837   0.75247   0.24498   0.00000  Uiso   1.00
O521   O     0.42185   0.82597   0.30855   0.00000  Uiso   1.00
O522   O     0.57815   0.84070   0.19146   0.00000  Uiso   1.00
O523   O     0.52199   0.83540   0.31671   0.00000  Uiso   1.00
O524   O     0.47801   0.83126   0.18329   0.00000  Uiso   1.00
C525   C     0.48457   0.77628   0.09540   0.00000  Uiso   1.00
C526   C     0.50173   0.74349   0.05324   0.00000  Uiso   1.00
C527   C     0.47069   0.68529   0.06057   0.00000  Uiso   1.00
H528   H     0.49199   0.66832   0.08326   0.00000  Uiso   1.00
H529   H     0.41896   0.68056   0.07478   0.00000  Uiso   1.00
H530   H     0.47791   0.99670   0.02878   0.00000  Uiso   1.00
H531   H     0.48550   0.75716   0.02624   0.00000  Uiso   1.00
H532   H     0.55403   0.74762   0.04273   0.00000  Uiso   1.00
H533   H     0.49626   0.75688   0.12178   0.00000  Uiso   1.00
H534   H     0.43278   0.77323   0.10598   0.00000  Uiso   1.00
C535   C     0.55714   0.86666   0.39240   0.00000  Uiso   1.00
C536   C     0.58641   0.91953   0.36819   0.00000  Uiso   1.00
C537   C     0.65600   0.93952   0.36961   0.00000  Uiso   1.00
H538   H     0.35080   0.90976   0.35484   0.00000  Uiso   1.00
H539   H     0.34261   0.97642   0.35070   0.00000  Uiso   1.00
H540   H     0.66047   0.94792   0.40396   0.00000  Uiso   1.00
H541   H     0.58464   0.91544   0.33330   0.00000  Uiso   1.00
H542   H     0.55930   0.95017   0.38221   0.00000  Uiso   1.00
H543   H     0.58131   0.86387   0.41869   0.00000  Uiso   1.00
H544   H     0.57071   0.83306   0.37157   0.00000  Uiso   1.00
C545   C     0.84831   0.93341   0.25139   0.00000  Uiso   1.00
C546   C     0.81827   0.73325   0.24878   0.00000  Uiso   1.00
C547   C     0.74791   0.83570   0.04685   0.00000  Uiso   1.00
C548   C     0.88065   0.92390   0.47917   0.00000  Uiso   1.00
C549   C     0.70565   0.82628   0.01955   0.00000  Uiso   1.00
C550   C     0.92157   0.93799   0.00698   0.00000  Uiso   1.00
C551   C     0.85679   0.98932   0.25213   0.00000  Uiso   1.00
C552   C     0.80966   0.67733   0.24828   0.00000  Uiso   1.00
C553   C     0.79585   0.83305   0.33363   0.00000  Uiso   1.00
C554   C     0.87173   0.83797   0.16685   0.00000  Uiso   1.00
C555   C     0.77479   0.83808   0.38240   0.00000  Uiso   1.00
C556   C     0.89451   0.85228   0.12043   0.00000  Uiso   1.00
C557   C     0.68665   0.81968   0.44667   0.00000  Uiso   1.00
C558   C     0.95696   0.92075   0.07000   0.00000  Uiso   1.00
C559   C     0.70958   0.82209   0.40140   0.00000  Uiso   1.00
C560   C     0.94667   0.89430   0.10878   0.00000  Uiso   1.00
C561   C     0.81797   0.85734   0.41038   0.00000  Uiso   1.00
C562   C     0.85496   0.83357   0.09114   0.00000  Uiso   1.00
C563   C     0.79245   0.85947   0.45701   0.00000  Uiso   1.00
C564   C     0.85866   0.86625   0.05564   0.00000  Uiso   1.00
C565   C     0.72793   0.83544   0.47441   0.00000  Uiso   1.00
C566   C     0.91278   0.90816   0.04403   0.00000  Uiso   1.00
C567   C     0.82995   0.87985   0.48771   0.00000  Uiso   1.00
C568   C     0.81241   0.85850   0.03017   0.00000  Uiso   1.00
Cu569  Cu    0.77404   0.82775   0.24517   0.00000  Uiso   1.00
Cu570  Cu    0.89263   0.83892   0.25484   0.00000  Uiso   1.00
H571   H     0.98937   0.80957   0.03346   0.00000  Uiso   1.00
H572   H     0.96090   0.97165   0.49897   0.00000  Uiso   1.00
H573   H     0.97769   0.90847   0.13076   0.00000  Uiso   1.00
H574   H     0.67616   0.80822   0.38105   0.00000  Uiso   1.00
H575   H     0.96992   0.80369   0.46002   0.00000  Uiso   1.00
H576   H     0.99769   0.95301   0.06143   0.00000  Uiso   1.00
H577   H     0.72864   0.82903   0.08148   0.00000  Uiso   1.00
H578   H     0.88772   0.94866   0.45176   0.00000  Uiso   1.00
H579   H     0.90225   0.67970   0.25576   0.00000  Uiso   1.00
H580   H     0.76418   0.98694   0.24469   0.00000  Uiso   1.00
H581   H     0.66865   0.87242   0.28397   0.00000  Uiso   1.00
H582   H     0.99825   0.79439   0.21580   0.00000  Uiso   1.00
N583   N     0.98173   0.84735   0.26212   0.00000  Uiso   1.00
N584   N     0.68494   0.81932   0.23788   0.00000  Uiso   1.00
O585   O     0.79482   0.90476   0.24686   0.00000  Uiso   1.00
O586   O     0.87185   0.76191   0.25314   0.00000  Uiso   1.00
O587   O     0.89496   0.91420   0.25503   0.00000  Uiso   1.00
O588   O     0.77171   0.75247   0.24498   0.00000  Uiso   1.00
O589   O     0.75518   0.82597   0.30855   0.00000  Uiso   1.00
O590   O     0.91149   0.84070   0.19146   0.00000  Uiso   1.00
O591   O     0.85532   0.83540   0.31671   0.00000  Uiso   1.00
O592   O     0.81134   0.83126   0.18329   0.00000  Uiso   1.00
C593   C     0.81791   0.77628   0.09540   0.00000  Uiso   1.00
C594   C     0.83506   0.74349   0.05324   0.00000  Uiso   1.00
C595   C     0.80402   0.68529   0.06057   0.00000  Uiso   1.00
H596   H     0.82533   0.66832   0.08326   0.00000  Uiso   1.00
H597   H     0.75229   0.68056   0.07478   0.00000  Uiso   1.00
H598   H     0.81124   0.99670   0.02878   0.00000  Uiso   1.00
H599   H     0.81884   0.75716   0.02624   0.00000  Uiso   1.00
H600   H     0.88737   0.74762   0.04273   0.00000  Uiso   1.00
H601   H     0.82959   0.75688   0.12178   0.00000  Uiso   1.00
H602   H     0.76611   0.77323   0.10598   0.00000  Uiso   1.00
C603   C     0.89048   0.86666   0.39240   0.00000  Uiso   1.00
C604   C     0.91974   0.91953   0.36819   0.00000  Uiso   1.00
C605   C     0.98933   0.93952   0.36961   0.00000  Uiso   1.00
H606   H     0.68413   0.90976   0.35484   0.00000  Uiso   1.00
H607   H     0.67594   0.97642   0.35070   0.00000  Uiso   1.00
H608   H     0.99381   0.94792   0.40396   0.00000  Uiso   1.00
H609   H     0.91798   0.91544   0.33330   0.00000  Uiso   1.00
H610   H     0.89263   0.95017   0.38221   0.00000  Uiso   1.00
H611   H     0.91464   0.86387   0.41869   0.00000  Uiso   1.00
H612   H     0.90404   0.83306   0.37157   0.00000  Uiso   1.00
C613   C     0.18164   0.26674   0.75139   0.00000  Uiso   1.00
C614   C     0.15161   0.06659   0.74878   0.00000  Uiso   1.00
C615   C     0.08124   0.16903   0.54685   0.00000  Uiso   1.00
C616   C     0.21398   0.25723   0.97917   0.00000  Uiso   1.00
C617   C     0.03899   0.15961   0.51955   0.00000  Uiso   1.00
C618   C     0.25491   0.27132   0.50698   0.00000  Uiso   1.00
C619   C     0.19013   0.32265   0.75213   0.00000  Uiso   1.00
C620   C     0.14300   0.01066   0.74828   0.00000  Uiso   1.00
C621   C     0.12919   0.16638   0.83363   0.00000  Uiso   1.00
C622   C     0.20506   0.17131   0.66685   0.00000  Uiso   1.00
C623   C     0.10812   0.17142   0.88240   0.00000  Uiso   1.00
C624   C     0.22784   0.18561   0.62043   0.00000  Uiso   1.00
C625   C     0.01998   0.15301   0.94667   0.00000  Uiso   1.00
C626   C     0.29029   0.25408   0.57000   0.00000  Uiso   1.00
C627   C     0.04292   0.15543   0.90140   0.00000  Uiso   1.00
C628   C     0.28000   0.22764   0.60878   0.00000  Uiso   1.00
C629   C     0.15131   0.19067   0.91038   0.00000  Uiso   1.00
C630   C     0.18829   0.16690   0.59114   0.00000  Uiso   1.00
C631   C     0.12578   0.19280   0.95701   0.00000  Uiso   1.00
C632   C     0.19199   0.19959   0.55564   0.00000  Uiso   1.00
C633   C     0.06126   0.16877   0.97441   0.00000  Uiso   1.00
C634   C     0.24611   0.24150   0.54403   0.00000  Uiso   1.00
C635   C     0.16329   0.21319   0.98771   0.00000  Uiso   1.00
C636   C     0.14575   0.19183   0.53017   0.00000  Uiso   1.00
Cu637  Cu    0.10737   0.16108   0.74517   0.00000  Uiso   1.00
Cu638  Cu    0.22596   0.17225   0.75484   0.00000  Uiso   1.00
H639   H     0.32270   0.14290   0.53346   0.00000  Uiso   1.00
H640   H     0.29424   0.30498   0.99897   0.00000  Uiso   1.00
H641   H     0.31103   0.24180   0.63076   0.00000  Uiso   1.00
H642   H     0.00949   0.14156   0.88105   0.00000  Uiso   1.00
H643   H     0.30325   0.13702   0.96002   0.00000  Uiso   1.00
H644   H     0.33103   0.28635   0.56143   0.00000  Uiso   1.00
H645   H     0.06198   0.16237   0.58148   0.00000  Uiso   1.00
H646   H     0.22105   0.28200   0.95176   0.00000  Uiso   1.00
H647   H     0.23559   0.01303   0.75576   0.00000  Uiso   1.00
H648   H     0.09751   0.32027   0.74469   0.00000  Uiso   1.00
H649   H     0.00198   0.20575   0.78397   0.00000  Uiso   1.00
H650   H     0.33158   0.12772   0.71580   0.00000  Uiso   1.00
N651   N     0.31506   0.18068   0.76212   0.00000  Uiso   1.00
N652   N     0.01827   0.15265   0.73788   0.00000  Uiso   1.00
O653   O     0.12815   0.23809   0.74686   0.00000  Uiso   1.00
O654   O     0.20518   0.09524   0.75314   0.00000  Uiso   1.00
O655   O     0.22829   0.24753   0.75503   0.00000  Uiso   1.00
O656   O     0.10504   0.08580   0.74498   0.00000  Uiso   1.00
O657   O     0.08851   0.15930   0.80855   0.00000  Uiso   1.00
O658   O     0.24482   0.17403   0.69146   0.00000  Uiso   1.00
O659   O     0.18866   0.16874   0.81671   0.00000  Uiso   1.00
O660   O     0.14468   0.16460   0.68329   0.00000  Uiso   1.00
C661   C     0.15124   0.10961   0.59540   0.00000  Uiso   1.00
C662   C     0.16839   0.07682   0.55324   0.00000  Uiso   1.00
C663   C     0.13735   0.01862   0.56057   0.00000  Uiso   1.00
H664   H     0.15866   0.00166   0.58326   0.00000  Uiso   1.00
H665   H     0.08562   0.01389   0.57478   0.00000  Uiso   1.00
H666   H     0.14457   0.33003   0.52878   0.00000  Uiso   1.00
H667   H     0.15217   0.09050   0.52624   0.00000  Uiso   1.00
H668   H     0.22070   0.08095   0.54273   0.00000  Uiso   1.00
H669   H     0.16293   0.09021   0.62178   0.00000  Uiso   1.00
H670   H     0.09944   0.10657   0.60598   0.00000  Uiso   1.00
C671   C     0.22381   0.20000   0.89240   0.00000  Uiso   1.00
C672   C     0.25307   0.25286   0.86819   0.00000  Uiso   1.00
C673   C     0.32267   0.27286   0.86961   0.00000  Uiso   1.00
H674   H     0.01746   0.24309   0.85484   0.00000  Uiso   1.00
H675   H     0.00928   0.30975   0.85070   0.00000  Uiso   1.00
H676   H     0.32714   0.28125   0.90396   0.00000  Uiso   1.00
H677   H     0.25131   0.24878   0.83330   0.00000  Uiso   1.00
H678   H     0.22596   0.28351   0.88221   0.00000  Uiso   1.00
H679   H     0.24798   0.19720   0.91869   0.00000  Uiso   1.00
H680   H     0.23738   0.16639   0.87157   0.00000  Uiso   1.00
C681   C     0.51497   0.26674   0.75139   0.00000  Uiso   1.00
C682   C     0.48494   0.06659   0.74878   0.00000  Uiso   1.00
C683   C     0.41457   0.16903   0.54685   0.00000  Uiso   1.00
C684   C     0.54731   0.25723   0.97917   0.00000  Uiso   1.00
C685   C     0.37232   0.15961   0.51955   0.00000  Uiso   1.00
C686   C     0.58824   0.27132   0.50698   0.00000  Uiso   1.00
C687   C     0.52346   0.32265   0.75213   0.00000  Uiso   1.00
C688   C     0.47633   0.01066   0.74828   0.00000  Uiso   1.00
C689   C     0.46252   0.16638   0.83363   0.00000  Uiso   1.00
C690   C     0.53840   0.17131   0.66685   0.00000  Uiso   1.00
C691   C     0.44146   0.17142   0.88240   0.00000  Uiso   1.00
C692   C     0.56117   0.18561   0.62043   0.00000  Uiso   1.00
C693   C     0.35332   0.15301   0.94667   0.00000  Uiso   1.00
C694   C     0.62363   0.25408   0.57000   0.00000  Uiso   1.00
C695   C     0.37625   0.15543   0.90140   0.00000  Uiso   1.00
C696   C     0.61333   0.22764   0.60878   0.00000  Uiso   1.00
C697   C     0.48464   0.19067   0.91038   0.00000  Uiso   1.00
C698   C     0.52162   0.16690   0.59114   0.00000  Uiso   1.00
C699   C     0.45912   0.19280   0.95701   0.00000  Uiso   1.00
C700   C     0.52532   0.19959   0.55564   0.00000  Uiso   1.00
C701   C     0.39459   0.16877   0.97441   0.00000  Uiso   1.00
C702   C     0.57945   0.24150   0.54403   0.00000  Uiso   1.00
C703   C     0.49662   0.21319   0.98771   0.00000  Uiso   1.00
C704   C     0.47908   0.19183   0.53017   0.00000  Uiso   1.00
Cu705  Cu    0.44071   0.16108   0.74517   0.00000  Uiso   1.00
Cu706  Cu    0.55929   0.17225   0.75484   0.00000  Uiso   1.00
H707   H     0.65603   0.14290   0.53346   0.00000  Uiso   1.00
H708   H     0.62757   0.30498   0.99897   0.00000  Uiso   1.00
H709   H     0.64436   0.24180   0.63076   0.00000  Uiso   1.00
H710   H     0.34282   0.14156   0.88105   0.00000  Uiso   1.00
H711   H     0.63659   0.13702   0.96002   0.00000  Uiso   1.00
H712   H     0.66436   0.28635   0.56143   0.00000  Uiso   1.00
H713   H     0.39531   0.16237   0.58148   0.00000  Uiso   1.00
H714   H     0.55438   0.28200   0.95176   0.00000  Uiso   1.00
H715   H     0.56892   0.01303   0.75576   0.00000  Uiso   1.00
H716   H     0.43085   0.32027   0.74469   0.00000  Uiso   1.00
H717   H     0.33532   0.20575   0.78397   0.00000  Uiso   1.00
H718   H     0.66491   0.12772   0.71580   0.00000  Uiso   1.00
N719   N     0.64839   0.18068   0.76212   0.00000  Uiso   1.00
N720   N     0.35161   0.15265   0.73788   0.00000  Uiso   1.00
O721   O     0.46148   0.23809   0.74686   0.00000  Uiso   1.00
O722   O     0.53852   0.09524   0.75314   0.00000  Uiso   1.00
O723   O     0.56163   0.24753   0.75503   0.00000  Uiso   1.00
O724   O     0.43837   0.08580   0.74498   0.00000  Uiso   1.00
O725   O     0.42185   0.15930   0.80855   0.00000  Uiso   1.00
O726   O     0.57815   0.17403   0.69146   0.00000  Uiso   1.00
O727   O     0.52199   0.16874   0.81671   0.00000  Uiso   1.00
O728   O     0.47801   0.16460   0.68329   0.00000  Uiso   1.00
C729   C     0.48457   0.10961   0.59540   0.00000  Uiso   1.00
C730   C     0.50173   0.07682   0.55324   0.00000  Uiso   1.00
C731   C     0.47069   0.01862   0.56057   0.00000  Uiso   1.00
H732   H     0.49199   0.00166   0.58326   0.00000  Uiso   1.00
H733   H     0.41896   0.01389   0.57478   0.00000  Uiso   1.00
H734   H     0.47791   0.33003   0.52878   0.00000  Uiso   1.00
H735   H     0.48550   0.09050   0.52624   0.00000  Uiso   1.00
H736   H     0.55403   0.08095   0.54273   0.00000  Uiso   1.00
H737   H     0.49626   0.09021   0.62178   0.00000  Uiso   1.00
H738   H     0.43278   0.10657   0.60598   0.00000  Uiso   1.00
C739   C     0.55714   0.20000   0.89240   0.00000  Uiso   1.00
C740   C     0.58641   0.25286   0.86819   0.00000  Uiso   1.00
C741   C     0.65600   0.27286   0.86961   0.00000  Uiso   1.00
H742   H     0.35080   0.24309   0.85484   0.00000  Uiso   1.00
H743   H     0.34261   0.30975   0.85070   0.00000  Uiso   1.00
H744   H     0.66047   0.28125   0.90396   0.00000  Uiso   1.00
H745   H     0.58464   0.24878   0.83330   0.00000  Uiso   1.00
H746   H     0.55930   0.28351   0.88221   0.00000  Uiso   1.00
H747   H     0.58131   0.19720   0.91869   0.00000  Uiso   1.00
H748   H     0.57071   0.16639   0.87157   0.00000  Uiso   1.00
C749   C     0.84831   0.26674   0.75139   0.00000  Uiso   1.00
C750   C     0.81827   0.06659   0.74878   0.00000  Uiso   1.00
C751   C     0.74791   0.16903   0.54685   0.00000  Uiso   1.00
C752   C     0.88065   0.25723   0.97917   0.00000  Uiso   1.00
C753   C     0.70565   0.15961   0.51955   0.00000  Uiso   1.00
C754   C     0.92157   0.27132   0.50698   0.00000  Uiso   1.00
C755   C     0.85679   0.32265   0.75213   0.00000  Uiso   1.00
C756   C     0.80966   0.01066   0.74828   0.00000  Uiso   1.00
C757   C     0.79585   0.16638   0.83363   0.00000  Uiso   1.00
C758   C     0.87173   0.17131   0.66685   0.00000  Uiso   1.00
C759   C     0.77479   0.17142   0.88240   0.00000  Uiso   1.00
C760   C     0.89451   0.18561   0.62043   0.00000  Uiso   1.00
C761   C     0.68665   0.15301   0.94667   0.00000  Uiso   1.00
C762   C     0.95696   0.25408   0.57000   0.00000  Uiso   1.00
C763   C     0.70958   0.15543   0.90140   0.00000  Uiso   1.00
C764   C     0.94667   0.22764   0.60878   0.00000  Uiso   1.00
C765   C     0.81797   0.19067   0.91038   0.00000  Uiso   1.00
C766   C     0.85496   0.16690   0.59114   0.00000  Uiso   1.00
C767   C     0.79245   0.19280   0.95701   0.00000  Uiso   1.00
C768   C     0.85866   0.19959   0.55564   0.00000  Uiso   1.00
C769   C     0.72793   0.16877   0.97441   0.00000  Uiso   1.00
C770   C     0.91278   0.24150   0.54403   0.00000  Uiso   1.00
C771   C     0.82995   0.21319   0.98771   0.00000  Uiso   1.00
C772   C     0.81241   0.19183   0.53017   0.00000  Uiso   1.00
Cu773  Cu    0.77404   0.16108   0.74517   0.00000  Uiso   1.00
Cu774  Cu    0.89263   0.17225   0.75484   0.00000  Uiso   1.00
H775   H     0.98937   0.14290   0.53346   0.00000  Uiso   1.00
H776   H     0.96090   0.30498   0.99897   0.00000  Uiso   1.00
H777   H     0.97769   0.24180   0.63076   0.00000  Uiso   1.00
H778   H     0.67616   0.14156   0.88105   0.00000  Uiso   1.00
H779   H     0.96992   0.13702   0.96002   0.00000  Uiso   1.00
H780   H     0.99769   0.28635   0.56143   0.00000  Uiso   1.00
H781   H     0.72864   0.16237   0.58148   0.00000  Uiso   1.00
H782   H     0.88772   0.28200   0.95176   0.00000  Uiso   1.00
H783   H     0.90225   0.01303   0.75576   0.00000  Uiso   1.00
H784   H     0.76418   0.32027   0.74469   0.00000  Uiso   1.00
H785   H     0.66865   0.20575   0.78397   0.00000  Uiso   1.00
H786   H     0.99825   0.12772   0.71580   0.00000  Uiso   1.00
N787   N     0.98173   0.18068   0.76212   0.00000  Uiso   1.00
N788   N     0.68494   0.15265   0.73788   0.00000  Uiso   1.00
O789   O     0.79482   0.23809   0.74686   0.00000  Uiso   1.00
O790   O     0.87185   0.09524   0.75314   0.00000  Uiso   1.00
O791   O     0.89496   0.24753   0.75503   0.00000  Uiso   1.00
O792   O     0.77171   0.08580   0.74498   0.00000  Uiso   1.00
O793   O     0.75518   0.15930   0.80855   0.00000  Uiso   1.00
O794   O     0.91149   0.17403   0.69146   0.00000  Uiso   1.00
O795   O     0.85532   0.16874   0.81671   0.00000  Uiso   1.00
O796   O     0.81134   0.16460   0.68329   0.00000  Uiso   1.00
C797   C     0.81791   0.10961   0.59540   0.00000  Uiso   1.00
C798   C     0.83506   0.07682   0.55324   0.00000  Uiso   1.00
C799   C     0.80402   0.01862   0.56057   0.00000  Uiso   1.00
H800   H     0.82533   0.00166   0.58326   0.00000  Uiso   1.00
H801   H     0.75229   0.01389   0.57478   0.00000  Uiso   1.00
H802   H     0.81124   0.33003   0.52878   0.00000  Uiso   1.00
H803   H     0.81884   0.09050   0.52624   0.00000  Uiso   1.00
H804   H     0.88737   0.08095   0.54273   0.00000  Uiso   1.00
H805   H     0.82959   0.09021   0.62178   0.00000  Uiso   1.00
H806   H     0.76611   0.10657   0.60598   0.00000  Uiso   1.00
C807   C     0.89048   0.20000   0.89240   0.00000  Uiso   1.00
C808   C     0.91974   0.25286   0.86819   0.00000  Uiso   1.00
C809   C     0.98933   0.27286   0.86961   0.00000  Uiso   1.00
H810   H     0.68413   0.24309   0.85484   0.00000  Uiso   1.00
H811   H     0.67594   0.30975   0.85070   0.00000  Uiso   1.00
H812   H     0.99381   0.28125   0.90396   0.00000  Uiso   1.00
H813   H     0.91798   0.24878   0.83330   0.00000  Uiso   1.00
H814   H     0.89263   0.28351   0.88221   0.00000  Uiso   1.00
H815   H     0.91464   0.19720   0.91869   0.00000  Uiso   1.00
H816   H     0.90404   0.16639   0.87157   0.00000  Uiso   1.00
C817   C     0.18164   0.60008   0.75139   0.00000  Uiso   1.00
C818   C     0.15161   0.39992   0.74878   0.00000  Uiso   1.00
C819   C     0.08124   0.50236   0.54685   0.00000  Uiso   1.00
C820   C     0.21398   0.59056   0.97917   0.00000  Uiso   1.00
C821   C     0.03899   0.49295   0.51955   0.00000  Uiso   1.00
C822   C     0.25491   0.60466   0.50698   0.00000  Uiso   1.00
C823   C     0.19013   0.65599   0.75213   0.00000  Uiso   1.00
C824   C     0.14300   0.34400   0.74828   0.00000  Uiso   1.00
C825   C     0.12919   0.49972   0.83363   0.00000  Uiso   1.00
C826   C     0.20506   0.50464   0.66685   0.00000  Uiso   1.00
C827   C     0.10812   0.50475   0.88240   0.00000  Uiso   1.00
C828   C     0.22784   0.51894   0.62043   0.00000  Uiso   1.00
C829   C     0.01998   0.48635   0.94667   0.00000  Uiso   1.00
C830   C     0.29029   0.58742   0.57000   0.00000  Uiso   1.00
C831   C     0.04292   0.48876   0.90140   0.00000  Uiso   1.00
C832   C     0.28000   0.56097   0.60878   0.00000  Uiso   1.00
C833   C     0.15131   0.52400   0.91038   0.00000  Uiso   1.00
C834   C     0.18829   0.50024   0.59114   0.00000  Uiso   1.00
C835   C     0.12578   0.52614   0.95701   0.00000  Uiso   1.00
C836   C     0.19199   0.53292   0.55564   0.00000  Uiso   1.00
C837   C     0.06126   0.50211   0.97441   0.00000  Uiso   1.00
C838   C     0.24611   0.57483   0.54403   0.00000  Uiso   1.00
C839   C     0.16329   0.54652   0.98771   0.00000  Uiso   1.00
C840   C     0.14575   0.52517   0.53017   0.00000  Uiso   1.00
Cu841  Cu    0.10737   0.49441   0.74517   0.00000  Uiso   1.00
Cu842  Cu    0.22596   0.50559   0.75484   0.00000  Uiso   1.00
H843   H     0.32270   0.47624   0.53346   0.00000  Uiso   1.00
H844   H     0.29424   0.63831   0.99897   0.00000  Uiso   1.00
H845   H     0.31103   0.57513   0.63076   0.00000  Uiso   1.00
H846   H     0.00949   0.47489   0.88105   0.00000  Uiso   1.00
H847   H     0.30325   0.47035   0.96002   0.00000  Uiso   1.00
H848   H     0.33103   0.61968   0.56143   0.00000  Uiso   1.00
H849   H     0.06198   0.49570   0.58148   0.00000  Uiso   1.00
H850   H     0.22105   0.61533   0.95176   0.00000  Uiso   1.00
H851   H     0.23559   0.34637   0.75576   0.00000  Uiso   1.00
H852   H     0.09751   0.65361   0.74469   0.00000  Uiso   1.00
H853   H     0.00198   0.53908   0.78397   0.00000  Uiso   1.00
H854   H     0.33158   0.46106   0.71580   0.00000  Uiso   1.00
N855   N     0.31506   0.51401   0.76212   0.00000  Uiso   1.00
N856   N     0.01827   0.48599   0.73788   0.00000  Uiso   1.00
O857   O     0.12815   0.57142   0.74686   0.00000  Uiso   1.00
O858   O     0.20518   0.42858   0.75314   0.00000  Uiso   1.00
O859   O     0.22829   0.58086   0.75503   0.00000  Uiso   1.00
O860   O     0.10504   0.41914   0.74498   0.00000  Uiso   1.00
O861   O     0.08851   0.49263   0.80855   0.00000  Uiso   1.00
O862   O     0.24482   0.50737   0.69146   0.00000  Uiso   1.00
O863   O     0.18866   0.50207   0.81671   0.00000  Uiso   1.00
O864   O     0.14468   0.49793   0.68329   0.00000  Uiso   1.00
C865   C     0.15124   0.44294   0.59540   0.00000  Uiso   1.00
C866   C     0.16839   0.41015   0.55324   0.00000  Uiso   1.00
C867   C     0.13735   0.35195   0.56057   0.00000  Uiso   1.00
H868   H     0.15866   0.33499   0.58326   0.00000  Uiso   1.00
H869   H     0.08562   0.34722   0.57478   0.00000  Uiso   1.00
H870   H     0.14457   0.66336   0.52878   0.00000  Uiso   1.00
H871   H     0.15217   0.42383   0.52624   0.00000  Uiso   1.00
H872   H     0.22070   0.41429   0.54273   0.00000  Uiso   1.00
H873   H     0.16293   0.42354   0.62178   0.00000  Uiso   1.00
H874   H     0.09944   0.43990   0.60598   0.00000  Uiso   1.00
C875   C     0.22381   0.53333   0.89240   0.00000  Uiso   1.00
C876   C     0.25307   0.58619   0.86819   0.00000  Uiso   1.00
C877   C     0.32267   0.60619   0.86961   0.00000  Uiso   1.00
H878   H     0.01746   0.57643   0.85484   0.00000  Uiso   1.00
H879   H     0.00928   0.64308   0.85070   0.00000  Uiso   1.00
H880   H     0.32714   0.61458   0.90396   0.00000  Uiso   1.00
H881   H     0.25131   0.58211   0.83330   0.00000  Uiso   1.00
H882   H     0.22596   0.61684   0.88221   0.00000  Uiso   1.00
H883   H     0.24798   0.53054   0.91869   0.00000  Uiso   1.00
H884   H     0.23738   0.49972   0.87157   0.00000  Uiso   1.00
C885   C     0.51497   0.60008   0.75139   0.00000  Uiso   1.00
C886   C     0.48494   0.39992   0.74878   0.00000  Uiso   1.00
C887   C     0.41457   0.50236   0.54685   0.00000  Uiso   1.00
C888   C     0.54731   0.59056   0.97917   0.00000  Uiso   1.00
C889   C     0.37232   0.49295   0.51955   0.00000  Uiso   1.00
C890   C     0.58824   0.60466   0.50698   0.00000  Uiso   1.00
C891   C     0.52346   0.65599   0.75213   0.00000  Uiso   1.00
C892   C     0.47633   0.34400   0.74828   0.00000  Uiso   1.00
C893   C     0.46252   0.49972   0.83363   0.00000  Uiso   1.00
C894   C     0.53840   0.50464   0.66685   0.00000  Uiso   1.00
C895   C     0.44146   0.50475   0.88240   0.00000  Uiso   1.00
C896   C     0.56117   0.51894   0.62043   0.00000  Uiso   1.00
C897   C     0.35332   0.48635   0.94667   0.00000  Uiso   1.00
C898   C     0.62363   0.58742   0.57000   0.00000  Uiso   1.00
C899   C     0.37625   0.48876   0.90140   0.00000  Uiso   1.00
C900   C     0.61333   0.56097   0.60878   0.00000  Uiso   1.00
C901   C     0.48464   0.52400   0.91038   0.00000  Uiso   1.00
C902   C     0.52162   0.50024   0.59114   0.00000  Uiso   1.00
C903   C     0.45912   0.52614   0.95701   0.00000  Uiso   1.00
C904   C     0.52532   0.53292   0.55564   0.00000  Uiso   1.00
C905   C     0.39459   0.50211   0.97441   0.00000  Uiso   1.00
C906   C     0.57945   0.57483   0.54403   0.00000  Uiso   1.00
C907   C     0.49662   0.54652   0.98771   0.00000  Uiso   1.00
C908   C     0.47908   0.52517   0.53017   0.00000  Uiso   1.00
Cu909  Cu    0.44071   0.49441   0.74517   0.00000  Uiso   1.00
Cu910  Cu    0.55929   0.50559   0.75484   0.00000  Uiso   1.00
H911   H     0.65603   0.47624   0.53346   0.00000  Uiso   1.00
H912   H     0.62757   0.63831   0.99897   0.00000  Uiso   1.00
H913   H     0.64436   0.57513   0.63076   0.00000  Uiso   1.00
H914   H     0.34282   0.47489   0.88105   0.00000  Uiso   1.00
H915   H     0.63659   0.47035   0.96002   0.00000  Uiso   1.00
H916   H     0.66436   0.61968   0.56143   0.00000  Uiso   1.00
H917   H     0.39531   0.49570   0.58148   0.00000  Uiso   1.00
H918   H     0.55438   0.61533   0.95176   0.00000  Uiso   1.00
H919   H     0.56892   0.34637   0.75576   0.00000  Uiso   1.00
H920   H     0.43085   0.65361   0.74469   0.00000  Uiso   1.00
H921   H     0.33532   0.53908   0.78397   0.00000  Uiso   1.00
H922   H     0.66491   0.46106   0.71580   0.00000  Uiso   1.00
N923   N     0.64839   0.51401   0.76212   0.00000  Uiso   1.00
N924   N     0.35161   0.48599   0.73788   0.00000  Uiso   1.00
O925   O     0.46148   0.57142   0.74686   0.00000  Uiso   1.00
O926   O     0.53852   0.42858   0.75314   0.00000  Uiso   1.00
O927   O     0.56163   0.58086   0.75503   0.00000  Uiso   1.00
O928   O     0.43837   0.41914   0.74498   0.00000  Uiso   1.00
O929   O     0.42185   0.49263   0.80855   0.00000  Uiso   1.00
O930   O     0.57815   0.50737   0.69146   0.00000  Uiso   1.00
O931   O     0.52199   0.50207   0.81671   0.00000  Uiso   1.00
O932   O     0.47801   0.49793   0.68329   0.00000  Uiso   1.00
C933   C     0.48457   0.44294   0.59540   0.00000  Uiso   1.00
C934   C     0.50173   0.41015   0.55324   0.00000  Uiso   1.00
C935   C     0.47069   0.35195   0.56057   0.00000  Uiso   1.00
H936   H     0.49199   0.33499   0.58326   0.00000  Uiso   1.00
H937   H     0.41896   0.34722   0.57478   0.00000  Uiso   1.00
H938   H     0.47791   0.66336   0.52878   0.00000  Uiso   1.00
H939   H     0.48550   0.42383   0.52624   0.00000  Uiso   1.00
H940   H     0.55403   0.41429   0.54273   0.00000  Uiso   1.00
H941   H     0.49626   0.42354   0.62178   0.00000  Uiso   1.00
H942   H     0.43278   0.43990   0.60598   0.00000  Uiso   1.00
C943   C     0.55714   0.53333   0.89240   0.00000  Uiso   1.00
C944   C     0.58641   0.58619   0.86819   0.00000  Uiso   1.00
C945   C     0.65600   0.60619   0.86961   0.00000  Uiso   1.00
H946   H     0.35080   0.57643   0.85484   0.00000  Uiso   1.00
H947   H     0.34261   0.64308   0.85070   0.00000  Uiso   1.00
H948   H     0.66047   0.61458   0.90396   0.00000  Uiso   1.00
H949   H     0.58464   0.58211   0.83330   0.00000  Uiso   1.00
H950   H     0.55930   0.61684   0.88221   0.00000  Uiso   1.00
H951   H     0.58131   0.53054   0.91869   0.00000  Uiso   1.00
H952   H     0.57071   0.49972   0.87157   0.00000  Uiso   1.00
C953   C     0.84831   0.60008   0.75139   0.00000  Uiso   1.00
C954   C     0.81827   0.39992   0.74878   0.00000  Uiso   1.00
C955   C     0.74791   0.50236   0.54685   0.00000  Uiso   1.00
C956   C     0.88065   0.59056   0.97917   0.00000  Uiso   1.00
C957   C     0.70565   0.49295   0.51955   0.00000  Uiso   1.00
C958   C     0.92157   0.60466   0.50698   0.00000  Uiso   1.00
C959   C     0.85679   0.65599   0.75213   0.00000  Uiso   1.00
C960   C     0.80966   0.34400   0.74828   0.00000  Uiso   1.00
C961   C     0.79585   0.49972   0.83363   0.00000  Uiso   1.00
C962   C     0.87173   0.50464   0.66685   0.00000  Uiso   1.00
C963   C     0.77479   0.50475   0.88240   0.00000  Uiso   1.00
C964   C     0.89451   0.51894   0.62043   0.00000  Uiso   1.00
C965   C     0.68665   0.48635   0.94667   0.00000  Uiso   1.00
C966   C     0.95696   0.58742   0.57000   0.00000  Uiso   1.00
C967   C     0.70958   0.48876   0.90140   0.00000  Uiso   1.00
C968   C     0.94667   0.56097   0.60878   0.00000  Uiso   1.00
C969   C     0.81797   0.52400   0.91038   0.00000  Uiso   1.00
C970   C     0.85496   0.50024   0.59114   0.00000  Uiso   1.00
C971   C     0.79245   0.52614   0.95701   0.00000  Uiso   1.00
C972   C     0.85866   0.53292   0.55564   0.00000  Uiso   1.00
C973   C     0.72793   0.50211   0.97441   0.00000  Uiso   1.00
C974   C     0.91278   0.57483   0.54403   0.00000  Uiso   1.00
C975   C     0.82995   0.54652   0.98771   0.00000  Uiso   1.00
C976   C     0.81241   0.52517   0.53017   0.00000  Uiso   1.00
Cu977  Cu    0.77404   0.49441   0.74517   0.00000  Uiso   1.00
Cu978  Cu    0.89263   0.50559   0.75484   0.00000  Uiso   1.00
H979   H     0.98937   0.47624   0.53346   0.00000  Uiso   1.00
H980   H     0.96090   0.63831   0.99897   0.00000  Uiso   1.00
H981   H     0.97769   0.57513   0.63076   0.00000  Uiso   1.00
H982   H     0.67616   0.47489   0.88105   0.00000  Uiso   1.00
H983   H     0.96992   0.47035   0.96002   0.00000  Uiso   1.00
H984   H     0.99769   0.61968   0.56143   0.00000  Uiso   1.00
H985   H     0.72864   0.49570   0.58148   0.00000  Uiso   1.00
H986   H     0.88772   0.61533   0.95176   0.00000  Uiso   1.00
H987   H     0.90225   0.34637   0.75576   0.00000  Uiso   1.00
H988   H     0.76418   0.65361   0.74469   0.00000  Uiso   1.00
H989   H     0.66865   0.53908   0.78397   0.00000  Uiso   1.00
H990   H     0.99825   0.46106   0.71580   0.00000  Uiso   1.00
N991   N     0.98173   0.51401   0.76212   0.00000  Uiso   1.00
N992   N     0.68494   0.48599   0.73788   0.00000  Uiso   1.00
O993   O     0.79482   0.57142   0.74686   0.00000  Uiso   1.00
O994   O     0.87185   0.42858   0.75314   0.00000  Uiso   1.00
O995   O     0.89496   0.58086   0.75503   0.00000  Uiso   1.00
O996   O     0.77171   0.41914   0.74498   0.00000  Uiso   1.00
O997   O     0.75518   0.49263   0.80855   0.00000  Uiso   1.00
O998   O     0.91149   0.50737   0.69146   0.00000  Uiso   1.00
O999   O     0.85532   0.50207   0.81671   0.00000  Uiso   1.00
O1000  O     0.81134   0.49793   0.68329   0.00000  Uiso   1.00
C1001  C     0.81791   0.44294   0.59540   0.00000  Uiso   1.00
C1002  C     0.83506   0.41015   0.55324   0.00000  Uiso   1.00
C1003  C     0.80402   0.35195   0.56057   0.00000  Uiso   1.00
H1004  H     0.82533   0.33499   0.58326   0.00000  Uiso   1.00
H1005  H     0.75229   0.34722   0.57478   0.00000  Uiso   1.00
H1006  H     0.81124   0.66336   0.52878   0.00000  Uiso   1.00
H1007  H     0.81884   0.42383   0.52624   0.00000  Uiso   1.00
H1008  H     0.88737   0.41429   0.54273   0.00000  Uiso   1.00
H1009  H     0.82959   0.42354   0.62178   0.00000  Uiso   1.00
H1010  H     0.76611   0.43990   0.60598   0.00000  Uiso   1.00
C1011  C     0.89048   0.53333   0.89240   0.00000  Uiso   1.00
C1012  C     0.91974   0.58619   0.86819   0.00000  Uiso   1.00
C1013  C     0.98933   0.60619   0.86961   0.00000  Uiso   1.00
H1014  H     0.68413   0.57643   0.85484   0.00000  Uiso   1.00
H1015  H     0.67594   0.64308   0.85070   0.00000  Uiso   1.00
H1016  H     0.99381   0.61458   0.90396   0.00000  Uiso   1.00
H1017  H     0.91798   0.58211   0.83330   0.00000  Uiso   1.00
H1018  H     0.89263   0.61684   0.88221   0.00000  Uiso   1.00
H1019  H     0.91464   0.53054   0.91869   0.00000  Uiso   1.00
H1020  H     0.90404   0.49972   0.87157   0.00000  Uiso   1.00
C1021  C     0.18164   0.93341   0.75139   0.00000  Uiso   1.00
C1022  C     0.15161   0.73325   0.74878   0.00000  Uiso   1.00
C1023  C     0.08124   0.83570   0.54685   0.00000  Uiso   1.00
C1024  C     0.21398   0.92390   0.97917   0.00000  Uiso   1.00
C1025  C     0.03899   0.82628   0.51955   0.00000  Uiso   1.00
C1026  C     0.25491   0.93799   0.50698   0.00000  Uiso   1.00
C1027  C     0.19013   0.98932   0.75213   0.00000  Uiso   1.00
C1028  C     0.14300   0.67733   0.74828   0.00000  Uiso   1.00
C1029  C     0.12919   0.83305   0.83363   0.00000  Uiso   1.00
C1030  C     0.20506   0.83797   0.66685   0.00000  Uiso   1.00
C1031  C     0.10812   0.83808   0.88240   0.00000  Uiso   1.00
C1032  C     0.22784   0.85228   0.62043   0.00000  Uiso   1.00
C1033  C     0.01998   0.81968   0.94667   0.00000  Uiso   1.00
C1034  C     0.29029   0.92075   0.57000   0.00000  Uiso   1.00
C1035  C     0.04292   0.82209   0.90140   0.00000  Uiso   1.00
C1036  C     0.28000   0.89430   0.60878   0.00000  Uiso   1.00
C1037  C     0.15131   0.85734   0.91038   0.00000  Uiso   1.00
C1038  C     0.18829   0.83357   0.59114   0.00000  Uiso   1.00
C1039  C     0.12578   0.85947   0.95701   0.00000  Uiso   1.00
C1040  C     0.19199   0.86625   0.55564   0.00000  Uiso   1.00
C1041  C     0.06126   0.83544   0.97441   0.00000  Uiso   1.00
C1042  C     0.24611   0.90816   0.54403   0.00000  Uiso   1.00
C1043  C     0.16329   0.87985   0.98771   0.00000  Uiso   1.00
C1044  C     0.14575   0.85850   0.53017   0.00000  Uiso   1.00
Cu1045 Cu    0.10737   0.82775   0.74517   0.00000  Uiso   1.00
Cu1046 Cu    0.22596   0.83892   0.75484   0.00000  Uiso   1.00
H1047  H     0.32270   0.80957   0.53346   0.00000  Uiso   1.00
H1048  H     0.29424   0.97165   0.99897   0.00000  Uiso   1.00
H1049  H     0.31103   0.90847   0.63076   0.00000  Uiso   1.00
H1050  H     0.00949   0.80822   0.88105   0.00000  Uiso   1.00
H1051  H     0.30325   0.80369   0.96002   0.00000  Uiso   1.00
H1052  H     0.33103   0.95301   0.56143   0.00000  Uiso   1.00
H1053  H     0.06198   0.82903   0.58148   0.00000  Uiso   1.00
H1054  H     0.22105   0.94866   0.95176   0.00000  Uiso   1.00
H1055  H     0.23559   0.67970   0.75576   0.00000  Uiso   1.00
H1056  H     0.09751   0.98694   0.74469   0.00000  Uiso   1.00
H1057  H     0.00198   0.87242   0.78397   0.00000  Uiso   1.00
H1058  H     0.33158   0.79439   0.71580   0.00000  Uiso   1.00
N1059  N     0.31506   0.84735   0.76212   0.00000  Uiso   1.00
N1060  N     0.01827   0.81932   0.73788   0.00000  Uiso   1.00
O1061  O     0.12815   0.90476   0.74686   0.00000  Uiso   1.00
O1062  O     0.20518   0.76191   0.75314   0.00000  Uiso   1.00
O1063  O     0.22829   0.91420   0.75503   0.00000  Uiso   1.00
O1064  O     0.10504   0.75247   0.74498   0.00000  Uiso   1.00
O1065  O     0.08851   0.82597   0.80855   0.00000  Uiso   1.00
O1066  O     0.24482   0.84070   0.69146   0.00000  Uiso   1.00
O1067  O     0.18866   0.83540   0.81671   0.00000  Uiso   1.00
O1068  O     0.14468   0.83126   0.68329   0.00000  Uiso   1.00
C1069  C     0.15124   0.77628   0.59540   0.00000  Uiso   1.00
C1070  C     0.16839   0.74349   0.55324   0.00000  Uiso   1.00
C1071  C     0.13735   0.68529   0.56057   0.00000  Uiso   1.00
H1072  H     0.15866   0.66832   0.58326   0.00000  Uiso   1.00
H1073  H     0.08562   0.68056   0.57478   0.00000  Uiso   1.00
H1074  H     0.14457   0.99670   0.52878   0.00000  Uiso   1.00
H1075  H     0.15217   0.75716   0.52624   0.00000  Uiso   1.00
H1076  H     0.22070   0.74762   0.54273   0.00000  Uiso   1.00
H1077  H     0.16293   0.75688   0.62178   0.00000  Uiso   1.00
H1078  H     0.09944   0.77323   0.60598   0.00000  Uiso   1.00
C1079  C     0.22381   0.86666   0.89240   0.00000  Uiso   1.00
C1080  C     0.25307   0.91953   0.86819   0.00000  Uiso   1.00
C1081  C     0.32267   0.93952   0.86961   0.00000  Uiso   1.00
H1082  H     0.01746   0.90976   0.85484   0.00000  Uiso   1.00
H1083  H     0.00928   0.97642   0.85070   0.00000  Uiso   1.00
H1084  H     0.32714   0.94792   0.90396   0.00000  Uiso   1.00
H1085  H     0.25131   0.91544   0.83330   0.00000  Uiso   1.00
H1086  H     0.22596   0.95017   0.88221   0.00000  Uiso   1.00
H1087  H     0.24798   0.86387   0.91869   0.00000  Uiso   1.00
H1088  H     0.23738   0.83306   0.87157   0.00000  Uiso   1.00
C1089  C     0.51497   0.93341   0.75139   0.00000  Uiso   1.00
C1090  C     0.48494   0.73325   0.74878   0.00000  Uiso   1.00
C1091  C     0.41457   0.83570   0.54685   0.00000  Uiso   1.00
C1092  C     0.54731   0.92390   0.97917   0.00000  Uiso   1.00
C1093  C     0.37232   0.82628   0.51955   0.00000  Uiso   1.00
C1094  C     0.58824   0.93799   0.50698   0.00000  Uiso   1.00
C1095  C     0.52346   0.98932   0.75213   0.00000  Uiso   1.00
C1096  C     0.47633   0.67733   0.74828   0.00000  Uiso   1.00
C1097  C     0.46252   0.83305   0.83363   0.00000  Uiso   1.00
C1098  C     0.53840   0.83797   0.66685   0.00000  Uiso   1.00
C1099  C     0.44146   0.83808   0.88240   0.00000  Uiso   1.00
C1100  C     0.56117   0.85228   0.62043   0.00000  Uiso   1.00
C1101  C     0.35332   0.81968   0.94667   0.00000  Uiso   1.00
C1102  C     0.62363   0.92075   0.57000   0.00000  Uiso   1.00
C1103  C     0.37625   0.82209   0.90140   0.00000  Uiso   1.00
C1104  C     0.61333   0.89430   0.60878   0.00000  Uiso   1.00
C1105  C     0.48464   0.85734   0.91038   0.00000  Uiso   1.00
C1106  C     0.52162   0.83357   0.59114   0.00000  Uiso   1.00
C1107  C     0.45912   0.85947   0.95701   0.00000  Uiso   1.00
C1108  C     0.52532   0.86625   0.55564   0.00000  Uiso   1.00
C1109  C     0.39459   0.83544   0.97441   0.00000  Uiso   1.00
C1110  C     0.57945   0.90816   0.54403   0.00000  Uiso   1.00
C1111  C     0.49662   0.87985   0.98771   0.00000  Uiso   1.00
C1112  C     0.47908   0.85850   0.53017   0.00000  Uiso   1.00
Cu1113 Cu    0.44071   0.82775   0.74517   0.00000  Uiso   1.00
Cu1114 Cu    0.55929   0.83892   0.75484   0.00000  Uiso   1.00
H1115  H     0.65603   0.80957   0.53346   0.00000  Uiso   1.00
H1116  H     0.62757   0.97165   0.99897   0.00000  Uiso   1.00
H1117  H     0.64436   0.90847   0.63076   0.00000  Uiso   1.00
H1118  H     0.34282   0.80822   0.88105   0.00000  Uiso   1.00
H1119  H     0.63659   0.80369   0.96002   0.00000  Uiso   1.00
H1120  H     0.66436   0.95301   0.56143   0.00000  Uiso   1.00
H1121  H     0.39531   0.82903   0.58148   0.00000  Uiso   1.00
H1122  H     0.55438   0.94866   0.95176   0.00000  Uiso   1.00
H1123  H     0.56892   0.67970   0.75576   0.00000  Uiso   1.00
H1124  H     0.43085   0.98694   0.74469   0.00000  Uiso   1.00
H1125  H     0.33532   0.87242   0.78397   0.00000  Uiso   1.00
H1126  H     0.66491   0.79439   0.71580   0.00000  Uiso   1.00
N1127  N     0.64839   0.84735   0.76212   0.00000  Uiso   1.00
N1128  N     0.35161   0.81932   0.73788   0.00000  Uiso   1.00
O1129  O     0.46148   0.90476   0.74686   0.00000  Uiso   1.00
O1130  O     0.53852   0.76191   0.75314   0.00000  Uiso   1.00
O1131  O     0.56163   0.91420   0.75503   0.00000  Uiso   1.00
O1132  O     0.43837   0.75247   0.74498   0.00000  Uiso   1.00
O1133  O     0.42185   0.82597   0.80855   0.00000  Uiso   1.00
O1134  O     0.57815   0.84070   0.69146   0.00000  Uiso   1.00
O1135  O     0.52199   0.83540   0.81671   0.00000  Uiso   1.00
O1136  O     0.47801   0.83126   0.68329   0.00000  Uiso   1.00
C1137  C     0.48457   0.77628   0.59540   0.00000  Uiso   1.00
C1138  C     0.50173   0.74349   0.55324   0.00000  Uiso   1.00
C1139  C     0.47069   0.68529   0.56057   0.00000  Uiso   1.00
H1140  H     0.49199   0.66832   0.58326   0.00000  Uiso   1.00
H1141  H     0.41896   0.68056   0.57478   0.00000  Uiso   1.00
H1142  H     0.47791   0.99670   0.52878   0.00000  Uiso   1.00
H1143  H     0.48550   0.75716   0.52624   0.00000  Uiso   1.00
H1144  H     0.55403   0.74762   0.54273   0.00000  Uiso   1.00
H1145  H     0.49626   0.75688   0.62178   0.00000  Uiso   1.00
H1146  H     0.43278   0.77323   0.60598   0.00000  Uiso   1.00
C1147  C     0.55714   0.86666   0.89240   0.00000  Uiso   1.00
C1148  C     0.58641   0.91953   0.86819   0.00000  Uiso   1.00
C1149  C     0.65600   0.93952   0.86961   0.00000  Uiso   1.00
H1150  H     0.35080   0.90976   0.85484   0.00000  Uiso   1.00
H1151  H     0.34261   0.97642   0.85070   0.00000  Uiso   1.00
H1152  H     0.66047   0.94792   0.90396   0.00000  Uiso   1.00
H1153  H     0.58464   0.91544   0.83330   0.00000  Uiso   1.00
H1154  H     0.55930   0.95017   0.88221   0.00000  Uiso   1.00
H1155  H     0.58131   0.86387   0.91869   0.00000  Uiso   1.00
H1156  H     0.57071   0.83306   0.87157   0.00000  Uiso   1.00
C1157  C     0.84831   0.93341   0.75139   0.00000  Uiso   1.00
C1158  C     0.81827   0.73325   0.74878   0.00000  Uiso   1.00
C1159  C     0.74791   0.83570   0.54685   0.00000  Uiso   1.00
C1160  C     0.88065   0.92390   0.97917   0.00000  Uiso   1.00
C1161  C     0.70565   0.82628   0.51955   0.00000  Uiso   1.00
C1162  C     0.92157   0.93799   0.50698   0.00000  Uiso   1.00
C1163  C     0.85679   0.98932   0.75213   0.00000  Uiso   1.00
C1164  C     0.80966   0.67733   0.74828   0.00000  Uiso   1.00
C1165  C     0.79585   0.83305   0.83363   0.00000  Uiso   1.00
C1166  C     0.87173   0.83797   0.66685   0.00000  Uiso   1.00
C1167  C     0.77479   0.83808   0.88240   0.00000  Uiso   1.00
C1168  C     0.89451   0.85228   0.62043   0.00000  Uiso   1.00
C1169  C     0.68665   0.81968   0.94667   0.00000  Uiso   1.00
C1170  C     0.95696   0.92075   0.57000   0.00000  Uiso   1.00
C1171  C     0.70958   0.82209   0.90140   0.00000  Uiso   1.00
C1172  C     0.94667   0.89430   0.60878   0.00000  Uiso   1.00
C1173  C     0.81797   0.85734   0.91038   0.00000  Uiso   1.00
C1174  C     0.85496   0.83357   0.59114   0.00000  Uiso   1.00
C1175  C     0.79245   0.85947   0.95701   0.00000  Uiso   1.00
C1176  C     0.85866   0.86625   0.55564   0.00000  Uiso   1.00
C1177  C     0.72793   0.83544   0.97441   0.00000  Uiso   1.00
C1178  C     0.91278   0.90816   0.54403   0.00000  Uiso   1.00
C1179  C     0.82995   0.87985   0.98771   0.00000  Uiso   1.00
C1180  C     0.81241   0.85850   0.53017   0.00000  Uiso   1.00
Cu1181 Cu    0.77404   0.82775   0.74517   0.00000  Uiso   1.00
Cu1182 Cu    0.89263   0.83892   0.75484   0.00000  Uiso   1.00
H1183  H     0.98937   0.80957   0.53346   0.00000  Uiso   1.00
H1184  H     0.96090   0.97165   0.99897   0.00000  Uiso   1.00
H1185  H     0.97769   0.90847   0.63076   0.00000  Uiso   1.00
H1186  H     0.67616   0.80822   0.88105   0.00000  Uiso   1.00
H1187  H     0.96992   0.80369   0.96002   0.00000  Uiso   1.00
H1188  H     0.99769   0.95301   0.56143   0.00000  Uiso   1.00
H1189  H     0.72864   0.82903   0.58148   0.00000  Uiso   1.00
H1190  H     0.88772   0.94866   0.95176   0.00000  Uiso   1.00
H1191  H     0.90225   0.67970   0.75576   0.00000  Uiso   1.00
H1192  H     0.76418   0.98694   0.74469   0.00000  Uiso   1.00
H1193  H     0.66865   0.87242   0.78397   0.00000  Uiso   1.00
H1194  H     0.99825   0.79439   0.71580   0.00000  Uiso   1.00
N1195  N     0.98173   0.84735   0.76212   0.00000  Uiso   1.00
N1196  N     0.68494   0.81932   0.73788   0.00000  Uiso   1.00
O1197  O     0.79482   0.90476   0.74686   0.00000  Uiso   1.00
O1198  O     0.87185   0.76191   0.75314   0.00000  Uiso   1.00
O1199  O     0.89496   0.91420   0.75503   0.00000  Uiso   1.00
O1200  O     0.77171   0.75247   0.74498   0.00000  Uiso   1.00
O1201  O     0.75518   0.82597   0.80855   0.00000  Uiso   1.00
O1202  O     0.91149   0.84070   0.69146   0.00000  Uiso   1.00
O1203  O     0.85532   0.83540   0.81671   0.00000  Uiso   1.00
O1204  O     0.81134   0.83126   0.68329   0.00000  Uiso   1.00
C1205  C     0.81791   0.77628   0.59540   0.00000  Uiso   1.00
C1206  C     0.83506   0.74349   0.55324   0.00000  Uiso   1.00
C1207  C     0.80402   0.68529   0.56057   0.00000  Uiso   1.00
H1208  H     0.82533   0.66832   0.58326   0.00000  Uiso   1.00
H1209  H     0.75229   0.68056   0.57478   0.00000  Uiso   1.00
H1210  H     0.81124   0.99670   0.52878   0.00000  Uiso   1.00
H1211  H     0.81884   0.75716   0.52624   0.00000  Uiso   1.00
H1212  H     0.88737   0.74762   0.54273   0.00000  Uiso   1.00
H1213  H     0.82959   0.75688   0.62178   0.00000  Uiso   1.00
H1214  H     0.76611   0.77323   0.60598   0.00000  Uiso   1.00
C1215  C     0.89048   0.86666   0.89240   0.00000  Uiso   1.00
C1216  C     0.91974   0.91953   0.86819   0.00000  Uiso   1.00
C1217  C     0.98933   0.93952   0.86961   0.00000  Uiso   1.00
H1218  H     0.68413   0.90976   0.85484   0.00000  Uiso   1.00
H1219  H     0.67594   0.97642   0.85070   0.00000  Uiso   1.00
H1220  H     0.99381   0.94792   0.90396   0.00000  Uiso   1.00
H1221  H     0.91798   0.91544   0.83330   0.00000  Uiso   1.00
H1222  H     0.89263   0.95017   0.88221   0.00000  Uiso   1.00
H1223  H     0.91464   0.86387   0.91869   0.00000  Uiso   1.00
H1224  H     0.90404   0.83306   0.87157   0.00000  Uiso   1.00
loop_
_geom_bond_atom_site_label_1
_geom_bond_atom_site_label_2
_geom_bond_distance
_geom_bond_site_symmetry_2
_ccdc_geom_bond_type
C1     O43     1.281   .     A
C1     C7      1.425   .     S
C1     O41     1.289   .     A
C2     O42     1.289   .     A
C2     O44     1.281   .     A
C2     C8      1.425   .     S
C3     C5      1.394   .     A
C3     C24     1.406   .     A
C3     H33     1.078   .     S
C4     H34     1.072   .     S
C4     C23     1.405   .     A
C4     C618    1.387   .     S
C5     C633    1.401   1_554 S
C5     H163    1.083   1_455 S
C6     C22     1.395   .     A
C6     C616    1.387   1_554 S
C6     H640    1.084   1_554 S
C7     C212    1.326   .     S
C7     H239    1.088   .     S
C8     C415    1.326   1_545 S
C8     H444    1.088   1_545 S
C9     O45     1.315   .     A
C9     C11     1.493   .     S
C9     O47     1.288   .     A
C10    O46     1.299   .     A
C10    C12     1.467   .     S
C10    O48     1.291   .     A
C11    C17     1.444   .     A
C11    C15     1.404   .     A
C12    C18     1.415   .     A
C12    C16     1.398   .     A
C13    C15     1.388   .     A
C13    C21     1.395   .     A
C13    H167    1.084   1_455 S
C14    C16     1.387   .     A
C14    C22     1.397   .     A
C14    H32     1.081   .     S
C15    H30     1.083   .     S
C16    H29     1.083   .     S
C17    C19     1.436   .     A
C17    C59     1.541   .     S
C18    C20     1.427   .     A
C18    C49     1.531   .     S
C19    C23     1.426   .     A
C19    C21     1.417   .     A
C20    C22     1.423   .     A
C20    C24     1.425   .     A
C21    C617    1.401   .     S
C23    C636    1.412   .     S
C24    C635    1.412   1_554 S
Cu25   Cu26    2.679   .     S
Cu25   O41     1.955   .     S
Cu25   O48     1.916   .     S
Cu25   O44     1.950   .     S
Cu25   N40     2.013   .     S
Cu25   O45     1.933   .     S
Cu26   O47     1.916   .     S
Cu26   O43     1.950   .     S
Cu26   N39     2.013   .     S
Cu26   O42     1.955   .     S
Cu26   O46     1.933   .     S
H27    C73     1.083   .     S
H28    C618    1.084   .     S
H31    C81     1.084   .     S
H35    C415    1.088   1_545 S
H36    C212    1.088   .     S
H37    N175    1.028   1_455 S
H38    N108    1.029   .     S
N39    H105    1.028   .     S
N39    N108    1.287   .     S
N40    H174    1.029   1_455 S
N40    N175    1.287   1_455 S
C49    H57     1.112   .     S
C49    C50     1.538   .     S
C49    H58     1.104   .     S
C50    H55     1.109   .     S
C50    C51     1.526   .     S
C50    H56     1.111   .     S
C51    H52     1.111   .     S
C51    H53     1.109   .     S
C51    H462    1.109   1_545 S
H54    C255    1.109   .     S
C59    H68     1.107   .     S
C59    C60     1.550   .     S
C59    H67     1.105   .     S
C60    H66     1.109   .     S
C60    H65     1.103   .     S
C60    C61     1.529   .     S
C61    H64     1.110   .     S
C61    H130    1.110   .     S
C61    H131    1.111   .     S
H62    C197    1.110   1_455 S
H63    C197    1.111   1_455 S
C69    O111    1.281   .     A
C69    C75     1.425   .     S
C69    O109    1.289   .     A
C70    O110    1.289   .     A
C70    O112    1.281   .     A
C70    C76     1.425   .     S
C71    C73     1.394   .     A
C71    C92     1.406   .     A
C71    H101    1.078   .     S
C72    H102    1.072   .     S
C72    C91     1.405   .     A
C72    C686    1.387   .     S
C73    C701    1.401   1_554 S
C74    C90     1.395   .     A
C74    C684    1.387   1_554 S
C74    H708    1.084   1_554 S
C75    C280    1.326   .     S
C75    H307    1.088   .     S
C76    C483    1.326   1_545 S
C76    H512    1.088   1_545 S
C77    O113    1.315   .     A
C77    C79     1.493   .     S
C77    O115    1.288   .     A
C78    O114    1.299   .     A
C78    C80     1.467   .     S
C78    O116    1.291   .     A
C79    C85     1.444   .     A
C79    C83     1.404   .     A
C80    C86     1.415   .     A
C80    C84     1.398   .     A
C81    C83     1.388   .     A
C81    C89     1.395   .     A
C82    C84     1.387   .     A
C82    C90     1.397   .     A
C82    H100    1.081   .     S
C83    H98     1.083   .     S
C84    H97     1.083   .     S
C85    C87     1.436   .     A
C85    C127    1.541   .     S
C86    C88     1.427   .     A
C86    C117    1.531   .     S
C87    C91     1.426   .     A
C87    C89     1.417   .     A
C88    C90     1.423   .     A
C88    C92     1.425   .     A
C89    C685    1.401   .     S
C91    C704    1.412   .     S
C92    C703    1.412   1_554 S
Cu93   Cu94    2.679   .     S
Cu93   O109    1.955   .     S
Cu93   O116    1.916   .     S
Cu93   O112    1.950   .     S
Cu93   N108    2.013   .     S
Cu93   O113    1.933   .     S
Cu94   O115    1.916   .     S
Cu94   O111    1.950   .     S
Cu94   N107    2.013   .     S
Cu94   O110    1.955   .     S
Cu94   O114    1.933   .     S
H95    C141    1.083   .     S
H96    C686    1.084   .     S
H99    C149    1.084   .     S
H103   C483    1.088   1_545 S
H104   C280    1.088   .     S
H106   N176    1.029   .     S
N107   H173    1.028   .     S
N107   N176    1.287   .     S
C117   H125    1.112   .     S
C117   C118    1.538   .     S
C117   H126    1.104   .     S
C118   H123    1.109   .     S
C118   C119    1.526   .     S
C118   H124    1.111   .     S
C119   H120    1.111   .     S
C119   H121    1.109   .     S
C119   H530    1.109   1_545 S
H122   C323    1.109   .     S
C127   H136    1.107   .     S
C127   C128    1.550   .     S
C127   H135    1.105   .     S
C128   H134    1.109   .     S
C128   H133    1.103   .     S
C128   C129    1.529   .     S
C129   H132    1.110   .     S
C129   H198    1.110   .     S
C129   H199    1.111   .     S
C137   O179    1.281   .     A
C137   C143    1.425   .     S
C137   O177    1.289   .     A
C138   O178    1.289   .     A
C138   O180    1.281   .     A
C138   C144    1.425   .     S
C139   C141    1.394   .     A
C139   C160    1.406   .     A
C139   H169    1.078   .     S
C140   H170    1.072   .     S
C140   C159    1.405   .     A
C140   C754    1.387   .     S
C141   C769    1.401   1_554 S
C142   C158    1.395   .     A
C142   C752    1.387   1_554 S
C142   H776    1.084   1_554 S
C143   C348    1.326   .     S
C143   H375    1.088   .     S
C144   C551    1.326   1_545 S
C144   H580    1.088   1_545 S
C145   O181    1.315   .     A
C145   C147    1.493   .     S
C145   O183    1.288   .     A
C146   O182    1.299   .     A
C146   C148    1.467   .     S
C146   O184    1.291   .     A
C147   C153    1.444   .     A
C147   C151    1.404   .     A
C148   C154    1.415   .     A
C148   C152    1.398   .     A
C149   C151    1.388   .     A
C149   C157    1.395   .     A
C150   C152    1.387   .     A
C150   C158    1.397   .     A
C150   H168    1.081   .     S
C151   H166    1.083   .     S
C152   H165    1.083   .     S
C153   C155    1.436   .     A
C153   C195    1.541   .     S
C154   C156    1.427   .     A
C154   C185    1.531   .     S
C155   C159    1.426   .     A
C155   C157    1.417   .     A
C156   C158    1.423   .     A
C156   C160    1.425   .     A
C157   C753    1.401   .     S
C159   C772    1.412   .     S
C160   C771    1.412   1_554 S
Cu161  Cu162   2.679   .     S
Cu161  O177    1.955   .     S
Cu161  O184    1.916   .     S
Cu161  O180    1.950   .     S
Cu161  N176    2.013   .     S
Cu161  O181    1.933   .     S
Cu162  O183    1.916   .     S
Cu162  O179    1.950   .     S
Cu162  N175    2.013   .     S
Cu162  O178    1.955   .     S
Cu162  O182    1.933   .     S
H163   C5      1.083   1_655 S
H164   C754    1.084   .     S
H167   C13     1.084   1_655 S
H171   C551    1.088   1_545 S
H172   C348    1.088   .     S
H174   N40     1.029   1_655 S
N175   H37     1.028   1_655 S
N175   N40     1.287   1_655 S
C185   H193    1.112   .     S
C185   C186    1.538   .     S
C185   H194    1.104   .     S
C186   H191    1.109   .     S
C186   C187    1.526   .     S
C186   H192    1.111   .     S
C187   H188    1.111   .     S
C187   H189    1.109   .     S
C187   H598    1.109   1_545 S
H190   C391    1.109   .     S
C195   H204    1.107   .     S
C195   C196    1.550   .     S
C195   H203    1.105   .     S
C196   H202    1.109   .     S
C196   H201    1.103   .     S
C196   C197    1.529   .     S
C197   H200    1.110   .     S
C197   H62     1.110   1_655 S
C197   H63     1.111   1_655 S
C205   O247    1.281   .     A
C205   C211    1.425   .     S
C205   O245    1.289   .     A
C206   O246    1.289   .     A
C206   O248    1.281   .     A
C206   C212    1.425   .     S
C207   C209    1.394   .     A
C207   C228    1.406   .     A
C207   H237    1.078   .     S
C208   H238    1.072   .     S
C208   C227    1.405   .     A
C208   C822    1.387   .     S
C209   C837    1.401   1_554 S
C209   H367    1.083   1_455 S
C210   C226    1.395   .     A
C210   C820    1.387   1_554 S
C210   H844    1.084   1_554 S
C211   C416    1.326   .     S
C211   H443    1.088   .     S
C213   O249    1.315   .     A
C213   C215    1.493   .     S
C213   O251    1.288   .     A
C214   O250    1.299   .     A
C214   C216    1.467   .     S
C214   O252    1.291   .     A
C215   C221    1.444   .     A
C215   C219    1.404   .     A
C216   C222    1.415   .     A
C216   C220    1.398   .     A
C217   C219    1.388   .     A
C217   C225    1.395   .     A
C217   H371    1.084   1_455 S
C218   C220    1.387   .     A
C218   C226    1.397   .     A
C218   H236    1.081   .     S
C219   H234    1.083   .     S
C220   H233    1.083   .     S
C221   C223    1.436   .     A
C221   C263    1.541   .     S
C222   C224    1.427   .     A
C222   C253    1.531   .     S
C223   C227    1.426   .     A
C223   C225    1.417   .     A
C224   C226    1.423   .     A
C224   C228    1.425   .     A
C225   C821    1.401   .     S
C227   C840    1.412   .     S
C228   C839    1.412   1_554 S
Cu229  Cu230   2.679   .     S
Cu229  O245    1.955   .     S
Cu229  O252    1.916   .     S
Cu229  O248    1.950   .     S
Cu229  N244    2.013   .     S
Cu229  O249    1.933   .     S
Cu230  O251    1.916   .     S
Cu230  O247    1.950   .     S
Cu230  N243    2.013   .     S
Cu230  O246    1.955   .     S
Cu230  O250    1.933   .     S
H231   C277    1.083   .     S
H232   C822    1.084   .     S
H235   C285    1.084   .     S
H240   C416    1.088   .     S
H241   N379    1.028   1_455 S
H242   N312    1.029   .     S
N243   H309    1.028   .     S
N243   N312    1.287   .     S
N244   H378    1.029   1_455 S
N244   N379    1.287   1_455 S
C253   H261    1.112   .     S
C253   C254    1.538   .     S
C253   H262    1.104   .     S
C254   H259    1.109   .     S
C254   C255    1.526   .     S
C254   H260    1.111   .     S
C255   H256    1.111   .     S
C255   H257    1.109   .     S
H258   C459    1.109   .     S
C263   H272    1.107   .     S
C263   C264    1.550   .     S
C263   H271    1.105   .     S
C264   H270    1.109   .     S
C264   H269    1.103   .     S
C264   C265    1.529   .     S
C265   H268    1.110   .     S
C265   H334    1.110   .     S
C265   H335    1.111   .     S
H266   C401    1.110   1_455 S
H267   C401    1.111   1_455 S
C273   O315    1.281   .     A
C273   C279    1.425   .     S
C273   O313    1.289   .     A
C274   O314    1.289   .     A
C274   O316    1.281   .     A
C274   C280    1.425   .     S
C275   C277    1.394   .     A
C275   C296    1.406   .     A
C275   H305    1.078   .     S
C276   H306    1.072   .     S
C276   C295    1.405   .     A
C276   C890    1.387   .     S
C277   C905    1.401   1_554 S
C278   C294    1.395   .     A
C278   C888    1.387   1_554 S
C278   H912    1.084   1_554 S
C279   C484    1.326   .     S
C279   H511    1.088   .     S
C281   O317    1.315   .     A
C281   C283    1.493   .     S
C281   O319    1.288   .     A
C282   O318    1.299   .     A
C282   C284    1.467   .     S
C282   O320    1.291   .     A
C283   C289    1.444   .     A
C283   C287    1.404   .     A
C284   C290    1.415   .     A
C284   C288    1.398   .     A
C285   C287    1.388   .     A
C285   C293    1.395   .     A
C286   C288    1.387   .     A
C286   C294    1.397   .     A
C286   H304    1.081   .     S
C287   H302    1.083   .     S
C288   H301    1.083   .     S
C289   C291    1.436   .     A
C289   C331    1.541   .     S
C290   C292    1.427   .     A
C290   C321    1.531   .     S
C291   C295    1.426   .     A
C291   C293    1.417   .     A
C292   C294    1.423   .     A
C292   C296    1.425   .     A
C293   C889    1.401   .     S
C295   C908    1.412   .     S
C296   C907    1.412   1_554 S
Cu297  Cu298   2.679   .     S
Cu297  O313    1.955   .     S
Cu297  O320    1.916   .     S
Cu297  O316    1.950   .     S
Cu297  N312    2.013   .     S
Cu297  O317    1.933   .     S
Cu298  O319    1.916   .     S
Cu298  O315    1.950   .     S
Cu298  N311    2.013   .     S
Cu298  O314    1.955   .     S
Cu298  O318    1.933   .     S
H299   C345    1.083   .     S
H300   C890    1.084   .     S
H303   C353    1.084   .     S
H308   C484    1.088   .     S
H310   N380    1.029   .     S
N311   H377    1.028   .     S
N311   N380    1.287   .     S
C321   H329    1.112   .     S
C321   C322    1.538   .     S
C321   H330    1.104   .     S
C322   H327    1.109   .     S
C322   C323    1.526   .     S
C322   H328    1.111   .     S
C323   H324    1.111   .     S
C323   H325    1.109   .     S
H326   C527    1.109   .     S
C331   H340    1.107   .     S
C331   C332    1.550   .     S
C331   H339    1.105   .     S
C332   H338    1.109   .     S
C332   H337    1.103   .     S
C332   C333    1.529   .     S
C333   H336    1.110   .     S
C333   H402    1.110   .     S
C333   H403    1.111   .     S
C341   O383    1.281   .     A
C341   C347    1.425   .     S
C341   O381    1.289   .     A
C342   O382    1.289   .     A
C342   O384    1.281   .     A
C342   C348    1.425   .     S
C343   C345    1.394   .     A
C343   C364    1.406   .     A
C343   H373    1.078   .     S
C344   H374    1.072   .     S
C344   C363    1.405   .     A
C344   C958    1.387   .     S
C345   C973    1.401   1_554 S
C346   C362    1.395   .     A
C346   C956    1.387   1_554 S
C346   H980    1.084   1_554 S
C347   C552    1.326   .     S
C347   H579    1.088   .     S
C349   O385    1.315   .     A
C349   C351    1.493   .     S
C349   O387    1.288   .     A
C350   O386    1.299   .     A
C350   C352    1.467   .     S
C350   O388    1.291   .     A
C351   C357    1.444   .     A
C351   C355    1.404   .     A
C352   C358    1.415   .     A
C352   C356    1.398   .     A
C353   C355    1.388   .     A
C353   C361    1.395   .     A
C354   C356    1.387   .     A
C354   C362    1.397   .     A
C354   H372    1.081   .     S
C355   H370    1.083   .     S
C356   H369    1.083   .     S
C357   C359    1.436   .     A
C357   C399    1.541   .     S
C358   C360    1.427   .     A
C358   C389    1.531   .     S
C359   C363    1.426   .     A
C359   C361    1.417   .     A
C360   C362    1.423   .     A
C360   C364    1.425   .     A
C361   C957    1.401   .     S
C363   C976    1.412   .     S
C364   C975    1.412   1_554 S
Cu365  Cu366   2.679   .     S
Cu365  O381    1.955   .     S
Cu365  O388    1.916   .     S
Cu365  O384    1.950   .     S
Cu365  N380    2.013   .     S
Cu365  O385    1.933   .     S
Cu366  O387    1.916   .     S
Cu366  O383    1.950   .     S
Cu366  N379    2.013   .     S
Cu366  O382    1.955   .     S
Cu366  O386    1.933   .     S
H367   C209    1.083   1_655 S
H368   C958    1.084   .     S
H371   C217    1.084   1_655 S
H376   C552    1.088   .     S
H378   N244    1.029   1_655 S
N379   H241    1.028   1_655 S
N379   N244    1.287   1_655 S
C389   H397    1.112   .     S
C389   C390    1.538   .     S
C389   H398    1.104   .     S
C390   H395    1.109   .     S
C390   C391    1.526   .     S
C390   H396    1.111   .     S
C391   H392    1.111   .     S
C391   H393    1.109   .     S
H394   C595    1.109   .     S
C399   H408    1.107   .     S
C399   C400    1.550   .     S
C399   H407    1.105   .     S
C400   H406    1.109   .     S
C400   H405    1.103   .     S
C400   C401    1.529   .     S
C401   H404    1.110   .     S
C401   H266    1.110   1_655 S
C401   H267    1.111   1_655 S
C409   O451    1.281   .     A
C409   C415    1.425   .     S
C409   O449    1.289   .     A
C410   O450    1.289   .     A
C410   O452    1.281   .     A
C410   C416    1.425   .     S
C411   C413    1.394   .     A
C411   C432    1.406   .     A
C411   H441    1.078   .     S
C412   H442    1.072   .     S
C412   C431    1.405   .     A
C412   C1026   1.387   .     S
C413   C1041   1.401   1_554 S
C413   H571    1.083   1_455 S
C414   C430    1.395   .     A
C414   C1024   1.387   1_554 S
C414   H1048   1.084   1_554 S
C415   C8      1.326   1_565 S
C415   H35     1.088   1_565 S
C417   O453    1.315   .     A
C417   C419    1.493   .     S
C417   O455    1.288   .     A
C418   O454    1.299   .     A
C418   C420    1.467   .     S
C418   O456    1.291   .     A
C419   C425    1.444   .     A
C419   C423    1.404   .     A
C420   C426    1.415   .     A
C420   C424    1.398   .     A
C421   C423    1.388   .     A
C421   C429    1.395   .     A
C421   H575    1.084   1_455 S
C422   C424    1.387   .     A
C422   C430    1.397   .     A
C422   H440    1.081   .     S
C423   H438    1.083   .     S
C424   H437    1.083   .     S
C425   C427    1.436   .     A
C425   C467    1.541   .     S
C426   C428    1.427   .     A
C426   C457    1.531   .     S
C427   C431    1.426   .     A
C427   C429    1.417   .     A
C428   C430    1.423   .     A
C428   C432    1.425   .     A
C429   C1025   1.401   .     S
C431   C1044   1.412   .     S
C432   C1043   1.412   1_554 S
Cu433  Cu434   2.679   .     S
Cu433  O449    1.955   .     S
Cu433  O456    1.916   .     S
Cu433  O452    1.950   .     S
Cu433  N448    2.013   .     S
Cu433  O453    1.933   .     S
Cu434  O455    1.916   .     S
Cu434  O451    1.950   .     S
Cu434  N447    2.013   .     S
Cu434  O450    1.955   .     S
Cu434  O454    1.933   .     S
H435   C481    1.083   .     S
H436   C1026   1.084   .     S
H439   C489    1.084   .     S
H444   C8      1.088   1_565 S
H445   N583    1.028   1_455 S
H446   N516    1.029   .     S
N447   H513    1.028   .     S
N447   N516    1.287   .     S
N448   H582    1.029   1_455 S
N448   N583    1.287   1_455 S
C457   H465    1.112   .     S
C457   C458    1.538   .     S
C457   H466    1.104   .     S
C458   H463    1.109   .     S
C458   C459    1.526   .     S
C458   H464    1.111   .     S
C459   H460    1.111   .     S
C459   H461    1.109   .     S
H462   C51     1.109   1_565 S
C467   H476    1.107   .     S
C467   C468    1.550   .     S
C467   H475    1.105   .     S
C468   H474    1.109   .     S
C468   H473    1.103   .     S
C468   C469    1.529   .     S
C469   H472    1.110   .     S
C469   H538    1.110   .     S
C469   H539    1.111   .     S
H470   C605    1.110   1_455 S
H471   C605    1.111   1_455 S
C477   O519    1.281   .     A
C477   C483    1.425   .     S
C477   O517    1.289   .     A
C478   O518    1.289   .     A
C478   O520    1.281   .     A
C478   C484    1.425   .     S
C479   C481    1.394   .     A
C479   C500    1.406   .     A
C479   H509    1.078   .     S
C480   H510    1.072   .     S
C480   C499    1.405   .     A
C480   C1094   1.387   .     S
C481   C1109   1.401   1_554 S
C482   C498    1.395   .     A
C482   C1092   1.387   1_554 S
C482   H1116   1.084   1_554 S
C483   C76     1.326   1_565 S
C483   H103    1.088   1_565 S
C485   O521    1.315   .     A
C485   C487    1.493   .     S
C485   O523    1.288   .     A
C486   O522    1.299   .     A
C486   C488    1.467   .     S
C486   O524    1.291   .     A
C487   C493    1.444   .     A
C487   C491    1.404   .     A
C488   C494    1.415   .     A
C488   C492    1.398   .     A
C489   C491    1.388   .     A
C489   C497    1.395   .     A
C490   C492    1.387   .     A
C490   C498    1.397   .     A
C490   H508    1.081   .     S
C491   H506    1.083   .     S
C492   H505    1.083   .     S
C493   C495    1.436   .     A
C493   C535    1.541   .     S
C494   C496    1.427   .     A
C494   C525    1.531   .     S
C495   C499    1.426   .     A
C495   C497    1.417   .     A
C496   C498    1.423   .     A
C496   C500    1.425   .     A
C497   C1093   1.401   .     S
C499   C1112   1.412   .     S
C500   C1111   1.412   1_554 S
Cu501  Cu502   2.679   .     S
Cu501  O517    1.955   .     S
Cu501  O524    1.916   .     S
Cu501  O520    1.950   .     S
Cu501  N516    2.013   .     S
Cu501  O521    1.933   .     S
Cu502  O523    1.916   .     S
Cu502  O519    1.950   .     S
Cu502  N515    2.013   .     S
Cu502  O518    1.955   .     S
Cu502  O522    1.933   .     S
H503   C549    1.083   .     S
H504   C1094   1.084   .     S
H507   C557    1.084   .     S
H512   C76     1.088   1_565 S
H514   N584    1.029   .     S
N515   H581    1.028   .     S
N515   N584    1.287   .     S
C525   H533    1.112   .     S
C525   C526    1.538   .     S
C525   H534    1.104   .     S
C526   H531    1.109   .     S
C526   C527    1.526   .     S
C526   H532    1.111   .     S
C527   H528    1.111   .     S
C527   H529    1.109   .     S
H530   C119    1.109   1_565 S
C535   H544    1.107   .     S
C535   C536    1.550   .     S
C535   H543    1.105   .     S
C536   H542    1.109   .     S
C536   H541    1.103   .     S
C536   C537    1.529   .     S
C537   H540    1.110   .     S
C537   H606    1.110   .     S
C537   H607    1.111   .     S
C545   O587    1.281   .     A
C545   C551    1.425   .     S
C545   O585    1.289   .     A
C546   O586    1.289   .     A
C546   O588    1.281   .     A
C546   C552    1.425   .     S
C547   C549    1.394   .     A
C547   C568    1.406   .     A
C547   H577    1.078   .     S
C548   H578    1.072   .     S
C548   C567    1.405   .     A
C548   C1162   1.387   .     S
C549   C1177   1.401   1_554 S
C550   C566    1.395   .     A
C550   C1160   1.387   1_554 S
C550   H1184   1.084   1_554 S
C551   C144    1.326   1_565 S
C551   H171    1.088   1_565 S
C553   O589    1.315   .     A
C553   C555    1.493   .     S
C553   O591    1.288   .     A
C554   O590    1.299   .     A
C554   C556    1.467   .     S
C554   O592    1.291   .     A
C555   C561    1.444   .     A
C555   C559    1.404   .     A
C556   C562    1.415   .     A
C556   C560    1.398   .     A
C557   C559    1.388   .     A
C557   C565    1.395   .     A
C558   C560    1.387   .     A
C558   C566    1.397   .     A
C558   H576    1.081   .     S
C559   H574    1.083   .     S
C560   H573    1.083   .     S
C561   C563    1.436   .     A
C561   C603    1.541   .     S
C562   C564    1.427   .     A
C562   C593    1.531   .     S
C563   C567    1.426   .     A
C563   C565    1.417   .     A
C564   C566    1.423   .     A
C564   C568    1.425   .     A
C565   C1161   1.401   .     S
C567   C1180   1.412   .     S
C568   C1179   1.412   1_554 S
Cu569  Cu570   2.679   .     S
Cu569  O585    1.955   .     S
Cu569  O592    1.916   .     S
Cu569  O588    1.950   .     S
Cu569  N584    2.013   .     S
Cu569  O589    1.933   .     S
Cu570  O591    1.916   .     S
Cu570  O587    1.950   .     S
Cu570  N583    2.013   .     S
Cu570  O586    1.955   .     S
Cu570  O590    1.933   .     S
H571   C413    1.083   1_655 S
H572   C1162   1.084   .     S
H575   C421    1.084   1_655 S
H580   C144    1.088   1_565 S
H582   N448    1.029   1_655 S
N583   H445    1.028   1_655 S
N583   N448    1.287   1_655 S
C593   H601    1.112   .     S
C593   C594    1.538   .     S
C593   H602    1.104   .     S
C594   H599    1.109   .     S
C594   C595    1.526   .     S
C594   H600    1.111   .     S
C595   H596    1.111   .     S
C595   H597    1.109   .     S
H598   C187    1.109   1_565 S
C603   H612    1.107   .     S
C603   C604    1.550   .     S
C603   H611    1.105   .     S
C604   H610    1.109   .     S
C604   H609    1.103   .     S
C604   C605    1.529   .     S
C605   H608    1.110   .     S
C605   H470    1.110   1_655 S
C605   H471    1.111   1_655 S
C613   O655    1.281   .     A
C613   C619    1.425   .     S
C613   O653    1.289   .     A
C614   O654    1.289   .     A
C614   O656    1.281   .     A
C614   C620    1.425   .     S
C615   C617    1.394   .     A
C615   C636    1.406   .     A
C615   H645    1.078   .     S
C616   H646    1.072   .     S
C616   C635    1.405   .     A
C616   C6      1.387   1_556 S
C617   H775    1.083   1_455 S
C618   C634    1.395   .     A
C619   C824    1.326   .     S
C619   H851    1.088   .     S
C620   C1027   1.326   1_545 S
C620   H1056   1.088   1_545 S
C621   O657    1.315   .     A
C621   C623    1.493   .     S
C621   O659    1.288   .     A
C622   O658    1.299   .     A
C622   C624    1.467   .     S
C622   O660    1.291   .     A
C623   C629    1.444   .     A
C623   C627    1.404   .     A
C624   C630    1.415   .     A
C624   C628    1.398   .     A
C625   C627    1.388   .     A
C625   C633    1.395   .     A
C625   H779    1.084   1_455 S
C626   C628    1.387   .     A
C626   C634    1.397   .     A
C626   H644    1.081   .     S
C627   H642    1.083   .     S
C628   H641    1.083   .     S
C629   C631    1.436   .     A
C629   C671    1.541   .     S
C630   C632    1.427   .     A
C630   C661    1.531   .     S
C631   C635    1.426   .     A
C631   C633    1.417   .     A
C632   C634    1.423   .     A
C632   C636    1.425   .     A
C633   C5      1.401   1_556 S
C635   C24     1.412   1_556 S
Cu637  Cu638   2.679   .     S
Cu637  O653    1.955   .     S
Cu637  O660    1.916   .     S
Cu637  O656    1.950   .     S
Cu637  N652    2.013   .     S
Cu637  O657    1.933   .     S
Cu638  O659    1.916   .     S
Cu638  O655    1.950   .     S
Cu638  N651    2.013   .     S
Cu638  O654    1.955   .     S
Cu638  O658    1.933   .     S
H639   C685    1.083   .     S
H640   C6      1.084   1_556 S
H643   C693    1.084   .     S
H647   C1027   1.088   1_545 S
H648   C824    1.088   .     S
H649   N787    1.028   1_455 S
H650   N720    1.029   .     S
N651   H717    1.028   .     S
N651   N720    1.287   .     S
N652   H786    1.029   1_455 S
N652   N787    1.287   1_455 S
C661   H669    1.112   .     S
C661   C662    1.538   .     S
C661   H670    1.104   .     S
C662   H667    1.109   .     S
C662   C663    1.526   .     S
C662   H668    1.111   .     S
C663   H664    1.111   .     S
C663   H665    1.109   .     S
C663   H1074   1.109   1_545 S
H666   C867    1.109   .     S
C671   H680    1.107   .     S
C671   C672    1.550   .     S
C671   H679    1.105   .     S
C672   H678    1.109   .     S
C672   H677    1.103   .     S
C672   C673    1.529   .     S
C673   H676    1.110   .     S
C673   H742    1.110   .     S
C673   H743    1.111   .     S
H674   C809    1.110   1_455 S
H675   C809    1.111   1_455 S
C681   O723    1.281   .     A
C681   C687    1.425   .     S
C681   O721    1.289   .     A
C682   O722    1.289   .     A
C682   O724    1.281   .     A
C682   C688    1.425   .     S
C683   C685    1.394   .     A
C683   C704    1.406   .     A
C683   H713    1.078   .     S
C684   H714    1.072   .     S
C684   C703    1.405   .     A
C684   C74     1.387   1_556 S
C686   C702    1.395   .     A
C687   C892    1.326   .     S
C687   H919    1.088   .     S
C688   C1095   1.326   1_545 S
C688   H1124   1.088   1_545 S
C689   O725    1.315   .     A
C689   C691    1.493   .     S
C689   O727    1.288   .     A
C690   O726    1.299   .     A
C690   C692    1.467   .     S
C690   O728    1.291   .     A
C691   C697    1.444   .     A
C691   C695    1.404   .     A
C692   C698    1.415   .     A
C692   C696    1.398   .     A
C693   C695    1.388   .     A
C693   C701    1.395   .     A
C694   C696    1.387   .     A
C694   C702    1.397   .     A
C694   H712    1.081   .     S
C695   H710    1.083   .     S
C696   H709    1.083   .     S
C697   C699    1.436   .     A
C697   C739    1.541   .     S
C698   C700    1.427   .     A
C698   C729    1.531   .     S
C699   C703    1.426   .     A
C699   C701    1.417   .     A
C700   C702    1.423   .     A
C700   C704    1.425   .     A
C701   C73     1.401   1_556 S
C703   C92     1.412   1_556 S
Cu705  Cu706   2.679   .     S
Cu705  O721    1.955   .     S
Cu705  O728    1.916   .     S
Cu705  O724    1.950   .     S
Cu705  N720    2.013   .     S
Cu705  O725    1.933   .     S
Cu706  O727    1.916   .     S
Cu706  O723    1.950   .     S
Cu706  N719    2.013   .     S
Cu706  O722    1.955   .     S
Cu706  O726    1.933   .     S
H707   C753    1.083   .     S
H708   C74     1.084   1_556 S
H711   C761    1.084   .     S
H715   C1095   1.088   1_545 S
H716   C892    1.088   .     S
H718   N788    1.029   .     S
N719   H785    1.028   .     S
N719   N788    1.287   .     S
C729   H737    1.112   .     S
C729   C730    1.538   .     S
C729   H738    1.104   .     S
C730   H735    1.109   .     S
C730   C731    1.526   .     S
C730   H736    1.111   .     S
C731   H732    1.111   .     S
C731   H733    1.109   .     S
C731   H1142   1.109   1_545 S
H734   C935    1.109   .     S
C739   H748    1.107   .     S
C739   C740    1.550   .     S
C739   H747    1.105   .     S
C740   H746    1.109   .     S
C740   H745    1.103   .     S
C740   C741    1.529   .     S
C741   H744    1.110   .     S
C741   H810    1.110   .     S
C741   H811    1.111   .     S
C749   O791    1.281   .     A
C749   C755    1.425   .     S
C749   O789    1.289   .     A
C750   O790    1.289   .     A
C750   O792    1.281   .     A
C750   C756    1.425   .     S
C751   C753    1.394   .     A
C751   C772    1.406   .     A
C751   H781    1.078   .     S
C752   H782    1.072   .     S
C752   C771    1.405   .     A
C752   C142    1.387   1_556 S
C754   C770    1.395   .     A
C755   C960    1.326   .     S
C755   H987    1.088   .     S
C756   C1163   1.326   1_545 S
C756   H1192   1.088   1_545 S
C757   O793    1.315   .     A
C757   C759    1.493   .     S
C757   O795    1.288   .     A
C758   O794    1.299   .     A
C758   C760    1.467   .     S
C758   O796    1.291   .     A
C759   C765    1.444   .     A
C759   C763    1.404   .     A
C760   C766    1.415   .     A
C760   C764    1.398   .     A
C761   C763    1.388   .     A
C761   C769    1.395   .     A
C762   C764    1.387   .     A
C762   C770    1.397   .     A
C762   H780    1.081   .     S
C763   H778    1.083   .     S
C764   H777    1.083   .     S
C765   C767    1.436   .     A
C765   C807    1.541   .     S
C766   C768    1.427   .     A
C766   C797    1.531   .     S
C767   C771    1.426   .     A
C767   C769    1.417   .     A
C768   C770    1.423   .     A
C768   C772    1.425   .     A
C769   C141    1.401   1_556 S
C771   C160    1.412   1_556 S
Cu773  Cu774   2.679   .     S
Cu773  O789    1.955   .     S
Cu773  O796    1.916   .     S
Cu773  O792    1.950   .     S
Cu773  N788    2.013   .     S
Cu773  O793    1.933   .     S
Cu774  O795    1.916   .     S
Cu774  O791    1.950   .     S
Cu774  N787    2.013   .     S
Cu774  O790    1.955   .     S
Cu774  O794    1.933   .     S
H775   C617    1.083   1_655 S
H776   C142    1.084   1_556 S
H779   C625    1.084   1_655 S
H783   C1163   1.088   1_545 S
H784   C960    1.088   .     S
H786   N652    1.029   1_655 S
N787   H649    1.028   1_655 S
N787   N652    1.287   1_655 S
C797   H805    1.112   .     S
C797   C798    1.538   .     S
C797   H806    1.104   .     S
C798   H803    1.109   .     S
C798   C799    1.526   .     S
C798   H804    1.111   .     S
C799   H800    1.111   .     S
C799   H801    1.109   .     S
C799   H1210   1.109   1_545 S
H802   C1003   1.109   .     S
C807   H816    1.107   .     S
C807   C808    1.550   .     S
C807   H815    1.105   .     S
C808   H814    1.109   .     S
C808   H813    1.103   .     S
C808   C809    1.529   .     S
C809   H812    1.110   .     S
C809   H674    1.110   1_655 S
C809   H675    1.111   1_655 S
C817   O859    1.281   .     A
C817   C823    1.425   .     S
C817   O857    1.289   .     A
C818   O858    1.289   .     A
C818   O860    1.281   .     A
C818   C824    1.425   .     S
C819   C821    1.394   .     A
C819   C840    1.406   .     A
C819   H849    1.078   .     S
C820   H850    1.072   .     S
C820   C839    1.405   .     A
C820   C210    1.387   1_556 S
C821   H979    1.083   1_455 S
C822   C838    1.395   .     A
C823   C1028   1.326   .     S
C823   H1055   1.088   .     S
C825   O861    1.315   .     A
C825   C827    1.493   .     S
C825   O863    1.288   .     A
C826   O862    1.299   .     A
C826   C828    1.467   .     S
C826   O864    1.291   .     A
C827   C833    1.444   .     A
C827   C831    1.404   .     A
C828   C834    1.415   .     A
C828   C832    1.398   .     A
C829   C831    1.388   .     A
C829   C837    1.395   .     A
C829   H983    1.084   1_455 S
C830   C832    1.387   .     A
C830   C838    1.397   .     A
C830   H848    1.081   .     S
C831   H846    1.083   .     S
C832   H845    1.083   .     S
C833   C835    1.436   .     A
C833   C875    1.541   .     S
C834   C836    1.427   .     A
C834   C865    1.531   .     S
C835   C839    1.426   .     A
C835   C837    1.417   .     A
C836   C838    1.423   .     A
C836   C840    1.425   .     A
C837   C209    1.401   1_556 S
C839   C228    1.412   1_556 S
Cu841  Cu842   2.679   .     S
Cu841  O857    1.955   .     S
Cu841  O864    1.916   .     S
Cu841  O860    1.950   .     S
Cu841  N856    2.013   .     S
Cu841  O861    1.933   .     S
Cu842  O863    1.916   .     S
Cu842  O859    1.950   .     S
Cu842  N855    2.013   .     S
Cu842  O858    1.955   .     S
Cu842  O862    1.933   .     S
H843   C889    1.083   .     S
H844   C210    1.084   1_556 S
H847   C897    1.084   .     S
H852   C1028   1.088   .     S
H853   N991    1.028   1_455 S
H854   N924    1.029   .     S
N855   H921    1.028   .     S
N855   N924    1.287   .     S
N856   H990    1.029   1_455 S
N856   N991    1.287   1_455 S
C865   H873    1.112   .     S
C865   C866    1.538   .     S
C865   H874    1.104   .     S
C866   H871    1.109   .     S
C866   C867    1.526   .     S
C866   H872    1.111   .     S
C867   H868    1.111   .     S
C867   H869    1.109   .     S
H870   C1071   1.109   .     S
C875   H884    1.107   .     S
C875   C876    1.550   .     S
C875   H883    1.105   .     S
C876   H882    1.109   .     S
C876   H881    1.103   .     S
C876   C877    1.529   .     S
C877   H880    1.110   .     S
C877   H946    1.110   .     S
C877   H947    1.111   .     S
H878   C1013   1.110   1_455 S
H879   C1013   1.111   1_455 S
C885   O927    1.281   .     A
C885   C891    1.425   .     S
C885   O925    1.289   .     A
C886   O926    1.289   .     A
C886   O928    1.281   .     A
C886   C892    1.425   .     S
C887   C889    1.394   .     A
C887   C908    1.406   .     A
C887   H917    1.078   .     S
C888   H918    1.072   .     S
C888   C907    1.405   .     A
C888   C278    1.387   1_556 S
C890   C906    1.395   .     A
C891   C1096   1.326   .     S
C891   H1123   1.088   .     S
C893   O929    1.315   .     A
C893   C895    1.493   .     S
C893   O931    1.288   .     A
C894   O930    1.299   .     A
C894   C896    1.467   .     S
C894   O932    1.291   .     A
C895   C901    1.444   .     A
C895   C899    1.404   .     A
C896   C902    1.415   .     A
C896   C900    1.398   .     A
C897   C899    1.388   .     A
C897   C905    1.395   .     A
C898   C900    1.387   .     A
C898   C906    1.397   .     A
C898   H916    1.081   .     S
C899   H914    1.083   .     S
C900   H913    1.083   .     S
C901   C903    1.436   .     A
C901   C943    1.541   .     S
C902   C904    1.427   .     A
C902   C933    1.531   .     S
C903   C907    1.426   .     A
C903   C905    1.417   .     A
C904   C906    1.423   .     A
C904   C908    1.425   .     A
C905   C277    1.401   1_556 S
C907   C296    1.412   1_556 S
Cu909  Cu910   2.679   .     S
Cu909  O925    1.955   .     S
Cu909  O932    1.916   .     S
Cu909  O928    1.950   .     S
Cu909  N924    2.013   .     S
Cu909  O929    1.933   .     S
Cu910  O931    1.916   .     S
Cu910  O927    1.950   .     S
Cu910  N923    2.013   .     S
Cu910  O926    1.955   .     S
Cu910  O930    1.933   .     S
H911   C957    1.083   .     S
H912   C278    1.084   1_556 S
H915   C965    1.084   .     S
H920   C1096   1.088   .     S
H922   N992    1.029   .     S
N923   H989    1.028   .     S
N923   N992    1.287   .     S
C933   H941    1.112   .     S
C933   C934    1.538   .     S
C933   H942    1.104   .     S
C934   H939    1.109   .     S
C934   C935    1.526   .     S
C934   H940    1.111   .     S
C935   H936    1.111   .     S
C935   H937    1.109   .     S
H938   C1139   1.109   .     S
C943   H952    1.107   .     S
C943   C944    1.550   .     S
C943   H951    1.105   .     S
C944   H950    1.109   .     S
C944   H949    1.103   .     S
C944   C945    1.529   .     S
C945   H948    1.110   .     S
C945   H1014   1.110   .     S
C945   H1015   1.111   .     S
C953   O995    1.281   .     A
C953   C959    1.425   .     S
C953   O993    1.289   .     A
C954   O994    1.289   .     A
C954   O996    1.281   .     A
C954   C960    1.425   .     S
C955   C957    1.394   .     A
C955   C976    1.406   .     A
C955   H985    1.078   .     S
C956   H986    1.072   .     S
C956   C975    1.405   .     A
C956   C346    1.387   1_556 S
C958   C974    1.395   .     A
C959   C1164   1.326   .     S
C959   H1191   1.088   .     S
C961   O997    1.315   .     A
C961   C963    1.493   .     S
C961   O999    1.288   .     A
C962   O998    1.299   .     A
C962   C964    1.467   .     S
C962   O1000   1.291   .     A
C963   C969    1.444   .     A
C963   C967    1.404   .     A
C964   C970    1.415   .     A
C964   C968    1.398   .     A
C965   C967    1.388   .     A
C965   C973    1.395   .     A
C966   C968    1.387   .     A
C966   C974    1.397   .     A
C966   H984    1.081   .     S
C967   H982    1.083   .     S
C968   H981    1.083   .     S
C969   C971    1.436   .     A
C969   C1011   1.541   .     S
C970   C972    1.427   .     A
C970   C1001   1.531   .     S
C971   C975    1.426   .     A
C971   C973    1.417   .     A
C972   C974    1.423   .     A
C972   C976    1.425   .     A
C973   C345    1.401   1_556 S
C975   C364    1.412   1_556 S
Cu977  Cu978   2.679   .     S
Cu977  O993    1.955   .     S
Cu977  O1000   1.916   .     S
Cu977  O996    1.950   .     S
Cu977  N992    2.013   .     S
Cu977  O997    1.933   .     S
Cu978  O999    1.916   .     S
Cu978  O995    1.950   .     S
Cu978  N991    2.013   .     S
Cu978  O994    1.955   .     S
Cu978  O998    1.933   .     S
H979   C821    1.083   1_655 S
H980   C346    1.084   1_556 S
H983   C829    1.084   1_655 S
H988   C1164   1.088   .     S
H990   N856    1.029   1_655 S
N991   H853    1.028   1_655 S
N991   N856    1.287   1_655 S
C1001  H1009   1.112   .     S
C1001  C1002   1.538   .     S
C1001  H1010   1.104   .     S
C1002  H1007   1.109   .     S
C1002  C1003   1.526   .     S
C1002  H1008   1.111   .     S
C1003  H1004   1.111   .     S
C1003  H1005   1.109   .     S
H1006  C1207   1.109   .     S
C1011  H1020   1.107   .     S
C1011  C1012   1.550   .     S
C1011  H1019   1.105   .     S
C1012  H1018   1.109   .     S
C1012  H1017   1.103   .     S
C1012  C1013   1.529   .     S
C1013  H1016   1.110   .     S
C1013  H878    1.110   1_655 S
C1013  H879    1.111   1_655 S
C1021  O1063   1.281   .     A
C1021  C1027   1.425   .     S
C1021  O1061   1.289   .     A
C1022  O1062   1.289   .     A
C1022  O1064   1.281   .     A
C1022  C1028   1.425   .     S
C1023  C1025   1.394   .     A
C1023  C1044   1.406   .     A
C1023  H1053   1.078   .     S
C1024  H1054   1.072   .     S
C1024  C1043   1.405   .     A
C1024  C414    1.387   1_556 S
C1025  H1183   1.083   1_455 S
C1026  C1042   1.395   .     A
C1027  C620    1.326   1_565 S
C1027  H647    1.088   1_565 S
C1029  O1065   1.315   .     A
C1029  C1031   1.493   .     S
C1029  O1067   1.288   .     A
C1030  O1066   1.299   .     A
C1030  C1032   1.467   .     S
C1030  O1068   1.291   .     A
C1031  C1037   1.444   .     A
C1031  C1035   1.404   .     A
C1032  C1038   1.415   .     A
C1032  C1036   1.398   .     A
C1033  C1035   1.388   .     A
C1033  C1041   1.395   .     A
C1033  H1187   1.084   1_455 S
C1034  C1036   1.387   .     A
C1034  C1042   1.397   .     A
C1034  H1052   1.081   .     S
C1035  H1050   1.083   .     S
C1036  H1049   1.083   .     S
C1037  C1039   1.436   .     A
C1037  C1079   1.541   .     S
C1038  C1040   1.427   .     A
C1038  C1069   1.531   .     S
C1039  C1043   1.426   .     A
C1039  C1041   1.417   .     A
C1040  C1042   1.423   .     A
C1040  C1044   1.425   .     A
C1041  C413    1.401   1_556 S
C1043  C432    1.412   1_556 S
Cu1045 Cu1046  2.679   .     S
Cu1045 O1061   1.955   .     S
Cu1045 O1068   1.916   .     S
Cu1045 O1064   1.950   .     S
Cu1045 N1060   2.013   .     S
Cu1045 O1065   1.933   .     S
Cu1046 O1067   1.916   .     S
Cu1046 O1063   1.950   .     S
Cu1046 N1059   2.013   .     S
Cu1046 O1062   1.955   .     S
Cu1046 O1066   1.933   .     S
H1047  C1093   1.083   .     S
H1048  C414    1.084   1_556 S
H1051  C1101   1.084   .     S
H1056  C620    1.088   1_565 S
H1057  N1195   1.028   1_455 S
H1058  N1128   1.029   .     S
N1059  H1125   1.028   .     S
N1059  N1128   1.287   .     S
N1060  H1194   1.029   1_455 S
N1060  N1195   1.287   1_455 S
C1069  H1077   1.112   .     S
C1069  C1070   1.538   .     S
C1069  H1078   1.104   .     S
C1070  H1075   1.109   .     S
C1070  C1071   1.526   .     S
C1070  H1076   1.111   .     S
C1071  H1072   1.111   .     S
C1071  H1073   1.109   .     S
H1074  C663    1.109   1_565 S
C1079  H1088   1.107   .     S
C1079  C1080   1.550   .     S
C1079  H1087   1.105   .     S
C1080  H1086   1.109   .     S
C1080  H1085   1.103   .     S
C1080  C1081   1.529   .     S
C1081  H1084   1.110   .     S
C1081  H1150   1.110   .     S
C1081  H1151   1.111   .     S
H1082  C1217   1.110   1_455 S
H1083  C1217   1.111   1_455 S
C1089  O1131   1.281   .     A
C1089  C1095   1.425   .     S
C1089  O1129   1.289   .     A
C1090  O1130   1.289   .     A
C1090  O1132   1.281   .     A
C1090  C1096   1.425   .     S
C1091  C1093   1.394   .     A
C1091  C1112   1.406   .     A
C1091  H1121   1.078   .     S
C1092  H1122   1.072   .     S
C1092  C1111   1.405   .     A
C1092  C482    1.387   1_556 S
C1094  C1110   1.395   .     A
C1095  C688    1.326   1_565 S
C1095  H715    1.088   1_565 S
C1097  O1133   1.315   .     A
C1097  C1099   1.493   .     S
C1097  O1135   1.288   .     A
C1098  O1134   1.299   .     A
C1098  C1100   1.467   .     S
C1098  O1136   1.291   .     A
C1099  C1105   1.444   .     A
C1099  C1103   1.404   .     A
C1100  C1106   1.415   .     A
C1100  C1104   1.398   .     A
C1101  C1103   1.388   .     A
C1101  C1109   1.395   .     A
C1102  C1104   1.387   .     A
C1102  C1110   1.397   .     A
C1102  H1120   1.081   .     S
C1103  H1118   1.083   .     S
C1104  H1117   1.083   .     S
C1105  C1107   1.436   .     A
C1105  C1147   1.541   .     S
C1106  C1108   1.427   .     A
C1106  C1137   1.531   .     S
C1107  C1111   1.426   .     A
C1107  C1109   1.417   .     A
C1108  C1110   1.423   .     A
C1108  C1112   1.425   .     A
C1109  C481    1.401   1_556 S
C1111  C500    1.412   1_556 S
Cu1113 Cu1114  2.679   .     S
Cu1113 O1129   1.955   .     S
Cu1113 O1136   1.916   .     S
Cu1113 O1132   1.950   .     S
Cu1113 N1128   2.013   .     S
Cu1113 O1133   1.933   .     S
Cu1114 O1135   1.916   .     S
Cu1114 O1131   1.950   .     S
Cu1114 N1127   2.013   .     S
Cu1114 O1130   1.955   .     S
Cu1114 O1134   1.933   .     S
H1115  C1161   1.083   .     S
H1116  C482    1.084   1_556 S
H1119  C1169   1.084   .     S
H1124  C688    1.088   1_565 S
H1126  N1196   1.029   .     S
N1127  H1193   1.028   .     S
N1127  N1196   1.287   .     S
C1137  H1145   1.112   .     S
C1137  C1138   1.538   .     S
C1137  H1146   1.104   .     S
C1138  H1143   1.109   .     S
C1138  C1139   1.526   .     S
C1138  H1144   1.111   .     S
C1139  H1140   1.111   .     S
C1139  H1141   1.109   .     S
H1142  C731    1.109   1_565 S
C1147  H1156   1.107   .     S
C1147  C1148   1.550   .     S
C1147  H1155   1.105   .     S
C1148  H1154   1.109   .     S
C1148  H1153   1.103   .     S
C1148  C1149   1.529   .     S
C1149  H1152   1.110   .     S
C1149  H1218   1.110   .     S
C1149  H1219   1.111   .     S
C1157  O1199   1.281   .     A
C1157  C1163   1.425   .     S
C1157  O1197   1.289   .     A
C1158  O1198   1.289   .     A
C1158  O1200   1.281   .     A
C1158  C1164   1.425   .     S
C1159  C1161   1.394   .     A
C1159  C1180   1.406   .     A
C1159  H1189   1.078   .     S
C1160  H1190   1.072   .     S
C1160  C1179   1.405   .     A
C1160  C550    1.387   1_556 S
C1162  C1178   1.395   .     A
C1163  C756    1.326   1_565 S
C1163  H783    1.088   1_565 S
C1165  O1201   1.315   .     A
C1165  C1167   1.493   .     S
C1165  O1203   1.288   .     A
C1166  O1202   1.299   .     A
C1166  C1168   1.467   .     S
C1166  O1204   1.291   .     A
C1167  C1173   1.444   .     A
C1167  C1171   1.404   .     A
C1168  C1174   1.415   .     A
C1168  C1172   1.398   .     A
C1169  C1171   1.388   .     A
C1169  C1177   1.395   .     A
C1170  C1172   1.387   .     A
C1170  C1178   1.397   .     A
C1170  H1188   1.081   .     S
C1171  H1186   1.083   .     S
C1172  H1185   1.083   .     S
C1173  C1175   1.436   .     A
C1173  C1215   1.541   .     S
C1174  C1176   1.427   .     A
C1174  C1205   1.531   .     S
C1175  C1179   1.426   .     A
C1175  C1177   1.417   .     A
C1176  C1178   1.423   .     A
C1176  C1180   1.425   .     A
C1177  C549    1.401   1_556 S
C1179  C568    1.412   1_556 S
Cu1181 Cu1182  2.679   .     S
Cu1181 O1197   1.955   .     S
Cu1181 O1204   1.916   .     S
Cu1181 O1200   1.950   .     S
Cu1181 N1196   2.013   .     S
Cu1181 O1201   1.933   .     S
Cu1182 O1203   1.916   .     S
Cu1182 O1199   1.950   .     S
Cu1182 N1195   2.013   .     S
Cu1182 O1198   1.955   .     S
Cu1182 O1202   1.933   .     S
H1183  C1025   1.083   1_655 S
H1184  C550    1.084   1_556 S
H1187  C1033   1.084   1_655 S
H1192  C756    1.088   1_565 S
H1194  N1060   1.029   1_655 S
N1195  H1057   1.028   1_655 S
N1195  N1060   1.287   1_655 S
C1205  H1213   1.112   .     S
C1205  C1206   1.538   .     S
C1205  H1214   1.104   .     S
C1206  H1211   1.109   .     S
C1206  C1207   1.526   .     S
C1206  H1212   1.111   .     S
C1207  H1208   1.111   .     S
C1207  H1209   1.109   .     S
H1210  C799    1.109   1_565 S
C1215  H1224   1.107   .     S
C1215  C1216   1.550   .     S
C1215  H1223   1.105   .     S
C1216  H1222   1.109   .     S
C1216  H1221   1.103   .     S
C1216  C1217   1.529   .     S
C1217  H1220   1.110   .     S
C1217  H1082   1.110   1_655 S
C1217  H1083   1.111   1_655 S
