data_str_m3_o1_o16_pcu_sym.141
_audit_creation_date              2020-01-03
_audit_creation_method            'Materials Studio'
_symmetry_space_group_name_H-M    'P1'
_symmetry_Int_Tables_number       1
_symmetry_cell_setting            triclinic
loop_
_symmetry_equiv_pos_as_xyz
  x,y,z
_cell_length_a                    29.5717
_cell_length_b                    32.1182
_cell_length_c                    26.2527
_cell_angle_alpha                 90.2496
_cell_angle_beta                  69.5463
_cell_angle_gamma                 89.7214
loop_
_atom_site_label
_atom_site_type_symbol
_atom_site_fract_x
_atom_site_fract_y
_atom_site_fract_z
_atom_site_U_iso_or_equiv
_atom_site_adp_type
_atom_site_occupancy
C1     C     0.16658   0.24669   0.25012   0.00000  Uiso   1.00
C2     C     0.14429   0.15464   0.49205   0.00000  Uiso   1.00
C3     C     0.15496   0.14472   0.43690   0.00000  Uiso   1.00
C4     C     0.18172   0.15144   0.01370   0.00000  Uiso   1.00
C5     C     0.22632   0.13181   0.48356   0.00000  Uiso   1.00
C6     C     0.23351   0.11582   0.43156   0.00000  Uiso   1.00
C7     C     0.19758   0.12204   0.40890   0.00000  Uiso   1.00
C8     C     0.17621   0.16850   0.06428   0.00000  Uiso   1.00
C9     C     0.25400   0.14176   0.05973   0.00000  Uiso   1.00
C10    C     0.12280   0.15830   0.41110   0.00000  Uiso   1.00
C11    C     0.20212   0.31192   0.26360   0.00000  Uiso   1.00
C12    C     0.13996   0.16377   0.35210   0.00000  Uiso   1.00
C13    C     0.20231   0.02124   0.26334   0.00000  Uiso   1.00
C14    C     0.16692   0.04251   0.24965   0.00000  Uiso   1.00
C15    C     0.13144   0.02145   0.23602   0.00000  Uiso   1.00
C16    C     0.13128   0.31213   0.23623   0.00000  Uiso   1.00
C17    C     0.16658   0.29085   0.25008   0.00000  Uiso   1.00
C18    C     0.31832   0.13668   0.22162   0.00000  Uiso   1.00
C19    C     0.03329   0.13732   0.22140   0.00000  Uiso   1.00
C20    C     0.01450   0.19559   0.27978   0.00000  Uiso   1.00
C21    C     0.30011   0.19593   0.27867   0.00000  Uiso   1.00
C22    C     0.16679   0.08665   0.24982   0.00000  Uiso   1.00
C23    C     0.19354   0.16655   0.14767   0.00000  Uiso   1.00
C24    C     0.26258   0.12801   0.00669   0.00000  Uiso   1.00
C25    C     0.20998   0.16099   0.08898   0.00000  Uiso   1.00
C26    C     0.07611   0.17155   0.44249   0.00000  Uiso   1.00
C27    C     0.06260   0.17456   0.49860   0.00000  Uiso   1.00
C28    C     0.09656   0.16736   0.02330   0.00000  Uiso   1.00
H29    H     0.28076   0.13590   0.07836   0.00000  Uiso   1.00
H30    H     0.22969   0.03745   0.27431   0.00000  Uiso   1.00
H31    H     0.10416   0.03782   0.22488   0.00000  Uiso   1.00
H32    H     0.10400   0.29594   0.22510   0.00000  Uiso   1.00
H33    H     0.05970   0.11466   0.19829   0.00000  Uiso   1.00
H34    H     0.27445   0.21942   0.30105   0.00000  Uiso   1.00
H35    H     0.29685   0.11308   0.48473   0.00000  Uiso   1.00
H36    H     0.14477   0.18692   0.08630   0.00000  Uiso   1.00
H37    H     0.05052   0.18059   0.42360   0.00000  Uiso   1.00
H38    H     0.08418   0.17082   0.06695   0.00000  Uiso   1.00
H39    H     0.02630   0.18432   0.02281   0.00000  Uiso   1.00
H40    H     0.20296   0.10835   0.36947   0.00000  Uiso   1.00
H41    H     0.22942   0.29555   0.27471   0.00000  Uiso   1.00
N42    N     0.04760   0.16668   0.25002   0.00000  Uiso   1.00
N43    N     0.28573   0.16665   0.25000   0.00000  Uiso   1.00
O44    O     0.12846   0.22775   0.25001   0.00000  Uiso   1.00
O45    O     0.20490   0.22774   0.25000   0.00000  Uiso   1.00
O46    O     0.10947   0.16666   0.32681   0.00000  Uiso   1.00
O47    O     0.18591   0.16665   0.32681   0.00000  Uiso   1.00
O48    O     0.12843   0.10559   0.24999   0.00000  Uiso   1.00
O49    O     0.20488   0.10558   0.24999   0.00000  Uiso   1.00
O50    O     0.14742   0.16668   0.17319   0.00000  Uiso   1.00
O51    O     0.22387   0.16667   0.17319   0.00000  Uiso   1.00
Zn52   Zn    0.11562   0.16667   0.25000   0.00000  Uiso   1.00
Zn53   Zn    0.21771   0.16666   0.25000   0.00000  Uiso   1.00
N54    N     0.30309   0.10570   0.19215   0.00000  Uiso   1.00
H55    H     0.29005   0.11722   0.16348   0.00000  Uiso   1.00
C56    C     0.33002   0.06711   0.17687   0.00000  Uiso   1.00
H57    H     0.30851   0.04440   0.16300   0.00000  Uiso   1.00
H58    H     0.00365   0.05356   0.21232   0.00000  Uiso   1.00
H59    H     0.03122   0.07246   0.14292   0.00000  Uiso   1.00
N60    N     0.02850   0.22559   0.31114   0.00000  Uiso   1.00
H61    H     0.03428   0.25452   0.29325   0.00000  Uiso   1.00
C62    C     0.33209   0.22763   0.36813   0.00000  Uiso   1.00
H63    H     0.29748   0.24393   0.37359   0.00000  Uiso   1.00
H64    H     0.01804   0.24529   0.39064   0.00000  Uiso   1.00
H65    H     0.32441   0.19585   0.38550   0.00000  Uiso   1.00
O66    O     0.27596   0.09497   0.40325   0.00000  Uiso   1.00
H67    H     0.27558   0.08664   0.36697   0.00000  Uiso   1.00
C68    C     0.49991   0.24669   0.25012   0.00000  Uiso   1.00
C69    C     0.47762   0.15464   0.49205   0.00000  Uiso   1.00
C70    C     0.48829   0.14472   0.43690   0.00000  Uiso   1.00
C71    C     0.51505   0.15144   0.01370   0.00000  Uiso   1.00
C72    C     0.55966   0.13181   0.48356   0.00000  Uiso   1.00
C73    C     0.56684   0.11582   0.43156   0.00000  Uiso   1.00
C74    C     0.53091   0.12204   0.40890   0.00000  Uiso   1.00
C75    C     0.50954   0.16850   0.06428   0.00000  Uiso   1.00
C76    C     0.58733   0.14176   0.05973   0.00000  Uiso   1.00
C77    C     0.45613   0.15830   0.41110   0.00000  Uiso   1.00
C78    C     0.53546   0.31192   0.26360   0.00000  Uiso   1.00
C79    C     0.47329   0.16377   0.35210   0.00000  Uiso   1.00
C80    C     0.53565   0.02124   0.26334   0.00000  Uiso   1.00
C81    C     0.50025   0.04251   0.24965   0.00000  Uiso   1.00
C82    C     0.46477   0.02145   0.23602   0.00000  Uiso   1.00
C83    C     0.46461   0.31213   0.23623   0.00000  Uiso   1.00
C84    C     0.49991   0.29085   0.25008   0.00000  Uiso   1.00
C85    C     0.65165   0.13668   0.22162   0.00000  Uiso   1.00
C86    C     0.36663   0.13732   0.22140   0.00000  Uiso   1.00
C87    C     0.34783   0.19559   0.27978   0.00000  Uiso   1.00
C88    C     0.63345   0.19593   0.27867   0.00000  Uiso   1.00
C89    C     0.50012   0.08665   0.24982   0.00000  Uiso   1.00
C90    C     0.52687   0.16655   0.14767   0.00000  Uiso   1.00
C91    C     0.59592   0.12801   0.00669   0.00000  Uiso   1.00
C92    C     0.54332   0.16099   0.08898   0.00000  Uiso   1.00
C93    C     0.40944   0.17155   0.44249   0.00000  Uiso   1.00
C94    C     0.39593   0.17456   0.49860   0.00000  Uiso   1.00
C95    C     0.42989   0.16736   0.02330   0.00000  Uiso   1.00
H96    H     0.61409   0.13590   0.07836   0.00000  Uiso   1.00
H97    H     0.56302   0.03745   0.27431   0.00000  Uiso   1.00
H98    H     0.43749   0.03782   0.22488   0.00000  Uiso   1.00
H99    H     0.43734   0.29594   0.22510   0.00000  Uiso   1.00
H100   H     0.39303   0.11466   0.19829   0.00000  Uiso   1.00
H101   H     0.60778   0.21942   0.30105   0.00000  Uiso   1.00
H102   H     0.63018   0.11308   0.48473   0.00000  Uiso   1.00
H103   H     0.47810   0.18692   0.08630   0.00000  Uiso   1.00
H104   H     0.38385   0.18059   0.42360   0.00000  Uiso   1.00
H105   H     0.41751   0.17082   0.06695   0.00000  Uiso   1.00
H106   H     0.35964   0.18432   0.02281   0.00000  Uiso   1.00
H107   H     0.53629   0.10835   0.36947   0.00000  Uiso   1.00
H108   H     0.56275   0.29555   0.27471   0.00000  Uiso   1.00
N109   N     0.38093   0.16668   0.25002   0.00000  Uiso   1.00
N110   N     0.61906   0.16665   0.25000   0.00000  Uiso   1.00
O111   O     0.46179   0.22775   0.25001   0.00000  Uiso   1.00
O112   O     0.53823   0.22774   0.25000   0.00000  Uiso   1.00
O113   O     0.44280   0.16666   0.32681   0.00000  Uiso   1.00
O114   O     0.51924   0.16665   0.32681   0.00000  Uiso   1.00
O115   O     0.46177   0.10559   0.24999   0.00000  Uiso   1.00
O116   O     0.53821   0.10558   0.24999   0.00000  Uiso   1.00
O117   O     0.48076   0.16668   0.17319   0.00000  Uiso   1.00
O118   O     0.55720   0.16667   0.17319   0.00000  Uiso   1.00
Zn119  Zn    0.44896   0.16667   0.25000   0.00000  Uiso   1.00
Zn120  Zn    0.55104   0.16666   0.25000   0.00000  Uiso   1.00
N121   N     0.63642   0.10570   0.19215   0.00000  Uiso   1.00
H122   H     0.62338   0.11722   0.16348   0.00000  Uiso   1.00
C123   C     0.66335   0.06711   0.17687   0.00000  Uiso   1.00
H124   H     0.64185   0.04440   0.16300   0.00000  Uiso   1.00
H125   H     0.33698   0.05356   0.21232   0.00000  Uiso   1.00
H126   H     0.36456   0.07246   0.14292   0.00000  Uiso   1.00
N127   N     0.36183   0.22559   0.31114   0.00000  Uiso   1.00
H128   H     0.36761   0.25452   0.29325   0.00000  Uiso   1.00
C129   C     0.66542   0.22763   0.36813   0.00000  Uiso   1.00
H130   H     0.63081   0.24393   0.37359   0.00000  Uiso   1.00
H131   H     0.35138   0.24529   0.39064   0.00000  Uiso   1.00
H132   H     0.65774   0.19585   0.38550   0.00000  Uiso   1.00
O133   O     0.60929   0.09497   0.40325   0.00000  Uiso   1.00
H134   H     0.60891   0.08664   0.36697   0.00000  Uiso   1.00
C135   C     0.83325   0.24669   0.25012   0.00000  Uiso   1.00
C136   C     0.81095   0.15464   0.49205   0.00000  Uiso   1.00
C137   C     0.82162   0.14472   0.43690   0.00000  Uiso   1.00
C138   C     0.84838   0.15144   0.01370   0.00000  Uiso   1.00
C139   C     0.89299   0.13181   0.48356   0.00000  Uiso   1.00
C140   C     0.90017   0.11582   0.43156   0.00000  Uiso   1.00
C141   C     0.86425   0.12204   0.40890   0.00000  Uiso   1.00
C142   C     0.84288   0.16850   0.06428   0.00000  Uiso   1.00
C143   C     0.92067   0.14176   0.05973   0.00000  Uiso   1.00
C144   C     0.78947   0.15830   0.41110   0.00000  Uiso   1.00
C145   C     0.86879   0.31192   0.26360   0.00000  Uiso   1.00
C146   C     0.80663   0.16377   0.35210   0.00000  Uiso   1.00
C147   C     0.86898   0.02124   0.26334   0.00000  Uiso   1.00
C148   C     0.83358   0.04251   0.24965   0.00000  Uiso   1.00
C149   C     0.79810   0.02145   0.23602   0.00000  Uiso   1.00
C150   C     0.79795   0.31213   0.23623   0.00000  Uiso   1.00
C151   C     0.83325   0.29085   0.25008   0.00000  Uiso   1.00
C152   C     0.98498   0.13668   0.22162   0.00000  Uiso   1.00
C153   C     0.69996   0.13732   0.22140   0.00000  Uiso   1.00
C154   C     0.68117   0.19559   0.27978   0.00000  Uiso   1.00
C155   C     0.96678   0.19593   0.27867   0.00000  Uiso   1.00
C156   C     0.83345   0.08665   0.24982   0.00000  Uiso   1.00
C157   C     0.86020   0.16655   0.14767   0.00000  Uiso   1.00
C158   C     0.92925   0.12801   0.00669   0.00000  Uiso   1.00
C159   C     0.87665   0.16099   0.08898   0.00000  Uiso   1.00
C160   C     0.74278   0.17155   0.44249   0.00000  Uiso   1.00
C161   C     0.72926   0.17456   0.49860   0.00000  Uiso   1.00
C162   C     0.76322   0.16736   0.02330   0.00000  Uiso   1.00
H163   H     0.94743   0.13590   0.07836   0.00000  Uiso   1.00
H164   H     0.89635   0.03745   0.27431   0.00000  Uiso   1.00
H165   H     0.77082   0.03782   0.22488   0.00000  Uiso   1.00
H166   H     0.77067   0.29594   0.22510   0.00000  Uiso   1.00
H167   H     0.72636   0.11466   0.19829   0.00000  Uiso   1.00
H168   H     0.94111   0.21942   0.30105   0.00000  Uiso   1.00
H169   H     0.96351   0.11308   0.48473   0.00000  Uiso   1.00
H170   H     0.81143   0.18692   0.08630   0.00000  Uiso   1.00
H171   H     0.71718   0.18059   0.42360   0.00000  Uiso   1.00
H172   H     0.75085   0.17082   0.06695   0.00000  Uiso   1.00
H173   H     0.69297   0.18432   0.02281   0.00000  Uiso   1.00
H174   H     0.86962   0.10835   0.36947   0.00000  Uiso   1.00
H175   H     0.89608   0.29555   0.27471   0.00000  Uiso   1.00
N176   N     0.71426   0.16668   0.25002   0.00000  Uiso   1.00
N177   N     0.95239   0.16665   0.25000   0.00000  Uiso   1.00
O178   O     0.79512   0.22775   0.25001   0.00000  Uiso   1.00
O179   O     0.87157   0.22774   0.25000   0.00000  Uiso   1.00
O180   O     0.77613   0.16666   0.32681   0.00000  Uiso   1.00
O181   O     0.85258   0.16665   0.32681   0.00000  Uiso   1.00
O182   O     0.79510   0.10559   0.24999   0.00000  Uiso   1.00
O183   O     0.87154   0.10558   0.24999   0.00000  Uiso   1.00
O184   O     0.81409   0.16668   0.17319   0.00000  Uiso   1.00
O185   O     0.89053   0.16667   0.17319   0.00000  Uiso   1.00
Zn186  Zn    0.78229   0.16667   0.25000   0.00000  Uiso   1.00
Zn187  Zn    0.88438   0.16666   0.25000   0.00000  Uiso   1.00
N188   N     0.96976   0.10570   0.19215   0.00000  Uiso   1.00
H189   H     0.95671   0.11722   0.16348   0.00000  Uiso   1.00
C190   C     0.99668   0.06711   0.17687   0.00000  Uiso   1.00
H191   H     0.97518   0.04440   0.16300   0.00000  Uiso   1.00
H192   H     0.67031   0.05356   0.21232   0.00000  Uiso   1.00
H193   H     0.69789   0.07246   0.14292   0.00000  Uiso   1.00
N194   N     0.69517   0.22559   0.31114   0.00000  Uiso   1.00
H195   H     0.70094   0.25452   0.29325   0.00000  Uiso   1.00
C196   C     0.99876   0.22763   0.36813   0.00000  Uiso   1.00
H197   H     0.96414   0.24393   0.37359   0.00000  Uiso   1.00
H198   H     0.68471   0.24529   0.39064   0.00000  Uiso   1.00
H199   H     0.99108   0.19585   0.38550   0.00000  Uiso   1.00
O200   O     0.94263   0.09497   0.40325   0.00000  Uiso   1.00
H201   H     0.94224   0.08664   0.36697   0.00000  Uiso   1.00
C202   C     0.16658   0.58003   0.25012   0.00000  Uiso   1.00
C203   C     0.14429   0.48797   0.49205   0.00000  Uiso   1.00
C204   C     0.15496   0.47806   0.43690   0.00000  Uiso   1.00
C205   C     0.18172   0.48478   0.01370   0.00000  Uiso   1.00
C206   C     0.22632   0.46514   0.48356   0.00000  Uiso   1.00
C207   C     0.23351   0.44916   0.43156   0.00000  Uiso   1.00
C208   C     0.19758   0.45537   0.40890   0.00000  Uiso   1.00
C209   C     0.17621   0.50184   0.06428   0.00000  Uiso   1.00
C210   C     0.25400   0.47509   0.05973   0.00000  Uiso   1.00
C211   C     0.12280   0.49164   0.41110   0.00000  Uiso   1.00
C212   C     0.20212   0.64525   0.26360   0.00000  Uiso   1.00
C213   C     0.13996   0.49710   0.35210   0.00000  Uiso   1.00
C214   C     0.20231   0.35457   0.26334   0.00000  Uiso   1.00
C215   C     0.16692   0.37584   0.24965   0.00000  Uiso   1.00
C216   C     0.13144   0.35479   0.23602   0.00000  Uiso   1.00
C217   C     0.13128   0.64547   0.23623   0.00000  Uiso   1.00
C218   C     0.16658   0.62419   0.25008   0.00000  Uiso   1.00
C219   C     0.31832   0.47002   0.22162   0.00000  Uiso   1.00
C220   C     0.03329   0.47065   0.22140   0.00000  Uiso   1.00
C221   C     0.01450   0.52892   0.27978   0.00000  Uiso   1.00
C222   C     0.30011   0.52927   0.27867   0.00000  Uiso   1.00
C223   C     0.16679   0.41998   0.24982   0.00000  Uiso   1.00
C224   C     0.19354   0.49989   0.14767   0.00000  Uiso   1.00
C225   C     0.26258   0.46134   0.00669   0.00000  Uiso   1.00
C226   C     0.20998   0.49432   0.08898   0.00000  Uiso   1.00
C227   C     0.07611   0.50489   0.44249   0.00000  Uiso   1.00
C228   C     0.06260   0.50790   0.49860   0.00000  Uiso   1.00
C229   C     0.09656   0.50069   0.02330   0.00000  Uiso   1.00
H230   H     0.28076   0.46924   0.07836   0.00000  Uiso   1.00
H231   H     0.22969   0.37078   0.27431   0.00000  Uiso   1.00
H232   H     0.10416   0.37115   0.22488   0.00000  Uiso   1.00
H233   H     0.10400   0.62928   0.22510   0.00000  Uiso   1.00
H234   H     0.05970   0.44799   0.19829   0.00000  Uiso   1.00
H235   H     0.27445   0.55276   0.30105   0.00000  Uiso   1.00
H236   H     0.29685   0.44642   0.48473   0.00000  Uiso   1.00
H237   H     0.14477   0.52025   0.08630   0.00000  Uiso   1.00
H238   H     0.05052   0.51392   0.42360   0.00000  Uiso   1.00
H239   H     0.08418   0.50416   0.06695   0.00000  Uiso   1.00
H240   H     0.02630   0.51765   0.02281   0.00000  Uiso   1.00
H241   H     0.20296   0.44169   0.36947   0.00000  Uiso   1.00
H242   H     0.22942   0.62889   0.27471   0.00000  Uiso   1.00
N243   N     0.04760   0.50001   0.25002   0.00000  Uiso   1.00
N244   N     0.28573   0.49998   0.25000   0.00000  Uiso   1.00
O245   O     0.12846   0.56108   0.25001   0.00000  Uiso   1.00
O246   O     0.20490   0.56107   0.25000   0.00000  Uiso   1.00
O247   O     0.10947   0.50000   0.32681   0.00000  Uiso   1.00
O248   O     0.18591   0.49999   0.32681   0.00000  Uiso   1.00
O249   O     0.12843   0.43893   0.24999   0.00000  Uiso   1.00
O250   O     0.20488   0.43892   0.24999   0.00000  Uiso   1.00
O251   O     0.14742   0.50001   0.17319   0.00000  Uiso   1.00
O252   O     0.22387   0.50000   0.17319   0.00000  Uiso   1.00
Zn253  Zn    0.11562   0.50001   0.25000   0.00000  Uiso   1.00
Zn254  Zn    0.21771   0.49999   0.25000   0.00000  Uiso   1.00
N255   N     0.30309   0.43904   0.19215   0.00000  Uiso   1.00
H256   H     0.29005   0.45056   0.16348   0.00000  Uiso   1.00
C257   C     0.33002   0.40044   0.17687   0.00000  Uiso   1.00
H258   H     0.30851   0.37773   0.16300   0.00000  Uiso   1.00
H259   H     0.00365   0.38689   0.21232   0.00000  Uiso   1.00
H260   H     0.03122   0.40579   0.14292   0.00000  Uiso   1.00
N261   N     0.02850   0.55892   0.31114   0.00000  Uiso   1.00
H262   H     0.03428   0.58786   0.29325   0.00000  Uiso   1.00
C263   C     0.33209   0.56097   0.36813   0.00000  Uiso   1.00
H264   H     0.29748   0.57726   0.37359   0.00000  Uiso   1.00
H265   H     0.01804   0.57863   0.39064   0.00000  Uiso   1.00
H266   H     0.32441   0.52918   0.38550   0.00000  Uiso   1.00
O267   O     0.27596   0.42830   0.40325   0.00000  Uiso   1.00
H268   H     0.27558   0.41997   0.36697   0.00000  Uiso   1.00
C269   C     0.49991   0.58003   0.25012   0.00000  Uiso   1.00
C270   C     0.47762   0.48797   0.49205   0.00000  Uiso   1.00
C271   C     0.48829   0.47806   0.43690   0.00000  Uiso   1.00
C272   C     0.51505   0.48478   0.01370   0.00000  Uiso   1.00
C273   C     0.55966   0.46514   0.48356   0.00000  Uiso   1.00
C274   C     0.56684   0.44916   0.43156   0.00000  Uiso   1.00
C275   C     0.53091   0.45537   0.40890   0.00000  Uiso   1.00
C276   C     0.50954   0.50184   0.06428   0.00000  Uiso   1.00
C277   C     0.58733   0.47509   0.05973   0.00000  Uiso   1.00
C278   C     0.45613   0.49164   0.41110   0.00000  Uiso   1.00
C279   C     0.53546   0.64525   0.26360   0.00000  Uiso   1.00
C280   C     0.47329   0.49710   0.35210   0.00000  Uiso   1.00
C281   C     0.53565   0.35457   0.26334   0.00000  Uiso   1.00
C282   C     0.50025   0.37584   0.24965   0.00000  Uiso   1.00
C283   C     0.46477   0.35479   0.23602   0.00000  Uiso   1.00
C284   C     0.46461   0.64547   0.23623   0.00000  Uiso   1.00
C285   C     0.49991   0.62419   0.25008   0.00000  Uiso   1.00
C286   C     0.65165   0.47002   0.22162   0.00000  Uiso   1.00
C287   C     0.36663   0.47065   0.22140   0.00000  Uiso   1.00
C288   C     0.34783   0.52892   0.27978   0.00000  Uiso   1.00
C289   C     0.63345   0.52927   0.27867   0.00000  Uiso   1.00
C290   C     0.50012   0.41998   0.24982   0.00000  Uiso   1.00
C291   C     0.52687   0.49989   0.14767   0.00000  Uiso   1.00
C292   C     0.59592   0.46134   0.00669   0.00000  Uiso   1.00
C293   C     0.54332   0.49432   0.08898   0.00000  Uiso   1.00
C294   C     0.40944   0.50489   0.44249   0.00000  Uiso   1.00
C295   C     0.39593   0.50790   0.49860   0.00000  Uiso   1.00
C296   C     0.42989   0.50069   0.02330   0.00000  Uiso   1.00
H297   H     0.61409   0.46924   0.07836   0.00000  Uiso   1.00
H298   H     0.56302   0.37078   0.27431   0.00000  Uiso   1.00
H299   H     0.43749   0.37115   0.22488   0.00000  Uiso   1.00
H300   H     0.43734   0.62928   0.22510   0.00000  Uiso   1.00
H301   H     0.39303   0.44799   0.19829   0.00000  Uiso   1.00
H302   H     0.60778   0.55276   0.30105   0.00000  Uiso   1.00
H303   H     0.63018   0.44642   0.48473   0.00000  Uiso   1.00
H304   H     0.47810   0.52025   0.08630   0.00000  Uiso   1.00
H305   H     0.38385   0.51392   0.42360   0.00000  Uiso   1.00
H306   H     0.41751   0.50416   0.06695   0.00000  Uiso   1.00
H307   H     0.35964   0.51765   0.02281   0.00000  Uiso   1.00
H308   H     0.53629   0.44169   0.36947   0.00000  Uiso   1.00
H309   H     0.56275   0.62889   0.27471   0.00000  Uiso   1.00
N310   N     0.38093   0.50001   0.25002   0.00000  Uiso   1.00
N311   N     0.61906   0.49998   0.25000   0.00000  Uiso   1.00
O312   O     0.46179   0.56108   0.25001   0.00000  Uiso   1.00
O313   O     0.53823   0.56107   0.25000   0.00000  Uiso   1.00
O314   O     0.44280   0.50000   0.32681   0.00000  Uiso   1.00
O315   O     0.51924   0.49999   0.32681   0.00000  Uiso   1.00
O316   O     0.46177   0.43893   0.24999   0.00000  Uiso   1.00
O317   O     0.53821   0.43892   0.24999   0.00000  Uiso   1.00
O318   O     0.48076   0.50001   0.17319   0.00000  Uiso   1.00
O319   O     0.55720   0.50000   0.17319   0.00000  Uiso   1.00
Zn320  Zn    0.44896   0.50001   0.25000   0.00000  Uiso   1.00
Zn321  Zn    0.55104   0.49999   0.25000   0.00000  Uiso   1.00
N322   N     0.63642   0.43904   0.19215   0.00000  Uiso   1.00
H323   H     0.62338   0.45056   0.16348   0.00000  Uiso   1.00
C324   C     0.66335   0.40044   0.17687   0.00000  Uiso   1.00
H325   H     0.64185   0.37773   0.16300   0.00000  Uiso   1.00
H326   H     0.33698   0.38689   0.21232   0.00000  Uiso   1.00
H327   H     0.36456   0.40579   0.14292   0.00000  Uiso   1.00
N328   N     0.36183   0.55892   0.31114   0.00000  Uiso   1.00
H329   H     0.36761   0.58786   0.29325   0.00000  Uiso   1.00
C330   C     0.66542   0.56097   0.36813   0.00000  Uiso   1.00
H331   H     0.63081   0.57726   0.37359   0.00000  Uiso   1.00
H332   H     0.35138   0.57863   0.39064   0.00000  Uiso   1.00
H333   H     0.65774   0.52918   0.38550   0.00000  Uiso   1.00
O334   O     0.60929   0.42830   0.40325   0.00000  Uiso   1.00
H335   H     0.60891   0.41997   0.36697   0.00000  Uiso   1.00
C336   C     0.83325   0.58003   0.25012   0.00000  Uiso   1.00
C337   C     0.81095   0.48797   0.49205   0.00000  Uiso   1.00
C338   C     0.82162   0.47806   0.43690   0.00000  Uiso   1.00
C339   C     0.84838   0.48478   0.01370   0.00000  Uiso   1.00
C340   C     0.89299   0.46514   0.48356   0.00000  Uiso   1.00
C341   C     0.90017   0.44916   0.43156   0.00000  Uiso   1.00
C342   C     0.86425   0.45537   0.40890   0.00000  Uiso   1.00
C343   C     0.84288   0.50184   0.06428   0.00000  Uiso   1.00
C344   C     0.92067   0.47509   0.05973   0.00000  Uiso   1.00
C345   C     0.78947   0.49164   0.41110   0.00000  Uiso   1.00
C346   C     0.86879   0.64525   0.26360   0.00000  Uiso   1.00
C347   C     0.80663   0.49710   0.35210   0.00000  Uiso   1.00
C348   C     0.86898   0.35457   0.26334   0.00000  Uiso   1.00
C349   C     0.83358   0.37584   0.24965   0.00000  Uiso   1.00
C350   C     0.79810   0.35479   0.23602   0.00000  Uiso   1.00
C351   C     0.79795   0.64547   0.23623   0.00000  Uiso   1.00
C352   C     0.83325   0.62419   0.25008   0.00000  Uiso   1.00
C353   C     0.98498   0.47002   0.22162   0.00000  Uiso   1.00
C354   C     0.69996   0.47065   0.22140   0.00000  Uiso   1.00
C355   C     0.68117   0.52892   0.27978   0.00000  Uiso   1.00
C356   C     0.96678   0.52927   0.27867   0.00000  Uiso   1.00
C357   C     0.83345   0.41998   0.24982   0.00000  Uiso   1.00
C358   C     0.86020   0.49989   0.14767   0.00000  Uiso   1.00
C359   C     0.92925   0.46134   0.00669   0.00000  Uiso   1.00
C360   C     0.87665   0.49432   0.08898   0.00000  Uiso   1.00
C361   C     0.74278   0.50489   0.44249   0.00000  Uiso   1.00
C362   C     0.72926   0.50790   0.49860   0.00000  Uiso   1.00
C363   C     0.76322   0.50069   0.02330   0.00000  Uiso   1.00
H364   H     0.94743   0.46924   0.07836   0.00000  Uiso   1.00
H365   H     0.89635   0.37078   0.27431   0.00000  Uiso   1.00
H366   H     0.77082   0.37115   0.22488   0.00000  Uiso   1.00
H367   H     0.77067   0.62928   0.22510   0.00000  Uiso   1.00
H368   H     0.72636   0.44799   0.19829   0.00000  Uiso   1.00
H369   H     0.94111   0.55276   0.30105   0.00000  Uiso   1.00
H370   H     0.96351   0.44642   0.48473   0.00000  Uiso   1.00
H371   H     0.81143   0.52025   0.08630   0.00000  Uiso   1.00
H372   H     0.71718   0.51392   0.42360   0.00000  Uiso   1.00
H373   H     0.75085   0.50416   0.06695   0.00000  Uiso   1.00
H374   H     0.69297   0.51765   0.02281   0.00000  Uiso   1.00
H375   H     0.86962   0.44169   0.36947   0.00000  Uiso   1.00
H376   H     0.89608   0.62889   0.27471   0.00000  Uiso   1.00
N377   N     0.71426   0.50001   0.25002   0.00000  Uiso   1.00
N378   N     0.95239   0.49998   0.25000   0.00000  Uiso   1.00
O379   O     0.79512   0.56108   0.25001   0.00000  Uiso   1.00
O380   O     0.87157   0.56107   0.25000   0.00000  Uiso   1.00
O381   O     0.77613   0.50000   0.32681   0.00000  Uiso   1.00
O382   O     0.85258   0.49999   0.32681   0.00000  Uiso   1.00
O383   O     0.79510   0.43893   0.24999   0.00000  Uiso   1.00
O384   O     0.87154   0.43892   0.24999   0.00000  Uiso   1.00
O385   O     0.81409   0.50001   0.17319   0.00000  Uiso   1.00
O386   O     0.89053   0.50000   0.17319   0.00000  Uiso   1.00
Zn387  Zn    0.78229   0.50001   0.25000   0.00000  Uiso   1.00
Zn388  Zn    0.88438   0.49999   0.25000   0.00000  Uiso   1.00
N389   N     0.96976   0.43904   0.19215   0.00000  Uiso   1.00
H390   H     0.95671   0.45056   0.16348   0.00000  Uiso   1.00
C391   C     0.99668   0.40044   0.17687   0.00000  Uiso   1.00
H392   H     0.97518   0.37773   0.16300   0.00000  Uiso   1.00
H393   H     0.67031   0.38689   0.21232   0.00000  Uiso   1.00
H394   H     0.69789   0.40579   0.14292   0.00000  Uiso   1.00
N395   N     0.69517   0.55892   0.31114   0.00000  Uiso   1.00
H396   H     0.70094   0.58786   0.29325   0.00000  Uiso   1.00
C397   C     0.99876   0.56097   0.36813   0.00000  Uiso   1.00
H398   H     0.96414   0.57726   0.37359   0.00000  Uiso   1.00
H399   H     0.68471   0.57863   0.39064   0.00000  Uiso   1.00
H400   H     0.99108   0.52918   0.38550   0.00000  Uiso   1.00
O401   O     0.94263   0.42830   0.40325   0.00000  Uiso   1.00
H402   H     0.94224   0.41997   0.36697   0.00000  Uiso   1.00
C403   C     0.16658   0.91336   0.25012   0.00000  Uiso   1.00
C404   C     0.14429   0.82131   0.49205   0.00000  Uiso   1.00
C405   C     0.15496   0.81139   0.43690   0.00000  Uiso   1.00
C406   C     0.18172   0.81811   0.01370   0.00000  Uiso   1.00
C407   C     0.22632   0.79848   0.48356   0.00000  Uiso   1.00
C408   C     0.23351   0.78249   0.43156   0.00000  Uiso   1.00
C409   C     0.19758   0.78871   0.40890   0.00000  Uiso   1.00
C410   C     0.17621   0.83517   0.06428   0.00000  Uiso   1.00
C411   C     0.25400   0.80843   0.05973   0.00000  Uiso   1.00
C412   C     0.12280   0.82497   0.41110   0.00000  Uiso   1.00
C413   C     0.20212   0.97859   0.26360   0.00000  Uiso   1.00
C414   C     0.13996   0.83044   0.35210   0.00000  Uiso   1.00
C415   C     0.20231   0.68791   0.26334   0.00000  Uiso   1.00
C416   C     0.16692   0.70917   0.24965   0.00000  Uiso   1.00
C417   C     0.13144   0.68812   0.23602   0.00000  Uiso   1.00
C418   C     0.13128   0.97880   0.23623   0.00000  Uiso   1.00
C419   C     0.16658   0.95752   0.25008   0.00000  Uiso   1.00
C420   C     0.31832   0.80335   0.22162   0.00000  Uiso   1.00
C421   C     0.03329   0.80399   0.22140   0.00000  Uiso   1.00
C422   C     0.01450   0.86225   0.27978   0.00000  Uiso   1.00
C423   C     0.30011   0.86260   0.27867   0.00000  Uiso   1.00
C424   C     0.16679   0.75331   0.24982   0.00000  Uiso   1.00
C425   C     0.19354   0.83322   0.14767   0.00000  Uiso   1.00
C426   C     0.26258   0.79467   0.00669   0.00000  Uiso   1.00
C427   C     0.20998   0.82765   0.08898   0.00000  Uiso   1.00
C428   C     0.07611   0.83822   0.44249   0.00000  Uiso   1.00
C429   C     0.06260   0.84123   0.49860   0.00000  Uiso   1.00
C430   C     0.09656   0.83403   0.02330   0.00000  Uiso   1.00
H431   H     0.28076   0.80257   0.07836   0.00000  Uiso   1.00
H432   H     0.22969   0.70412   0.27431   0.00000  Uiso   1.00
H433   H     0.10416   0.70449   0.22488   0.00000  Uiso   1.00
H434   H     0.10400   0.96261   0.22510   0.00000  Uiso   1.00
H435   H     0.05970   0.78132   0.19829   0.00000  Uiso   1.00
H436   H     0.27445   0.88609   0.30105   0.00000  Uiso   1.00
H437   H     0.29685   0.77975   0.48473   0.00000  Uiso   1.00
H438   H     0.14477   0.85358   0.08630   0.00000  Uiso   1.00
H439   H     0.05052   0.84725   0.42360   0.00000  Uiso   1.00
H440   H     0.08418   0.83749   0.06695   0.00000  Uiso   1.00
H441   H     0.02630   0.85099   0.02281   0.00000  Uiso   1.00
H442   H     0.20296   0.77502   0.36947   0.00000  Uiso   1.00
H443   H     0.22942   0.96222   0.27471   0.00000  Uiso   1.00
N444   N     0.04760   0.83334   0.25002   0.00000  Uiso   1.00
N445   N     0.28573   0.83331   0.25000   0.00000  Uiso   1.00
O446   O     0.12846   0.89442   0.25001   0.00000  Uiso   1.00
O447   O     0.20490   0.89441   0.25000   0.00000  Uiso   1.00
O448   O     0.10947   0.83333   0.32681   0.00000  Uiso   1.00
O449   O     0.18591   0.83332   0.32681   0.00000  Uiso   1.00
O450   O     0.12843   0.77226   0.24999   0.00000  Uiso   1.00
O451   O     0.20488   0.77225   0.24999   0.00000  Uiso   1.00
O452   O     0.14742   0.83335   0.17319   0.00000  Uiso   1.00
O453   O     0.22387   0.83334   0.17319   0.00000  Uiso   1.00
Zn454  Zn    0.11562   0.83334   0.25000   0.00000  Uiso   1.00
Zn455  Zn    0.21771   0.83333   0.25000   0.00000  Uiso   1.00
N456   N     0.30309   0.77237   0.19215   0.00000  Uiso   1.00
H457   H     0.29005   0.78389   0.16348   0.00000  Uiso   1.00
C458   C     0.33002   0.73377   0.17687   0.00000  Uiso   1.00
H459   H     0.30851   0.71106   0.16300   0.00000  Uiso   1.00
H460   H     0.00365   0.72022   0.21232   0.00000  Uiso   1.00
H461   H     0.03122   0.73912   0.14292   0.00000  Uiso   1.00
N462   N     0.02850   0.89226   0.31114   0.00000  Uiso   1.00
H463   H     0.03428   0.92119   0.29325   0.00000  Uiso   1.00
C464   C     0.33209   0.89430   0.36813   0.00000  Uiso   1.00
H465   H     0.29748   0.91060   0.37359   0.00000  Uiso   1.00
H466   H     0.01804   0.91196   0.39064   0.00000  Uiso   1.00
H467   H     0.32441   0.86251   0.38550   0.00000  Uiso   1.00
O468   O     0.27596   0.76163   0.40325   0.00000  Uiso   1.00
H469   H     0.27558   0.75331   0.36697   0.00000  Uiso   1.00
C470   C     0.49991   0.91336   0.25012   0.00000  Uiso   1.00
C471   C     0.47762   0.82131   0.49205   0.00000  Uiso   1.00
C472   C     0.48829   0.81139   0.43690   0.00000  Uiso   1.00
C473   C     0.51505   0.81811   0.01370   0.00000  Uiso   1.00
C474   C     0.55966   0.79848   0.48356   0.00000  Uiso   1.00
C475   C     0.56684   0.78249   0.43156   0.00000  Uiso   1.00
C476   C     0.53091   0.78871   0.40890   0.00000  Uiso   1.00
C477   C     0.50954   0.83517   0.06428   0.00000  Uiso   1.00
C478   C     0.58733   0.80843   0.05973   0.00000  Uiso   1.00
C479   C     0.45613   0.82497   0.41110   0.00000  Uiso   1.00
C480   C     0.53546   0.97859   0.26360   0.00000  Uiso   1.00
C481   C     0.47329   0.83044   0.35210   0.00000  Uiso   1.00
C482   C     0.53565   0.68791   0.26334   0.00000  Uiso   1.00
C483   C     0.50025   0.70917   0.24965   0.00000  Uiso   1.00
C484   C     0.46477   0.68812   0.23602   0.00000  Uiso   1.00
C485   C     0.46461   0.97880   0.23623   0.00000  Uiso   1.00
C486   C     0.49991   0.95752   0.25008   0.00000  Uiso   1.00
C487   C     0.65165   0.80335   0.22162   0.00000  Uiso   1.00
C488   C     0.36663   0.80399   0.22140   0.00000  Uiso   1.00
C489   C     0.34783   0.86225   0.27978   0.00000  Uiso   1.00
C490   C     0.63345   0.86260   0.27867   0.00000  Uiso   1.00
C491   C     0.50012   0.75331   0.24982   0.00000  Uiso   1.00
C492   C     0.52687   0.83322   0.14767   0.00000  Uiso   1.00
C493   C     0.59592   0.79467   0.00669   0.00000  Uiso   1.00
C494   C     0.54332   0.82765   0.08898   0.00000  Uiso   1.00
C495   C     0.40944   0.83822   0.44249   0.00000  Uiso   1.00
C496   C     0.39593   0.84123   0.49860   0.00000  Uiso   1.00
C497   C     0.42989   0.83403   0.02330   0.00000  Uiso   1.00
H498   H     0.61409   0.80257   0.07836   0.00000  Uiso   1.00
H499   H     0.56302   0.70412   0.27431   0.00000  Uiso   1.00
H500   H     0.43749   0.70449   0.22488   0.00000  Uiso   1.00
H501   H     0.43734   0.96261   0.22510   0.00000  Uiso   1.00
H502   H     0.39303   0.78132   0.19829   0.00000  Uiso   1.00
H503   H     0.60778   0.88609   0.30105   0.00000  Uiso   1.00
H504   H     0.63018   0.77975   0.48473   0.00000  Uiso   1.00
H505   H     0.47810   0.85358   0.08630   0.00000  Uiso   1.00
H506   H     0.38385   0.84725   0.42360   0.00000  Uiso   1.00
H507   H     0.41751   0.83749   0.06695   0.00000  Uiso   1.00
H508   H     0.35964   0.85099   0.02281   0.00000  Uiso   1.00
H509   H     0.53629   0.77502   0.36947   0.00000  Uiso   1.00
H510   H     0.56275   0.96222   0.27471   0.00000  Uiso   1.00
N511   N     0.38093   0.83334   0.25002   0.00000  Uiso   1.00
N512   N     0.61906   0.83331   0.25000   0.00000  Uiso   1.00
O513   O     0.46179   0.89442   0.25001   0.00000  Uiso   1.00
O514   O     0.53823   0.89441   0.25000   0.00000  Uiso   1.00
O515   O     0.44280   0.83333   0.32681   0.00000  Uiso   1.00
O516   O     0.51924   0.83332   0.32681   0.00000  Uiso   1.00
O517   O     0.46177   0.77226   0.24999   0.00000  Uiso   1.00
O518   O     0.53821   0.77225   0.24999   0.00000  Uiso   1.00
O519   O     0.48076   0.83335   0.17319   0.00000  Uiso   1.00
O520   O     0.55720   0.83334   0.17319   0.00000  Uiso   1.00
Zn521  Zn    0.44896   0.83334   0.25000   0.00000  Uiso   1.00
Zn522  Zn    0.55104   0.83333   0.25000   0.00000  Uiso   1.00
N523   N     0.63642   0.77237   0.19215   0.00000  Uiso   1.00
H524   H     0.62338   0.78389   0.16348   0.00000  Uiso   1.00
C525   C     0.66335   0.73377   0.17687   0.00000  Uiso   1.00
H526   H     0.64185   0.71106   0.16300   0.00000  Uiso   1.00
H527   H     0.33698   0.72022   0.21232   0.00000  Uiso   1.00
H528   H     0.36456   0.73912   0.14292   0.00000  Uiso   1.00
N529   N     0.36183   0.89226   0.31114   0.00000  Uiso   1.00
H530   H     0.36761   0.92119   0.29325   0.00000  Uiso   1.00
C531   C     0.66542   0.89430   0.36813   0.00000  Uiso   1.00
H532   H     0.63081   0.91060   0.37359   0.00000  Uiso   1.00
H533   H     0.35138   0.91196   0.39064   0.00000  Uiso   1.00
H534   H     0.65774   0.86251   0.38550   0.00000  Uiso   1.00
O535   O     0.60929   0.76163   0.40325   0.00000  Uiso   1.00
H536   H     0.60891   0.75331   0.36697   0.00000  Uiso   1.00
C537   C     0.83325   0.91336   0.25012   0.00000  Uiso   1.00
C538   C     0.81095   0.82131   0.49205   0.00000  Uiso   1.00
C539   C     0.82162   0.81139   0.43690   0.00000  Uiso   1.00
C540   C     0.84838   0.81811   0.01370   0.00000  Uiso   1.00
C541   C     0.89299   0.79848   0.48356   0.00000  Uiso   1.00
C542   C     0.90017   0.78249   0.43156   0.00000  Uiso   1.00
C543   C     0.86425   0.78871   0.40890   0.00000  Uiso   1.00
C544   C     0.84288   0.83517   0.06428   0.00000  Uiso   1.00
C545   C     0.92067   0.80843   0.05973   0.00000  Uiso   1.00
C546   C     0.78947   0.82497   0.41110   0.00000  Uiso   1.00
C547   C     0.86879   0.97859   0.26360   0.00000  Uiso   1.00
C548   C     0.80663   0.83044   0.35210   0.00000  Uiso   1.00
C549   C     0.86898   0.68791   0.26334   0.00000  Uiso   1.00
C550   C     0.83358   0.70917   0.24965   0.00000  Uiso   1.00
C551   C     0.79810   0.68812   0.23602   0.00000  Uiso   1.00
C552   C     0.79795   0.97880   0.23623   0.00000  Uiso   1.00
C553   C     0.83325   0.95752   0.25008   0.00000  Uiso   1.00
C554   C     0.98498   0.80335   0.22162   0.00000  Uiso   1.00
C555   C     0.69996   0.80399   0.22140   0.00000  Uiso   1.00
C556   C     0.68117   0.86225   0.27978   0.00000  Uiso   1.00
C557   C     0.96678   0.86260   0.27867   0.00000  Uiso   1.00
C558   C     0.83345   0.75331   0.24982   0.00000  Uiso   1.00
C559   C     0.86020   0.83322   0.14767   0.00000  Uiso   1.00
C560   C     0.92925   0.79467   0.00669   0.00000  Uiso   1.00
C561   C     0.87665   0.82765   0.08898   0.00000  Uiso   1.00
C562   C     0.74278   0.83822   0.44249   0.00000  Uiso   1.00
C563   C     0.72926   0.84123   0.49860   0.00000  Uiso   1.00
C564   C     0.76322   0.83403   0.02330   0.00000  Uiso   1.00
H565   H     0.94743   0.80257   0.07836   0.00000  Uiso   1.00
H566   H     0.89635   0.70412   0.27431   0.00000  Uiso   1.00
H567   H     0.77082   0.70449   0.22488   0.00000  Uiso   1.00
H568   H     0.77067   0.96261   0.22510   0.00000  Uiso   1.00
H569   H     0.72636   0.78132   0.19829   0.00000  Uiso   1.00
H570   H     0.94111   0.88609   0.30105   0.00000  Uiso   1.00
H571   H     0.96351   0.77975   0.48473   0.00000  Uiso   1.00
H572   H     0.81143   0.85358   0.08630   0.00000  Uiso   1.00
H573   H     0.71718   0.84725   0.42360   0.00000  Uiso   1.00
H574   H     0.75085   0.83749   0.06695   0.00000  Uiso   1.00
H575   H     0.69297   0.85099   0.02281   0.00000  Uiso   1.00
H576   H     0.86962   0.77502   0.36947   0.00000  Uiso   1.00
H577   H     0.89608   0.96222   0.27471   0.00000  Uiso   1.00
N578   N     0.71426   0.83334   0.25002   0.00000  Uiso   1.00
N579   N     0.95239   0.83331   0.25000   0.00000  Uiso   1.00
O580   O     0.79512   0.89442   0.25001   0.00000  Uiso   1.00
O581   O     0.87157   0.89441   0.25000   0.00000  Uiso   1.00
O582   O     0.77613   0.83333   0.32681   0.00000  Uiso   1.00
O583   O     0.85258   0.83332   0.32681   0.00000  Uiso   1.00
O584   O     0.79510   0.77226   0.24999   0.00000  Uiso   1.00
O585   O     0.87154   0.77225   0.24999   0.00000  Uiso   1.00
O586   O     0.81409   0.83335   0.17319   0.00000  Uiso   1.00
O587   O     0.89053   0.83334   0.17319   0.00000  Uiso   1.00
Zn588  Zn    0.78229   0.83334   0.25000   0.00000  Uiso   1.00
Zn589  Zn    0.88438   0.83333   0.25000   0.00000  Uiso   1.00
N590   N     0.96976   0.77237   0.19215   0.00000  Uiso   1.00
H591   H     0.95671   0.78389   0.16348   0.00000  Uiso   1.00
C592   C     0.99668   0.73377   0.17687   0.00000  Uiso   1.00
H593   H     0.97518   0.71106   0.16300   0.00000  Uiso   1.00
H594   H     0.67031   0.72022   0.21232   0.00000  Uiso   1.00
H595   H     0.69789   0.73912   0.14292   0.00000  Uiso   1.00
N596   N     0.69517   0.89226   0.31114   0.00000  Uiso   1.00
H597   H     0.70094   0.92119   0.29325   0.00000  Uiso   1.00
C598   C     0.99876   0.89430   0.36813   0.00000  Uiso   1.00
H599   H     0.96414   0.91060   0.37359   0.00000  Uiso   1.00
H600   H     0.68471   0.91196   0.39064   0.00000  Uiso   1.00
H601   H     0.99108   0.86251   0.38550   0.00000  Uiso   1.00
O602   O     0.94263   0.76163   0.40325   0.00000  Uiso   1.00
H603   H     0.94224   0.75331   0.36697   0.00000  Uiso   1.00
C604   C     0.16658   0.24669   0.75012   0.00000  Uiso   1.00
C605   C     0.14429   0.15464   0.99205   0.00000  Uiso   1.00
C606   C     0.15496   0.14472   0.93690   0.00000  Uiso   1.00
C607   C     0.18172   0.15144   0.51370   0.00000  Uiso   1.00
C608   C     0.22632   0.13181   0.98356   0.00000  Uiso   1.00
C609   C     0.23351   0.11582   0.93156   0.00000  Uiso   1.00
C610   C     0.19758   0.12204   0.90890   0.00000  Uiso   1.00
C611   C     0.17621   0.16850   0.56428   0.00000  Uiso   1.00
C612   C     0.25400   0.14176   0.55973   0.00000  Uiso   1.00
C613   C     0.12280   0.15830   0.91110   0.00000  Uiso   1.00
C614   C     0.20212   0.31192   0.76360   0.00000  Uiso   1.00
C615   C     0.13996   0.16377   0.85210   0.00000  Uiso   1.00
C616   C     0.20231   0.02124   0.76334   0.00000  Uiso   1.00
C617   C     0.16692   0.04251   0.74965   0.00000  Uiso   1.00
C618   C     0.13144   0.02145   0.73602   0.00000  Uiso   1.00
C619   C     0.13128   0.31213   0.73623   0.00000  Uiso   1.00
C620   C     0.16658   0.29085   0.75008   0.00000  Uiso   1.00
C621   C     0.31832   0.13668   0.72162   0.00000  Uiso   1.00
C622   C     0.03329   0.13732   0.72140   0.00000  Uiso   1.00
C623   C     0.01450   0.19559   0.77978   0.00000  Uiso   1.00
C624   C     0.30011   0.19593   0.77867   0.00000  Uiso   1.00
C625   C     0.16679   0.08665   0.74982   0.00000  Uiso   1.00
C626   C     0.19354   0.16655   0.64767   0.00000  Uiso   1.00
C627   C     0.26258   0.12801   0.50669   0.00000  Uiso   1.00
C628   C     0.20998   0.16099   0.58898   0.00000  Uiso   1.00
C629   C     0.07611   0.17155   0.94249   0.00000  Uiso   1.00
C630   C     0.06260   0.17456   0.99860   0.00000  Uiso   1.00
C631   C     0.09656   0.16736   0.52330   0.00000  Uiso   1.00
H632   H     0.28076   0.13590   0.57836   0.00000  Uiso   1.00
H633   H     0.22969   0.03745   0.77431   0.00000  Uiso   1.00
H634   H     0.10416   0.03782   0.72488   0.00000  Uiso   1.00
H635   H     0.10400   0.29594   0.72510   0.00000  Uiso   1.00
H636   H     0.05970   0.11466   0.69829   0.00000  Uiso   1.00
H637   H     0.27445   0.21942   0.80105   0.00000  Uiso   1.00
H638   H     0.29685   0.11308   0.98473   0.00000  Uiso   1.00
H639   H     0.14477   0.18692   0.58630   0.00000  Uiso   1.00
H640   H     0.05052   0.18059   0.92360   0.00000  Uiso   1.00
H641   H     0.08418   0.17082   0.56695   0.00000  Uiso   1.00
H642   H     0.02630   0.18432   0.52281   0.00000  Uiso   1.00
H643   H     0.20296   0.10835   0.86947   0.00000  Uiso   1.00
H644   H     0.22942   0.29555   0.77471   0.00000  Uiso   1.00
N645   N     0.04760   0.16668   0.75002   0.00000  Uiso   1.00
N646   N     0.28573   0.16665   0.75000   0.00000  Uiso   1.00
O647   O     0.12846   0.22775   0.75001   0.00000  Uiso   1.00
O648   O     0.20490   0.22774   0.75000   0.00000  Uiso   1.00
O649   O     0.10947   0.16666   0.82681   0.00000  Uiso   1.00
O650   O     0.18591   0.16665   0.82681   0.00000  Uiso   1.00
O651   O     0.12843   0.10559   0.74999   0.00000  Uiso   1.00
O652   O     0.20488   0.10558   0.74999   0.00000  Uiso   1.00
O653   O     0.14742   0.16668   0.67319   0.00000  Uiso   1.00
O654   O     0.22387   0.16667   0.67319   0.00000  Uiso   1.00
Zn655  Zn    0.11562   0.16667   0.75000   0.00000  Uiso   1.00
Zn656  Zn    0.21771   0.16666   0.75000   0.00000  Uiso   1.00
N657   N     0.30309   0.10570   0.69215   0.00000  Uiso   1.00
H658   H     0.29005   0.11722   0.66348   0.00000  Uiso   1.00
C659   C     0.33002   0.06711   0.67687   0.00000  Uiso   1.00
H660   H     0.30851   0.04440   0.66300   0.00000  Uiso   1.00
H661   H     0.00365   0.05356   0.71232   0.00000  Uiso   1.00
H662   H     0.03122   0.07246   0.64292   0.00000  Uiso   1.00
N663   N     0.02850   0.22559   0.81114   0.00000  Uiso   1.00
H664   H     0.03428   0.25452   0.79325   0.00000  Uiso   1.00
C665   C     0.33209   0.22763   0.86813   0.00000  Uiso   1.00
H666   H     0.29748   0.24393   0.87359   0.00000  Uiso   1.00
H667   H     0.01804   0.24529   0.89064   0.00000  Uiso   1.00
H668   H     0.32441   0.19585   0.88550   0.00000  Uiso   1.00
O669   O     0.27596   0.09497   0.90325   0.00000  Uiso   1.00
H670   H     0.27558   0.08664   0.86697   0.00000  Uiso   1.00
C671   C     0.49991   0.24669   0.75012   0.00000  Uiso   1.00
C672   C     0.47762   0.15464   0.99205   0.00000  Uiso   1.00
C673   C     0.48829   0.14472   0.93690   0.00000  Uiso   1.00
C674   C     0.51505   0.15144   0.51370   0.00000  Uiso   1.00
C675   C     0.55966   0.13181   0.98356   0.00000  Uiso   1.00
C676   C     0.56684   0.11582   0.93156   0.00000  Uiso   1.00
C677   C     0.53091   0.12204   0.90890   0.00000  Uiso   1.00
C678   C     0.50954   0.16850   0.56428   0.00000  Uiso   1.00
C679   C     0.58733   0.14176   0.55973   0.00000  Uiso   1.00
C680   C     0.45613   0.15830   0.91110   0.00000  Uiso   1.00
C681   C     0.53546   0.31192   0.76360   0.00000  Uiso   1.00
C682   C     0.47329   0.16377   0.85210   0.00000  Uiso   1.00
C683   C     0.53565   0.02124   0.76334   0.00000  Uiso   1.00
C684   C     0.50025   0.04251   0.74965   0.00000  Uiso   1.00
C685   C     0.46477   0.02145   0.73602   0.00000  Uiso   1.00
C686   C     0.46461   0.31213   0.73623   0.00000  Uiso   1.00
C687   C     0.49991   0.29085   0.75008   0.00000  Uiso   1.00
C688   C     0.65165   0.13668   0.72162   0.00000  Uiso   1.00
C689   C     0.36663   0.13732   0.72140   0.00000  Uiso   1.00
C690   C     0.34783   0.19559   0.77978   0.00000  Uiso   1.00
C691   C     0.63345   0.19593   0.77867   0.00000  Uiso   1.00
C692   C     0.50012   0.08665   0.74982   0.00000  Uiso   1.00
C693   C     0.52687   0.16655   0.64767   0.00000  Uiso   1.00
C694   C     0.59592   0.12801   0.50669   0.00000  Uiso   1.00
C695   C     0.54332   0.16099   0.58898   0.00000  Uiso   1.00
C696   C     0.40944   0.17155   0.94249   0.00000  Uiso   1.00
C697   C     0.39593   0.17456   0.99860   0.00000  Uiso   1.00
C698   C     0.42989   0.16736   0.52330   0.00000  Uiso   1.00
H699   H     0.61409   0.13590   0.57836   0.00000  Uiso   1.00
H700   H     0.56302   0.03745   0.77431   0.00000  Uiso   1.00
H701   H     0.43749   0.03782   0.72488   0.00000  Uiso   1.00
H702   H     0.43734   0.29594   0.72510   0.00000  Uiso   1.00
H703   H     0.39303   0.11466   0.69829   0.00000  Uiso   1.00
H704   H     0.60778   0.21942   0.80105   0.00000  Uiso   1.00
H705   H     0.63018   0.11308   0.98473   0.00000  Uiso   1.00
H706   H     0.47810   0.18692   0.58630   0.00000  Uiso   1.00
H707   H     0.38385   0.18059   0.92360   0.00000  Uiso   1.00
H708   H     0.41751   0.17082   0.56695   0.00000  Uiso   1.00
H709   H     0.35964   0.18432   0.52281   0.00000  Uiso   1.00
H710   H     0.53629   0.10835   0.86947   0.00000  Uiso   1.00
H711   H     0.56275   0.29555   0.77471   0.00000  Uiso   1.00
N712   N     0.38093   0.16668   0.75002   0.00000  Uiso   1.00
N713   N     0.61906   0.16665   0.75000   0.00000  Uiso   1.00
O714   O     0.46179   0.22775   0.75001   0.00000  Uiso   1.00
O715   O     0.53823   0.22774   0.75000   0.00000  Uiso   1.00
O716   O     0.44280   0.16666   0.82681   0.00000  Uiso   1.00
O717   O     0.51924   0.16665   0.82681   0.00000  Uiso   1.00
O718   O     0.46177   0.10559   0.74999   0.00000  Uiso   1.00
O719   O     0.53821   0.10558   0.74999   0.00000  Uiso   1.00
O720   O     0.48076   0.16668   0.67319   0.00000  Uiso   1.00
O721   O     0.55720   0.16667   0.67319   0.00000  Uiso   1.00
Zn722  Zn    0.44896   0.16667   0.75000   0.00000  Uiso   1.00
Zn723  Zn    0.55104   0.16666   0.75000   0.00000  Uiso   1.00
N724   N     0.63642   0.10570   0.69215   0.00000  Uiso   1.00
H725   H     0.62338   0.11722   0.66348   0.00000  Uiso   1.00
C726   C     0.66335   0.06711   0.67687   0.00000  Uiso   1.00
H727   H     0.64185   0.04440   0.66300   0.00000  Uiso   1.00
H728   H     0.33698   0.05356   0.71232   0.00000  Uiso   1.00
H729   H     0.36456   0.07246   0.64292   0.00000  Uiso   1.00
N730   N     0.36183   0.22559   0.81114   0.00000  Uiso   1.00
H731   H     0.36761   0.25452   0.79325   0.00000  Uiso   1.00
C732   C     0.66542   0.22763   0.86813   0.00000  Uiso   1.00
H733   H     0.63081   0.24393   0.87359   0.00000  Uiso   1.00
H734   H     0.35138   0.24529   0.89064   0.00000  Uiso   1.00
H735   H     0.65774   0.19585   0.88550   0.00000  Uiso   1.00
O736   O     0.60929   0.09497   0.90325   0.00000  Uiso   1.00
H737   H     0.60891   0.08664   0.86697   0.00000  Uiso   1.00
C738   C     0.83325   0.24669   0.75012   0.00000  Uiso   1.00
C739   C     0.81095   0.15464   0.99205   0.00000  Uiso   1.00
C740   C     0.82162   0.14472   0.93690   0.00000  Uiso   1.00
C741   C     0.84838   0.15144   0.51370   0.00000  Uiso   1.00
C742   C     0.89299   0.13181   0.98356   0.00000  Uiso   1.00
C743   C     0.90017   0.11582   0.93156   0.00000  Uiso   1.00
C744   C     0.86425   0.12204   0.90890   0.00000  Uiso   1.00
C745   C     0.84288   0.16850   0.56428   0.00000  Uiso   1.00
C746   C     0.92067   0.14176   0.55973   0.00000  Uiso   1.00
C747   C     0.78947   0.15830   0.91110   0.00000  Uiso   1.00
C748   C     0.86879   0.31192   0.76360   0.00000  Uiso   1.00
C749   C     0.80663   0.16377   0.85210   0.00000  Uiso   1.00
C750   C     0.86898   0.02124   0.76334   0.00000  Uiso   1.00
C751   C     0.83358   0.04251   0.74965   0.00000  Uiso   1.00
C752   C     0.79810   0.02145   0.73602   0.00000  Uiso   1.00
C753   C     0.79795   0.31213   0.73623   0.00000  Uiso   1.00
C754   C     0.83325   0.29085   0.75008   0.00000  Uiso   1.00
C755   C     0.98498   0.13668   0.72162   0.00000  Uiso   1.00
C756   C     0.69996   0.13732   0.72140   0.00000  Uiso   1.00
C757   C     0.68117   0.19559   0.77978   0.00000  Uiso   1.00
C758   C     0.96678   0.19593   0.77867   0.00000  Uiso   1.00
C759   C     0.83345   0.08665   0.74982   0.00000  Uiso   1.00
C760   C     0.86020   0.16655   0.64767   0.00000  Uiso   1.00
C761   C     0.92925   0.12801   0.50669   0.00000  Uiso   1.00
C762   C     0.87665   0.16099   0.58898   0.00000  Uiso   1.00
C763   C     0.74278   0.17155   0.94249   0.00000  Uiso   1.00
C764   C     0.72926   0.17456   0.99860   0.00000  Uiso   1.00
C765   C     0.76322   0.16736   0.52330   0.00000  Uiso   1.00
H766   H     0.94743   0.13590   0.57836   0.00000  Uiso   1.00
H767   H     0.89635   0.03745   0.77431   0.00000  Uiso   1.00
H768   H     0.77082   0.03782   0.72488   0.00000  Uiso   1.00
H769   H     0.77067   0.29594   0.72510   0.00000  Uiso   1.00
H770   H     0.72636   0.11466   0.69829   0.00000  Uiso   1.00
H771   H     0.94111   0.21942   0.80105   0.00000  Uiso   1.00
H772   H     0.96351   0.11308   0.98473   0.00000  Uiso   1.00
H773   H     0.81143   0.18692   0.58630   0.00000  Uiso   1.00
H774   H     0.71718   0.18059   0.92360   0.00000  Uiso   1.00
H775   H     0.75085   0.17082   0.56695   0.00000  Uiso   1.00
H776   H     0.69297   0.18432   0.52281   0.00000  Uiso   1.00
H777   H     0.86962   0.10835   0.86947   0.00000  Uiso   1.00
H778   H     0.89608   0.29555   0.77471   0.00000  Uiso   1.00
N779   N     0.71426   0.16668   0.75002   0.00000  Uiso   1.00
N780   N     0.95239   0.16665   0.75000   0.00000  Uiso   1.00
O781   O     0.79512   0.22775   0.75001   0.00000  Uiso   1.00
O782   O     0.87157   0.22774   0.75000   0.00000  Uiso   1.00
O783   O     0.77613   0.16666   0.82681   0.00000  Uiso   1.00
O784   O     0.85258   0.16665   0.82681   0.00000  Uiso   1.00
O785   O     0.79510   0.10559   0.74999   0.00000  Uiso   1.00
O786   O     0.87154   0.10558   0.74999   0.00000  Uiso   1.00
O787   O     0.81409   0.16668   0.67319   0.00000  Uiso   1.00
O788   O     0.89053   0.16667   0.67319   0.00000  Uiso   1.00
Zn789  Zn    0.78229   0.16667   0.75000   0.00000  Uiso   1.00
Zn790  Zn    0.88438   0.16666   0.75000   0.00000  Uiso   1.00
N791   N     0.96976   0.10570   0.69215   0.00000  Uiso   1.00
H792   H     0.95671   0.11722   0.66348   0.00000  Uiso   1.00
C793   C     0.99668   0.06711   0.67687   0.00000  Uiso   1.00
H794   H     0.97518   0.04440   0.66300   0.00000  Uiso   1.00
H795   H     0.67031   0.05356   0.71232   0.00000  Uiso   1.00
H796   H     0.69789   0.07246   0.64292   0.00000  Uiso   1.00
N797   N     0.69517   0.22559   0.81114   0.00000  Uiso   1.00
H798   H     0.70094   0.25452   0.79325   0.00000  Uiso   1.00
C799   C     0.99876   0.22763   0.86813   0.00000  Uiso   1.00
H800   H     0.96414   0.24393   0.87359   0.00000  Uiso   1.00
H801   H     0.68471   0.24529   0.89064   0.00000  Uiso   1.00
H802   H     0.99108   0.19585   0.88550   0.00000  Uiso   1.00
O803   O     0.94263   0.09497   0.90325   0.00000  Uiso   1.00
H804   H     0.94224   0.08664   0.86697   0.00000  Uiso   1.00
C805   C     0.16658   0.58003   0.75012   0.00000  Uiso   1.00
C806   C     0.14429   0.48797   0.99205   0.00000  Uiso   1.00
C807   C     0.15496   0.47806   0.93690   0.00000  Uiso   1.00
C808   C     0.18172   0.48478   0.51370   0.00000  Uiso   1.00
C809   C     0.22632   0.46514   0.98356   0.00000  Uiso   1.00
C810   C     0.23351   0.44916   0.93156   0.00000  Uiso   1.00
C811   C     0.19758   0.45537   0.90890   0.00000  Uiso   1.00
C812   C     0.17621   0.50184   0.56428   0.00000  Uiso   1.00
C813   C     0.25400   0.47509   0.55973   0.00000  Uiso   1.00
C814   C     0.12280   0.49164   0.91110   0.00000  Uiso   1.00
C815   C     0.20212   0.64525   0.76360   0.00000  Uiso   1.00
C816   C     0.13996   0.49710   0.85210   0.00000  Uiso   1.00
C817   C     0.20231   0.35457   0.76334   0.00000  Uiso   1.00
C818   C     0.16692   0.37584   0.74965   0.00000  Uiso   1.00
C819   C     0.13144   0.35479   0.73602   0.00000  Uiso   1.00
C820   C     0.13128   0.64547   0.73623   0.00000  Uiso   1.00
C821   C     0.16658   0.62419   0.75008   0.00000  Uiso   1.00
C822   C     0.31832   0.47002   0.72162   0.00000  Uiso   1.00
C823   C     0.03329   0.47065   0.72140   0.00000  Uiso   1.00
C824   C     0.01450   0.52892   0.77978   0.00000  Uiso   1.00
C825   C     0.30011   0.52927   0.77867   0.00000  Uiso   1.00
C826   C     0.16679   0.41998   0.74982   0.00000  Uiso   1.00
C827   C     0.19354   0.49989   0.64767   0.00000  Uiso   1.00
C828   C     0.26258   0.46134   0.50669   0.00000  Uiso   1.00
C829   C     0.20998   0.49432   0.58898   0.00000  Uiso   1.00
C830   C     0.07611   0.50489   0.94249   0.00000  Uiso   1.00
C831   C     0.06260   0.50790   0.99860   0.00000  Uiso   1.00
C832   C     0.09656   0.50069   0.52330   0.00000  Uiso   1.00
H833   H     0.28076   0.46924   0.57836   0.00000  Uiso   1.00
H834   H     0.22969   0.37078   0.77431   0.00000  Uiso   1.00
H835   H     0.10416   0.37115   0.72488   0.00000  Uiso   1.00
H836   H     0.10400   0.62928   0.72510   0.00000  Uiso   1.00
H837   H     0.05970   0.44799   0.69829   0.00000  Uiso   1.00
H838   H     0.27445   0.55276   0.80105   0.00000  Uiso   1.00
H839   H     0.29685   0.44642   0.98473   0.00000  Uiso   1.00
H840   H     0.14477   0.52025   0.58630   0.00000  Uiso   1.00
H841   H     0.05052   0.51392   0.92360   0.00000  Uiso   1.00
H842   H     0.08418   0.50416   0.56695   0.00000  Uiso   1.00
H843   H     0.02630   0.51765   0.52281   0.00000  Uiso   1.00
H844   H     0.20296   0.44169   0.86947   0.00000  Uiso   1.00
H845   H     0.22942   0.62889   0.77471   0.00000  Uiso   1.00
N846   N     0.04760   0.50001   0.75002   0.00000  Uiso   1.00
N847   N     0.28573   0.49998   0.75000   0.00000  Uiso   1.00
O848   O     0.12846   0.56108   0.75001   0.00000  Uiso   1.00
O849   O     0.20490   0.56107   0.75000   0.00000  Uiso   1.00
O850   O     0.10947   0.50000   0.82681   0.00000  Uiso   1.00
O851   O     0.18591   0.49999   0.82681   0.00000  Uiso   1.00
O852   O     0.12843   0.43893   0.74999   0.00000  Uiso   1.00
O853   O     0.20488   0.43892   0.74999   0.00000  Uiso   1.00
O854   O     0.14742   0.50001   0.67319   0.00000  Uiso   1.00
O855   O     0.22387   0.50000   0.67319   0.00000  Uiso   1.00
Zn856  Zn    0.11562   0.50001   0.75000   0.00000  Uiso   1.00
Zn857  Zn    0.21771   0.49999   0.75000   0.00000  Uiso   1.00
N858   N     0.30309   0.43904   0.69215   0.00000  Uiso   1.00
H859   H     0.29005   0.45056   0.66348   0.00000  Uiso   1.00
C860   C     0.33002   0.40044   0.67687   0.00000  Uiso   1.00
H861   H     0.30851   0.37773   0.66300   0.00000  Uiso   1.00
H862   H     0.00365   0.38689   0.71232   0.00000  Uiso   1.00
H863   H     0.03122   0.40579   0.64292   0.00000  Uiso   1.00
N864   N     0.02850   0.55892   0.81114   0.00000  Uiso   1.00
H865   H     0.03428   0.58786   0.79325   0.00000  Uiso   1.00
C866   C     0.33209   0.56097   0.86813   0.00000  Uiso   1.00
H867   H     0.29748   0.57726   0.87359   0.00000  Uiso   1.00
H868   H     0.01804   0.57863   0.89064   0.00000  Uiso   1.00
H869   H     0.32441   0.52918   0.88550   0.00000  Uiso   1.00
O870   O     0.27596   0.42830   0.90325   0.00000  Uiso   1.00
H871   H     0.27558   0.41997   0.86697   0.00000  Uiso   1.00
C872   C     0.49991   0.58003   0.75012   0.00000  Uiso   1.00
C873   C     0.47762   0.48797   0.99205   0.00000  Uiso   1.00
C874   C     0.48829   0.47806   0.93690   0.00000  Uiso   1.00
C875   C     0.51505   0.48478   0.51370   0.00000  Uiso   1.00
C876   C     0.55966   0.46514   0.98356   0.00000  Uiso   1.00
C877   C     0.56684   0.44916   0.93156   0.00000  Uiso   1.00
C878   C     0.53091   0.45537   0.90890   0.00000  Uiso   1.00
C879   C     0.50954   0.50184   0.56428   0.00000  Uiso   1.00
C880   C     0.58733   0.47509   0.55973   0.00000  Uiso   1.00
C881   C     0.45613   0.49164   0.91110   0.00000  Uiso   1.00
C882   C     0.53546   0.64525   0.76360   0.00000  Uiso   1.00
C883   C     0.47329   0.49710   0.85210   0.00000  Uiso   1.00
C884   C     0.53565   0.35457   0.76334   0.00000  Uiso   1.00
C885   C     0.50025   0.37584   0.74965   0.00000  Uiso   1.00
C886   C     0.46477   0.35479   0.73602   0.00000  Uiso   1.00
C887   C     0.46461   0.64547   0.73623   0.00000  Uiso   1.00
C888   C     0.49991   0.62419   0.75008   0.00000  Uiso   1.00
C889   C     0.65165   0.47002   0.72162   0.00000  Uiso   1.00
C890   C     0.36663   0.47065   0.72140   0.00000  Uiso   1.00
C891   C     0.34783   0.52892   0.77978   0.00000  Uiso   1.00
C892   C     0.63345   0.52927   0.77867   0.00000  Uiso   1.00
C893   C     0.50012   0.41998   0.74982   0.00000  Uiso   1.00
C894   C     0.52687   0.49989   0.64767   0.00000  Uiso   1.00
C895   C     0.59592   0.46134   0.50669   0.00000  Uiso   1.00
C896   C     0.54332   0.49432   0.58898   0.00000  Uiso   1.00
C897   C     0.40944   0.50489   0.94249   0.00000  Uiso   1.00
C898   C     0.39593   0.50790   0.99860   0.00000  Uiso   1.00
C899   C     0.42989   0.50069   0.52330   0.00000  Uiso   1.00
H900   H     0.61409   0.46924   0.57836   0.00000  Uiso   1.00
H901   H     0.56302   0.37078   0.77431   0.00000  Uiso   1.00
H902   H     0.43749   0.37115   0.72488   0.00000  Uiso   1.00
H903   H     0.43734   0.62928   0.72510   0.00000  Uiso   1.00
H904   H     0.39303   0.44799   0.69829   0.00000  Uiso   1.00
H905   H     0.60778   0.55276   0.80105   0.00000  Uiso   1.00
H906   H     0.63018   0.44642   0.98473   0.00000  Uiso   1.00
H907   H     0.47810   0.52025   0.58630   0.00000  Uiso   1.00
H908   H     0.38385   0.51392   0.92360   0.00000  Uiso   1.00
H909   H     0.41751   0.50416   0.56695   0.00000  Uiso   1.00
H910   H     0.35964   0.51765   0.52281   0.00000  Uiso   1.00
H911   H     0.53629   0.44169   0.86947   0.00000  Uiso   1.00
H912   H     0.56275   0.62889   0.77471   0.00000  Uiso   1.00
N913   N     0.38093   0.50001   0.75002   0.00000  Uiso   1.00
N914   N     0.61906   0.49998   0.75000   0.00000  Uiso   1.00
O915   O     0.46179   0.56108   0.75001   0.00000  Uiso   1.00
O916   O     0.53823   0.56107   0.75000   0.00000  Uiso   1.00
O917   O     0.44280   0.50000   0.82681   0.00000  Uiso   1.00
O918   O     0.51924   0.49999   0.82681   0.00000  Uiso   1.00
O919   O     0.46177   0.43893   0.74999   0.00000  Uiso   1.00
O920   O     0.53821   0.43892   0.74999   0.00000  Uiso   1.00
O921   O     0.48076   0.50001   0.67319   0.00000  Uiso   1.00
O922   O     0.55720   0.50000   0.67319   0.00000  Uiso   1.00
Zn923  Zn    0.44896   0.50001   0.75000   0.00000  Uiso   1.00
Zn924  Zn    0.55104   0.49999   0.75000   0.00000  Uiso   1.00
N925   N     0.63642   0.43904   0.69215   0.00000  Uiso   1.00
H926   H     0.62338   0.45056   0.66348   0.00000  Uiso   1.00
C927   C     0.66335   0.40044   0.67687   0.00000  Uiso   1.00
H928   H     0.64185   0.37773   0.66300   0.00000  Uiso   1.00
H929   H     0.33698   0.38689   0.71232   0.00000  Uiso   1.00
H930   H     0.36456   0.40579   0.64292   0.00000  Uiso   1.00
N931   N     0.36183   0.55892   0.81114   0.00000  Uiso   1.00
H932   H     0.36761   0.58786   0.79325   0.00000  Uiso   1.00
C933   C     0.66542   0.56097   0.86813   0.00000  Uiso   1.00
H934   H     0.63081   0.57726   0.87359   0.00000  Uiso   1.00
H935   H     0.35138   0.57863   0.89064   0.00000  Uiso   1.00
H936   H     0.65774   0.52918   0.88550   0.00000  Uiso   1.00
O937   O     0.60929   0.42830   0.90325   0.00000  Uiso   1.00
H938   H     0.60891   0.41997   0.86697   0.00000  Uiso   1.00
C939   C     0.83325   0.58003   0.75012   0.00000  Uiso   1.00
C940   C     0.81095   0.48797   0.99205   0.00000  Uiso   1.00
C941   C     0.82162   0.47806   0.93690   0.00000  Uiso   1.00
C942   C     0.84838   0.48478   0.51370   0.00000  Uiso   1.00
C943   C     0.89299   0.46514   0.98356   0.00000  Uiso   1.00
C944   C     0.90017   0.44916   0.93156   0.00000  Uiso   1.00
C945   C     0.86425   0.45537   0.90890   0.00000  Uiso   1.00
C946   C     0.84288   0.50184   0.56428   0.00000  Uiso   1.00
C947   C     0.92067   0.47509   0.55973   0.00000  Uiso   1.00
C948   C     0.78947   0.49164   0.91110   0.00000  Uiso   1.00
C949   C     0.86879   0.64525   0.76360   0.00000  Uiso   1.00
C950   C     0.80663   0.49710   0.85210   0.00000  Uiso   1.00
C951   C     0.86898   0.35457   0.76334   0.00000  Uiso   1.00
C952   C     0.83358   0.37584   0.74965   0.00000  Uiso   1.00
C953   C     0.79810   0.35479   0.73602   0.00000  Uiso   1.00
C954   C     0.79795   0.64547   0.73623   0.00000  Uiso   1.00
C955   C     0.83325   0.62419   0.75008   0.00000  Uiso   1.00
C956   C     0.98498   0.47002   0.72162   0.00000  Uiso   1.00
C957   C     0.69996   0.47065   0.72140   0.00000  Uiso   1.00
C958   C     0.68117   0.52892   0.77978   0.00000  Uiso   1.00
C959   C     0.96678   0.52927   0.77867   0.00000  Uiso   1.00
C960   C     0.83345   0.41998   0.74982   0.00000  Uiso   1.00
C961   C     0.86020   0.49989   0.64767   0.00000  Uiso   1.00
C962   C     0.92925   0.46134   0.50669   0.00000  Uiso   1.00
C963   C     0.87665   0.49432   0.58898   0.00000  Uiso   1.00
C964   C     0.74278   0.50489   0.94249   0.00000  Uiso   1.00
C965   C     0.72926   0.50790   0.99860   0.00000  Uiso   1.00
C966   C     0.76322   0.50069   0.52330   0.00000  Uiso   1.00
H967   H     0.94743   0.46924   0.57836   0.00000  Uiso   1.00
H968   H     0.89635   0.37078   0.77431   0.00000  Uiso   1.00
H969   H     0.77082   0.37115   0.72488   0.00000  Uiso   1.00
H970   H     0.77067   0.62928   0.72510   0.00000  Uiso   1.00
H971   H     0.72636   0.44799   0.69829   0.00000  Uiso   1.00
H972   H     0.94111   0.55276   0.80105   0.00000  Uiso   1.00
H973   H     0.96351   0.44642   0.98473   0.00000  Uiso   1.00
H974   H     0.81143   0.52025   0.58630   0.00000  Uiso   1.00
H975   H     0.71718   0.51392   0.92360   0.00000  Uiso   1.00
H976   H     0.75085   0.50416   0.56695   0.00000  Uiso   1.00
H977   H     0.69297   0.51765   0.52281   0.00000  Uiso   1.00
H978   H     0.86962   0.44169   0.86947   0.00000  Uiso   1.00
H979   H     0.89608   0.62889   0.77471   0.00000  Uiso   1.00
N980   N     0.71426   0.50001   0.75002   0.00000  Uiso   1.00
N981   N     0.95239   0.49998   0.75000   0.00000  Uiso   1.00
O982   O     0.79512   0.56108   0.75001   0.00000  Uiso   1.00
O983   O     0.87157   0.56107   0.75000   0.00000  Uiso   1.00
O984   O     0.77613   0.50000   0.82681   0.00000  Uiso   1.00
O985   O     0.85258   0.49999   0.82681   0.00000  Uiso   1.00
O986   O     0.79510   0.43893   0.74999   0.00000  Uiso   1.00
O987   O     0.87154   0.43892   0.74999   0.00000  Uiso   1.00
O988   O     0.81409   0.50001   0.67319   0.00000  Uiso   1.00
O989   O     0.89053   0.50000   0.67319   0.00000  Uiso   1.00
Zn990  Zn    0.78229   0.50001   0.75000   0.00000  Uiso   1.00
Zn991  Zn    0.88438   0.49999   0.75000   0.00000  Uiso   1.00
N992   N     0.96976   0.43904   0.69215   0.00000  Uiso   1.00
H993   H     0.95671   0.45056   0.66348   0.00000  Uiso   1.00
C994   C     0.99668   0.40044   0.67687   0.00000  Uiso   1.00
H995   H     0.97518   0.37773   0.66300   0.00000  Uiso   1.00
H996   H     0.67031   0.38689   0.71232   0.00000  Uiso   1.00
H997   H     0.69789   0.40579   0.64292   0.00000  Uiso   1.00
N998   N     0.69517   0.55892   0.81114   0.00000  Uiso   1.00
H999   H     0.70094   0.58786   0.79325   0.00000  Uiso   1.00
C1000  C     0.99876   0.56097   0.86813   0.00000  Uiso   1.00
H1001  H     0.96414   0.57726   0.87359   0.00000  Uiso   1.00
H1002  H     0.68471   0.57863   0.89064   0.00000  Uiso   1.00
H1003  H     0.99108   0.52918   0.88550   0.00000  Uiso   1.00
O1004  O     0.94263   0.42830   0.90325   0.00000  Uiso   1.00
H1005  H     0.94224   0.41997   0.86697   0.00000  Uiso   1.00
C1006  C     0.16658   0.91336   0.75012   0.00000  Uiso   1.00
C1007  C     0.14429   0.82131   0.99205   0.00000  Uiso   1.00
C1008  C     0.15496   0.81139   0.93690   0.00000  Uiso   1.00
C1009  C     0.18172   0.81811   0.51370   0.00000  Uiso   1.00
C1010  C     0.22632   0.79848   0.98356   0.00000  Uiso   1.00
C1011  C     0.23351   0.78249   0.93156   0.00000  Uiso   1.00
C1012  C     0.19758   0.78871   0.90890   0.00000  Uiso   1.00
C1013  C     0.17621   0.83517   0.56428   0.00000  Uiso   1.00
C1014  C     0.25400   0.80843   0.55973   0.00000  Uiso   1.00
C1015  C     0.12280   0.82497   0.91110   0.00000  Uiso   1.00
C1016  C     0.20212   0.97859   0.76360   0.00000  Uiso   1.00
C1017  C     0.13996   0.83044   0.85210   0.00000  Uiso   1.00
C1018  C     0.20231   0.68791   0.76334   0.00000  Uiso   1.00
C1019  C     0.16692   0.70917   0.74965   0.00000  Uiso   1.00
C1020  C     0.13144   0.68812   0.73602   0.00000  Uiso   1.00
C1021  C     0.13128   0.97880   0.73623   0.00000  Uiso   1.00
C1022  C     0.16658   0.95752   0.75008   0.00000  Uiso   1.00
C1023  C     0.31832   0.80335   0.72162   0.00000  Uiso   1.00
C1024  C     0.03329   0.80399   0.72140   0.00000  Uiso   1.00
C1025  C     0.01450   0.86225   0.77978   0.00000  Uiso   1.00
C1026  C     0.30011   0.86260   0.77867   0.00000  Uiso   1.00
C1027  C     0.16679   0.75331   0.74982   0.00000  Uiso   1.00
C1028  C     0.19354   0.83322   0.64767   0.00000  Uiso   1.00
C1029  C     0.26258   0.79467   0.50669   0.00000  Uiso   1.00
C1030  C     0.20998   0.82765   0.58898   0.00000  Uiso   1.00
C1031  C     0.07611   0.83822   0.94249   0.00000  Uiso   1.00
C1032  C     0.06260   0.84123   0.99860   0.00000  Uiso   1.00
C1033  C     0.09656   0.83403   0.52330   0.00000  Uiso   1.00
H1034  H     0.28076   0.80257   0.57836   0.00000  Uiso   1.00
H1035  H     0.22969   0.70412   0.77431   0.00000  Uiso   1.00
H1036  H     0.10416   0.70449   0.72488   0.00000  Uiso   1.00
H1037  H     0.10400   0.96261   0.72510   0.00000  Uiso   1.00
H1038  H     0.05970   0.78132   0.69829   0.00000  Uiso   1.00
H1039  H     0.27445   0.88609   0.80105   0.00000  Uiso   1.00
H1040  H     0.29685   0.77975   0.98473   0.00000  Uiso   1.00
H1041  H     0.14477   0.85358   0.58630   0.00000  Uiso   1.00
H1042  H     0.05052   0.84725   0.92360   0.00000  Uiso   1.00
H1043  H     0.08418   0.83749   0.56695   0.00000  Uiso   1.00
H1044  H     0.02630   0.85099   0.52281   0.00000  Uiso   1.00
H1045  H     0.20296   0.77502   0.86947   0.00000  Uiso   1.00
H1046  H     0.22942   0.96222   0.77471   0.00000  Uiso   1.00
N1047  N     0.04760   0.83334   0.75002   0.00000  Uiso   1.00
N1048  N     0.28573   0.83331   0.75000   0.00000  Uiso   1.00
O1049  O     0.12846   0.89442   0.75001   0.00000  Uiso   1.00
O1050  O     0.20490   0.89441   0.75000   0.00000  Uiso   1.00
O1051  O     0.10947   0.83333   0.82681   0.00000  Uiso   1.00
O1052  O     0.18591   0.83332   0.82681   0.00000  Uiso   1.00
O1053  O     0.12843   0.77226   0.74999   0.00000  Uiso   1.00
O1054  O     0.20488   0.77225   0.74999   0.00000  Uiso   1.00
O1055  O     0.14742   0.83335   0.67319   0.00000  Uiso   1.00
O1056  O     0.22387   0.83334   0.67319   0.00000  Uiso   1.00
Zn1057 Zn    0.11562   0.83334   0.75000   0.00000  Uiso   1.00
Zn1058 Zn    0.21771   0.83333   0.75000   0.00000  Uiso   1.00
N1059  N     0.30309   0.77237   0.69215   0.00000  Uiso   1.00
H1060  H     0.29005   0.78389   0.66348   0.00000  Uiso   1.00
C1061  C     0.33002   0.73377   0.67687   0.00000  Uiso   1.00
H1062  H     0.30851   0.71106   0.66300   0.00000  Uiso   1.00
H1063  H     0.00365   0.72022   0.71232   0.00000  Uiso   1.00
H1064  H     0.03122   0.73912   0.64292   0.00000  Uiso   1.00
N1065  N     0.02850   0.89226   0.81114   0.00000  Uiso   1.00
H1066  H     0.03428   0.92119   0.79325   0.00000  Uiso   1.00
C1067  C     0.33209   0.89430   0.86813   0.00000  Uiso   1.00
H1068  H     0.29748   0.91060   0.87359   0.00000  Uiso   1.00
H1069  H     0.01804   0.91196   0.89064   0.00000  Uiso   1.00
H1070  H     0.32441   0.86251   0.88550   0.00000  Uiso   1.00
O1071  O     0.27596   0.76163   0.90325   0.00000  Uiso   1.00
H1072  H     0.27558   0.75331   0.86697   0.00000  Uiso   1.00
C1073  C     0.49991   0.91336   0.75012   0.00000  Uiso   1.00
C1074  C     0.47762   0.82131   0.99205   0.00000  Uiso   1.00
C1075  C     0.48829   0.81139   0.93690   0.00000  Uiso   1.00
C1076  C     0.51505   0.81811   0.51370   0.00000  Uiso   1.00
C1077  C     0.55966   0.79848   0.98356   0.00000  Uiso   1.00
C1078  C     0.56684   0.78249   0.93156   0.00000  Uiso   1.00
C1079  C     0.53091   0.78871   0.90890   0.00000  Uiso   1.00
C1080  C     0.50954   0.83517   0.56428   0.00000  Uiso   1.00
C1081  C     0.58733   0.80843   0.55973   0.00000  Uiso   1.00
C1082  C     0.45613   0.82497   0.91110   0.00000  Uiso   1.00
C1083  C     0.53546   0.97859   0.76360   0.00000  Uiso   1.00
C1084  C     0.47329   0.83044   0.85210   0.00000  Uiso   1.00
C1085  C     0.53565   0.68791   0.76334   0.00000  Uiso   1.00
C1086  C     0.50025   0.70917   0.74965   0.00000  Uiso   1.00
C1087  C     0.46477   0.68812   0.73602   0.00000  Uiso   1.00
C1088  C     0.46461   0.97880   0.73623   0.00000  Uiso   1.00
C1089  C     0.49991   0.95752   0.75008   0.00000  Uiso   1.00
C1090  C     0.65165   0.80335   0.72162   0.00000  Uiso   1.00
C1091  C     0.36663   0.80399   0.72140   0.00000  Uiso   1.00
C1092  C     0.34783   0.86225   0.77978   0.00000  Uiso   1.00
C1093  C     0.63345   0.86260   0.77867   0.00000  Uiso   1.00
C1094  C     0.50012   0.75331   0.74982   0.00000  Uiso   1.00
C1095  C     0.52687   0.83322   0.64767   0.00000  Uiso   1.00
C1096  C     0.59592   0.79467   0.50669   0.00000  Uiso   1.00
C1097  C     0.54332   0.82765   0.58898   0.00000  Uiso   1.00
C1098  C     0.40944   0.83822   0.94249   0.00000  Uiso   1.00
C1099  C     0.39593   0.84123   0.99860   0.00000  Uiso   1.00
C1100  C     0.42989   0.83403   0.52330   0.00000  Uiso   1.00
H1101  H     0.61409   0.80257   0.57836   0.00000  Uiso   1.00
H1102  H     0.56302   0.70412   0.77431   0.00000  Uiso   1.00
H1103  H     0.43749   0.70449   0.72488   0.00000  Uiso   1.00
H1104  H     0.43734   0.96261   0.72510   0.00000  Uiso   1.00
H1105  H     0.39303   0.78132   0.69829   0.00000  Uiso   1.00
H1106  H     0.60778   0.88609   0.80105   0.00000  Uiso   1.00
H1107  H     0.63018   0.77975   0.98473   0.00000  Uiso   1.00
H1108  H     0.47810   0.85358   0.58630   0.00000  Uiso   1.00
H1109  H     0.38385   0.84725   0.92360   0.00000  Uiso   1.00
H1110  H     0.41751   0.83749   0.56695   0.00000  Uiso   1.00
H1111  H     0.35964   0.85099   0.52281   0.00000  Uiso   1.00
H1112  H     0.53629   0.77502   0.86947   0.00000  Uiso   1.00
H1113  H     0.56275   0.96222   0.77471   0.00000  Uiso   1.00
N1114  N     0.38093   0.83334   0.75002   0.00000  Uiso   1.00
N1115  N     0.61906   0.83331   0.75000   0.00000  Uiso   1.00
O1116  O     0.46179   0.89442   0.75001   0.00000  Uiso   1.00
O1117  O     0.53823   0.89441   0.75000   0.00000  Uiso   1.00
O1118  O     0.44280   0.83333   0.82681   0.00000  Uiso   1.00
O1119  O     0.51924   0.83332   0.82681   0.00000  Uiso   1.00
O1120  O     0.46177   0.77226   0.74999   0.00000  Uiso   1.00
O1121  O     0.53821   0.77225   0.74999   0.00000  Uiso   1.00
O1122  O     0.48076   0.83335   0.67319   0.00000  Uiso   1.00
O1123  O     0.55720   0.83334   0.67319   0.00000  Uiso   1.00
Zn1124 Zn    0.44896   0.83334   0.75000   0.00000  Uiso   1.00
Zn1125 Zn    0.55104   0.83333   0.75000   0.00000  Uiso   1.00
N1126  N     0.63642   0.77237   0.69215   0.00000  Uiso   1.00
H1127  H     0.62338   0.78389   0.66348   0.00000  Uiso   1.00
C1128  C     0.66335   0.73377   0.67687   0.00000  Uiso   1.00
H1129  H     0.64185   0.71106   0.66300   0.00000  Uiso   1.00
H1130  H     0.33698   0.72022   0.71232   0.00000  Uiso   1.00
H1131  H     0.36456   0.73912   0.64292   0.00000  Uiso   1.00
N1132  N     0.36183   0.89226   0.81114   0.00000  Uiso   1.00
H1133  H     0.36761   0.92119   0.79325   0.00000  Uiso   1.00
C1134  C     0.66542   0.89430   0.86813   0.00000  Uiso   1.00
H1135  H     0.63081   0.91060   0.87359   0.00000  Uiso   1.00
H1136  H     0.35138   0.91196   0.89064   0.00000  Uiso   1.00
H1137  H     0.65774   0.86251   0.88550   0.00000  Uiso   1.00
O1138  O     0.60929   0.76163   0.90325   0.00000  Uiso   1.00
H1139  H     0.60891   0.75331   0.86697   0.00000  Uiso   1.00
C1140  C     0.83325   0.91336   0.75012   0.00000  Uiso   1.00
C1141  C     0.81095   0.82131   0.99205   0.00000  Uiso   1.00
C1142  C     0.82162   0.81139   0.93690   0.00000  Uiso   1.00
C1143  C     0.84838   0.81811   0.51370   0.00000  Uiso   1.00
C1144  C     0.89299   0.79848   0.98356   0.00000  Uiso   1.00
C1145  C     0.90017   0.78249   0.93156   0.00000  Uiso   1.00
C1146  C     0.86425   0.78871   0.90890   0.00000  Uiso   1.00
C1147  C     0.84288   0.83517   0.56428   0.00000  Uiso   1.00
C1148  C     0.92067   0.80843   0.55973   0.00000  Uiso   1.00
C1149  C     0.78947   0.82497   0.91110   0.00000  Uiso   1.00
C1150  C     0.86879   0.97859   0.76360   0.00000  Uiso   1.00
C1151  C     0.80663   0.83044   0.85210   0.00000  Uiso   1.00
C1152  C     0.86898   0.68791   0.76334   0.00000  Uiso   1.00
C1153  C     0.83358   0.70917   0.74965   0.00000  Uiso   1.00
C1154  C     0.79810   0.68812   0.73602   0.00000  Uiso   1.00
C1155  C     0.79795   0.97880   0.73623   0.00000  Uiso   1.00
C1156  C     0.83325   0.95752   0.75008   0.00000  Uiso   1.00
C1157  C     0.98498   0.80335   0.72162   0.00000  Uiso   1.00
C1158  C     0.69996   0.80399   0.72140   0.00000  Uiso   1.00
C1159  C     0.68117   0.86225   0.77978   0.00000  Uiso   1.00
C1160  C     0.96678   0.86260   0.77867   0.00000  Uiso   1.00
C1161  C     0.83345   0.75331   0.74982   0.00000  Uiso   1.00
C1162  C     0.86020   0.83322   0.64767   0.00000  Uiso   1.00
C1163  C     0.92925   0.79467   0.50669   0.00000  Uiso   1.00
C1164  C     0.87665   0.82765   0.58898   0.00000  Uiso   1.00
C1165  C     0.74278   0.83822   0.94249   0.00000  Uiso   1.00
C1166  C     0.72926   0.84123   0.99860   0.00000  Uiso   1.00
C1167  C     0.76322   0.83403   0.52330   0.00000  Uiso   1.00
H1168  H     0.94743   0.80257   0.57836   0.00000  Uiso   1.00
H1169  H     0.89635   0.70412   0.77431   0.00000  Uiso   1.00
H1170  H     0.77082   0.70449   0.72488   0.00000  Uiso   1.00
H1171  H     0.77067   0.96261   0.72510   0.00000  Uiso   1.00
H1172  H     0.72636   0.78132   0.69829   0.00000  Uiso   1.00
H1173  H     0.94111   0.88609   0.80105   0.00000  Uiso   1.00
H1174  H     0.96351   0.77975   0.98473   0.00000  Uiso   1.00
H1175  H     0.81143   0.85358   0.58630   0.00000  Uiso   1.00
H1176  H     0.71718   0.84725   0.92360   0.00000  Uiso   1.00
H1177  H     0.75085   0.83749   0.56695   0.00000  Uiso   1.00
H1178  H     0.69297   0.85099   0.52281   0.00000  Uiso   1.00
H1179  H     0.86962   0.77502   0.86947   0.00000  Uiso   1.00
H1180  H     0.89608   0.96222   0.77471   0.00000  Uiso   1.00
N1181  N     0.71426   0.83334   0.75002   0.00000  Uiso   1.00
N1182  N     0.95239   0.83331   0.75000   0.00000  Uiso   1.00
O1183  O     0.79512   0.89442   0.75001   0.00000  Uiso   1.00
O1184  O     0.87157   0.89441   0.75000   0.00000  Uiso   1.00
O1185  O     0.77613   0.83333   0.82681   0.00000  Uiso   1.00
O1186  O     0.85258   0.83332   0.82681   0.00000  Uiso   1.00
O1187  O     0.79510   0.77226   0.74999   0.00000  Uiso   1.00
O1188  O     0.87154   0.77225   0.74999   0.00000  Uiso   1.00
O1189  O     0.81409   0.83335   0.67319   0.00000  Uiso   1.00
O1190  O     0.89053   0.83334   0.67319   0.00000  Uiso   1.00
Zn1191 Zn    0.78229   0.83334   0.75000   0.00000  Uiso   1.00
Zn1192 Zn    0.88438   0.83333   0.75000   0.00000  Uiso   1.00
N1193  N     0.96976   0.77237   0.69215   0.00000  Uiso   1.00
H1194  H     0.95671   0.78389   0.66348   0.00000  Uiso   1.00
C1195  C     0.99668   0.73377   0.67687   0.00000  Uiso   1.00
H1196  H     0.97518   0.71106   0.66300   0.00000  Uiso   1.00
H1197  H     0.67031   0.72022   0.71232   0.00000  Uiso   1.00
H1198  H     0.69789   0.73912   0.64292   0.00000  Uiso   1.00
N1199  N     0.69517   0.89226   0.81114   0.00000  Uiso   1.00
H1200  H     0.70094   0.92119   0.79325   0.00000  Uiso   1.00
C1201  C     0.99876   0.89430   0.86813   0.00000  Uiso   1.00
H1202  H     0.96414   0.91060   0.87359   0.00000  Uiso   1.00
H1203  H     0.68471   0.91196   0.89064   0.00000  Uiso   1.00
H1204  H     0.99108   0.86251   0.88550   0.00000  Uiso   1.00
O1205  O     0.94263   0.76163   0.90325   0.00000  Uiso   1.00
H1206  H     0.94224   0.75331   0.86697   0.00000  Uiso   1.00
loop_
_geom_bond_atom_site_label_1
_geom_bond_atom_site_label_2
_geom_bond_distance
_geom_bond_site_symmetry_2
_ccdc_geom_bond_type
C1     O44     1.285   .     A
C1     O45     1.283   .     A
C1     C17     1.418   .     S
C2     C3      1.404   .     A
C2     C607    1.413   .     S
C2     C631    1.419   .     S
C3     C10     1.415   .     A
C3     C7      1.414   .     A
C4     C8      1.390   .     A
C4     C605    1.413   1_554 S
C4     C608    1.422   1_554 S
C5     C6      1.401   .     A
C5     C607    1.422   .     S
C5     C627    1.410   .     S
C6     C7      1.401   .     A
C6     O66     1.383   .     S
C7     H40     1.082   .     S
C8     C25     1.389   .     A
C8     H36     1.079   .     S
C9     H29     1.082   .     S
C9     C25     1.398   .     A
C9     C24     1.395   .     A
C10    C26     1.401   .     A
C10    C12     1.463   .     S
C11    H41     1.084   .     S
C11    C17     1.398   .     A
C11    C214    1.370   .     S
C12    O47     1.291   .     A
C12    O46     1.296   .     A
C13    C14     1.396   .     A
C13    H30     1.084   .     S
C13    C413    1.370   1_545 S
C14    C15     1.398   .     A
C14    C22     1.418   .     S
C15    H31     1.084   .     S
C15    C418    1.370   1_545 S
C16    H32     1.083   .     S
C16    C17     1.396   .     A
C16    C216    1.370   .     S
C18    N43     1.376   .     A
C18    N54     1.426   .     S
C18    C86     1.427   .     S
C19    N42     1.361   .     A
C19    H33     1.080   .     S
C19    C152    1.427   1_455 S
C20    N42     1.371   .     A
C20    N60     1.419   .     S
C20    C155    1.422   1_455 S
C21    H34     1.081   .     S
C21    N43     1.361   .     A
C21    C87     1.422   .     S
C22    O48     1.283   .     A
C22    O49     1.284   .     A
C23    C25     1.454   .     S
C23    O50     1.292   .     A
C23    O51     1.294   .     A
C24    C608    1.410   1_554 S
C24    H638    1.083   1_554 S
C26    H37     1.079   .     S
C26    C27     1.388   .     A
C27    C631    1.392   .     S
C27    H642    1.083   .     S
C28    H38     1.079   .     S
C28    C605    1.419   1_554 S
C28    C630    1.392   1_554 S
H35    C627    1.083   .     S
H39    C630    1.083   1_554 S
N42    Zn52    2.012   .     S
N43    Zn53    2.011   .     S
O44    Zn52    2.000   .     S
O45    Zn53    1.996   .     S
O46    Zn52    1.960   .     S
O47    Zn53    1.904   .     S
O48    Zn52    1.996   .     S
O49    Zn53    2.000   .     S
O50    Zn52    1.904   .     S
O51    Zn53    1.960   .     S
N54    C56     1.447   .     S
N54    H55     1.028   .     S
C56    H57     1.110   .     S
C56    H125    1.111   .     S
C56    H126    1.111   .     S
H58    C190    1.111   1_455 S
H59    C190    1.111   1_455 S
N60    H61     1.031   .     S
N60    C196    1.447   1_455 S
C62    H63     1.111   .     S
C62    H65     1.112   .     S
C62    N127    1.447   .     S
C62    H131    1.110   .     S
H64    C196    1.110   1_455 S
O66    H67     0.992   .     S
C68    O111    1.285   .     A
C68    O112    1.283   .     A
C68    C84     1.418   .     S
C69    C70     1.404   .     A
C69    C674    1.413   .     S
C69    C698    1.419   .     S
C70    C77     1.415   .     A
C70    C74     1.414   .     A
C71    C75     1.390   .     A
C71    C672    1.413   1_554 S
C71    C675    1.422   1_554 S
C72    C73     1.401   .     A
C72    C674    1.422   .     S
C72    C694    1.410   .     S
C73    C74     1.401   .     A
C73    O133    1.383   .     S
C74    H107    1.082   .     S
C75    C92     1.389   .     A
C75    H103    1.079   .     S
C76    H96     1.082   .     S
C76    C92     1.398   .     A
C76    C91     1.395   .     A
C77    C93     1.401   .     A
C77    C79     1.463   .     S
C78    H108    1.084   .     S
C78    C84     1.398   .     A
C78    C281    1.370   .     S
C79    O114    1.291   .     A
C79    O113    1.296   .     A
C80    C81     1.396   .     A
C80    H97     1.084   .     S
C80    C480    1.370   1_545 S
C81    C82     1.398   .     A
C81    C89     1.418   .     S
C82    H98     1.084   .     S
C82    C485    1.370   1_545 S
C83    H99     1.083   .     S
C83    C84     1.396   .     A
C83    C283    1.370   .     S
C85    N110    1.376   .     A
C85    N121    1.426   .     S
C85    C153    1.427   .     S
C86    N109    1.361   .     A
C86    H100    1.080   .     S
C87    N109    1.371   .     A
C87    N127    1.419   .     S
C88    H101    1.081   .     S
C88    N110    1.361   .     A
C88    C154    1.422   .     S
C89    O115    1.283   .     A
C89    O116    1.284   .     A
C90    C92     1.454   .     S
C90    O117    1.292   .     A
C90    O118    1.294   .     A
C91    C675    1.410   1_554 S
C91    H705    1.083   1_554 S
C93    H104    1.079   .     S
C93    C94     1.388   .     A
C94    C698    1.392   .     S
C94    H709    1.083   .     S
C95    H105    1.079   .     S
C95    C672    1.419   1_554 S
C95    C697    1.392   1_554 S
H102   C694    1.083   .     S
H106   C697    1.083   1_554 S
N109   Zn119   2.012   .     S
N110   Zn120   2.011   .     S
O111   Zn119   2.000   .     S
O112   Zn120   1.996   .     S
O113   Zn119   1.960   .     S
O114   Zn120   1.904   .     S
O115   Zn119   1.996   .     S
O116   Zn120   2.000   .     S
O117   Zn119   1.904   .     S
O118   Zn120   1.960   .     S
N121   C123    1.447   .     S
N121   H122    1.028   .     S
C123   H124    1.110   .     S
C123   H192    1.111   .     S
C123   H193    1.111   .     S
N127   H128    1.031   .     S
C129   H130    1.111   .     S
C129   H132    1.112   .     S
C129   N194    1.447   .     S
C129   H198    1.110   .     S
O133   H134    0.992   .     S
C135   O178    1.285   .     A
C135   O179    1.283   .     A
C135   C151    1.418   .     S
C136   C137    1.404   .     A
C136   C741    1.413   .     S
C136   C765    1.419   .     S
C137   C144    1.415   .     A
C137   C141    1.414   .     A
C138   C142    1.390   .     A
C138   C739    1.413   1_554 S
C138   C742    1.422   1_554 S
C139   C140    1.401   .     A
C139   C741    1.422   .     S
C139   C761    1.410   .     S
C140   C141    1.401   .     A
C140   O200    1.383   .     S
C141   H174    1.082   .     S
C142   C159    1.389   .     A
C142   H170    1.079   .     S
C143   H163    1.082   .     S
C143   C159    1.398   .     A
C143   C158    1.395   .     A
C144   C160    1.401   .     A
C144   C146    1.463   .     S
C145   H175    1.084   .     S
C145   C151    1.398   .     A
C145   C348    1.370   .     S
C146   O181    1.291   .     A
C146   O180    1.296   .     A
C147   C148    1.396   .     A
C147   H164    1.084   .     S
C147   C547    1.370   1_545 S
C148   C149    1.398   .     A
C148   C156    1.418   .     S
C149   H165    1.084   .     S
C149   C552    1.370   1_545 S
C150   H166    1.083   .     S
C150   C151    1.396   .     A
C150   C350    1.370   .     S
C152   N177    1.376   .     A
C152   N188    1.426   .     S
C152   C19     1.427   1_655 S
C153   N176    1.361   .     A
C153   H167    1.080   .     S
C154   N176    1.371   .     A
C154   N194    1.419   .     S
C155   H168    1.081   .     S
C155   N177    1.361   .     A
C155   C20     1.422   1_655 S
C156   O182    1.283   .     A
C156   O183    1.284   .     A
C157   C159    1.454   .     S
C157   O184    1.292   .     A
C157   O185    1.294   .     A
C158   C742    1.410   1_554 S
C158   H772    1.083   1_554 S
C160   H171    1.079   .     S
C160   C161    1.388   .     A
C161   C765    1.392   .     S
C161   H776    1.083   .     S
C162   H172    1.079   .     S
C162   C739    1.419   1_554 S
C162   C764    1.392   1_554 S
H169   C761    1.083   .     S
H173   C764    1.083   1_554 S
N176   Zn186   2.012   .     S
N177   Zn187   2.011   .     S
O178   Zn186   2.000   .     S
O179   Zn187   1.996   .     S
O180   Zn186   1.960   .     S
O181   Zn187   1.904   .     S
O182   Zn186   1.996   .     S
O183   Zn187   2.000   .     S
O184   Zn186   1.904   .     S
O185   Zn187   1.960   .     S
N188   C190    1.447   .     S
N188   H189    1.028   .     S
C190   H191    1.110   .     S
C190   H58     1.111   1_655 S
C190   H59     1.111   1_655 S
N194   H195    1.031   .     S
C196   H197    1.111   .     S
C196   H199    1.112   .     S
C196   N60     1.447   1_655 S
C196   H64     1.110   1_655 S
O200   H201    0.992   .     S
C202   O245    1.285   .     A
C202   O246    1.283   .     A
C202   C218    1.418   .     S
C203   C204    1.404   .     A
C203   C808    1.413   .     S
C203   C832    1.419   .     S
C204   C211    1.415   .     A
C204   C208    1.414   .     A
C205   C209    1.390   .     A
C205   C806    1.413   1_554 S
C205   C809    1.422   1_554 S
C206   C207    1.401   .     A
C206   C808    1.422   .     S
C206   C828    1.410   .     S
C207   C208    1.401   .     A
C207   O267    1.383   .     S
C208   H241    1.082   .     S
C209   C226    1.389   .     A
C209   H237    1.079   .     S
C210   H230    1.082   .     S
C210   C226    1.398   .     A
C210   C225    1.395   .     A
C211   C227    1.401   .     A
C211   C213    1.463   .     S
C212   H242    1.084   .     S
C212   C218    1.398   .     A
C212   C415    1.370   .     S
C213   O248    1.291   .     A
C213   O247    1.296   .     A
C214   C215    1.396   .     A
C214   H231    1.084   .     S
C215   C216    1.398   .     A
C215   C223    1.418   .     S
C216   H232    1.084   .     S
C217   H233    1.083   .     S
C217   C218    1.396   .     A
C217   C417    1.370   .     S
C219   N244    1.376   .     A
C219   N255    1.426   .     S
C219   C287    1.427   .     S
C220   N243    1.361   .     A
C220   H234    1.080   .     S
C220   C353    1.427   1_455 S
C221   N243    1.371   .     A
C221   N261    1.419   .     S
C221   C356    1.422   1_455 S
C222   H235    1.081   .     S
C222   N244    1.361   .     A
C222   C288    1.422   .     S
C223   O249    1.283   .     A
C223   O250    1.284   .     A
C224   C226    1.454   .     S
C224   O251    1.292   .     A
C224   O252    1.294   .     A
C225   C809    1.410   1_554 S
C225   H839    1.083   1_554 S
C227   H238    1.079   .     S
C227   C228    1.388   .     A
C228   C832    1.392   .     S
C228   H843    1.083   .     S
C229   H239    1.079   .     S
C229   C806    1.419   1_554 S
C229   C831    1.392   1_554 S
H236   C828    1.083   .     S
H240   C831    1.083   1_554 S
N243   Zn253   2.012   .     S
N244   Zn254   2.011   .     S
O245   Zn253   2.000   .     S
O246   Zn254   1.996   .     S
O247   Zn253   1.960   .     S
O248   Zn254   1.904   .     S
O249   Zn253   1.996   .     S
O250   Zn254   2.000   .     S
O251   Zn253   1.904   .     S
O252   Zn254   1.960   .     S
N255   C257    1.447   .     S
N255   H256    1.028   .     S
C257   H258    1.110   .     S
C257   H326    1.111   .     S
C257   H327    1.111   .     S
H259   C391    1.111   1_455 S
H260   C391    1.111   1_455 S
N261   H262    1.031   .     S
N261   C397    1.447   1_455 S
C263   H264    1.111   .     S
C263   H266    1.112   .     S
C263   N328    1.447   .     S
C263   H332    1.110   .     S
H265   C397    1.110   1_455 S
O267   H268    0.992   .     S
C269   O312    1.285   .     A
C269   O313    1.283   .     A
C269   C285    1.418   .     S
C270   C271    1.404   .     A
C270   C875    1.413   .     S
C270   C899    1.419   .     S
C271   C278    1.415   .     A
C271   C275    1.414   .     A
C272   C276    1.390   .     A
C272   C873    1.413   1_554 S
C272   C876    1.422   1_554 S
C273   C274    1.401   .     A
C273   C875    1.422   .     S
C273   C895    1.410   .     S
C274   C275    1.401   .     A
C274   O334    1.383   .     S
C275   H308    1.082   .     S
C276   C293    1.389   .     A
C276   H304    1.079   .     S
C277   H297    1.082   .     S
C277   C293    1.398   .     A
C277   C292    1.395   .     A
C278   C294    1.401   .     A
C278   C280    1.463   .     S
C279   H309    1.084   .     S
C279   C285    1.398   .     A
C279   C482    1.370   .     S
C280   O315    1.291   .     A
C280   O314    1.296   .     A
C281   C282    1.396   .     A
C281   H298    1.084   .     S
C282   C283    1.398   .     A
C282   C290    1.418   .     S
C283   H299    1.084   .     S
C284   H300    1.083   .     S
C284   C285    1.396   .     A
C284   C484    1.370   .     S
C286   N311    1.376   .     A
C286   N322    1.426   .     S
C286   C354    1.427   .     S
C287   N310    1.361   .     A
C287   H301    1.080   .     S
C288   N310    1.371   .     A
C288   N328    1.419   .     S
C289   H302    1.081   .     S
C289   N311    1.361   .     A
C289   C355    1.422   .     S
C290   O316    1.283   .     A
C290   O317    1.284   .     A
C291   C293    1.454   .     S
C291   O318    1.292   .     A
C291   O319    1.294   .     A
C292   C876    1.410   1_554 S
C292   H906    1.083   1_554 S
C294   H305    1.079   .     S
C294   C295    1.388   .     A
C295   C899    1.392   .     S
C295   H910    1.083   .     S
C296   H306    1.079   .     S
C296   C873    1.419   1_554 S
C296   C898    1.392   1_554 S
H303   C895    1.083   .     S
H307   C898    1.083   1_554 S
N310   Zn320   2.012   .     S
N311   Zn321   2.011   .     S
O312   Zn320   2.000   .     S
O313   Zn321   1.996   .     S
O314   Zn320   1.960   .     S
O315   Zn321   1.904   .     S
O316   Zn320   1.996   .     S
O317   Zn321   2.000   .     S
O318   Zn320   1.904   .     S
O319   Zn321   1.960   .     S
N322   C324    1.447   .     S
N322   H323    1.028   .     S
C324   H325    1.110   .     S
C324   H393    1.111   .     S
C324   H394    1.111   .     S
N328   H329    1.031   .     S
C330   H331    1.111   .     S
C330   H333    1.112   .     S
C330   N395    1.447   .     S
C330   H399    1.110   .     S
O334   H335    0.992   .     S
C336   O379    1.285   .     A
C336   O380    1.283   .     A
C336   C352    1.418   .     S
C337   C338    1.404   .     A
C337   C942    1.413   .     S
C337   C966    1.419   .     S
C338   C345    1.415   .     A
C338   C342    1.414   .     A
C339   C343    1.390   .     A
C339   C940    1.413   1_554 S
C339   C943    1.422   1_554 S
C340   C341    1.401   .     A
C340   C942    1.422   .     S
C340   C962    1.410   .     S
C341   C342    1.401   .     A
C341   O401    1.383   .     S
C342   H375    1.082   .     S
C343   C360    1.389   .     A
C343   H371    1.079   .     S
C344   H364    1.082   .     S
C344   C360    1.398   .     A
C344   C359    1.395   .     A
C345   C361    1.401   .     A
C345   C347    1.463   .     S
C346   H376    1.084   .     S
C346   C352    1.398   .     A
C346   C549    1.370   .     S
C347   O382    1.291   .     A
C347   O381    1.296   .     A
C348   C349    1.396   .     A
C348   H365    1.084   .     S
C349   C350    1.398   .     A
C349   C357    1.418   .     S
C350   H366    1.084   .     S
C351   H367    1.083   .     S
C351   C352    1.396   .     A
C351   C551    1.370   .     S
C353   N378    1.376   .     A
C353   N389    1.426   .     S
C353   C220    1.427   1_655 S
C354   N377    1.361   .     A
C354   H368    1.080   .     S
C355   N377    1.371   .     A
C355   N395    1.419   .     S
C356   H369    1.081   .     S
C356   N378    1.361   .     A
C356   C221    1.422   1_655 S
C357   O383    1.283   .     A
C357   O384    1.284   .     A
C358   C360    1.454   .     S
C358   O385    1.292   .     A
C358   O386    1.294   .     A
C359   C943    1.410   1_554 S
C359   H973    1.083   1_554 S
C361   H372    1.079   .     S
C361   C362    1.388   .     A
C362   C966    1.392   .     S
C362   H977    1.083   .     S
C363   H373    1.079   .     S
C363   C940    1.419   1_554 S
C363   C965    1.392   1_554 S
H370   C962    1.083   .     S
H374   C965    1.083   1_554 S
N377   Zn387   2.012   .     S
N378   Zn388   2.011   .     S
O379   Zn387   2.000   .     S
O380   Zn388   1.996   .     S
O381   Zn387   1.960   .     S
O382   Zn388   1.904   .     S
O383   Zn387   1.996   .     S
O384   Zn388   2.000   .     S
O385   Zn387   1.904   .     S
O386   Zn388   1.960   .     S
N389   C391    1.447   .     S
N389   H390    1.028   .     S
C391   H392    1.110   .     S
C391   H259    1.111   1_655 S
C391   H260    1.111   1_655 S
N395   H396    1.031   .     S
C397   H398    1.111   .     S
C397   H400    1.112   .     S
C397   N261    1.447   1_655 S
C397   H265    1.110   1_655 S
O401   H402    0.992   .     S
C403   O446    1.285   .     A
C403   O447    1.283   .     A
C403   C419    1.418   .     S
C404   C405    1.404   .     A
C404   C1009   1.413   .     S
C404   C1033   1.419   .     S
C405   C412    1.415   .     A
C405   C409    1.414   .     A
C406   C410    1.390   .     A
C406   C1007   1.413   1_554 S
C406   C1010   1.422   1_554 S
C407   C408    1.401   .     A
C407   C1009   1.422   .     S
C407   C1029   1.410   .     S
C408   C409    1.401   .     A
C408   O468    1.383   .     S
C409   H442    1.082   .     S
C410   C427    1.389   .     A
C410   H438    1.079   .     S
C411   H431    1.082   .     S
C411   C427    1.398   .     A
C411   C426    1.395   .     A
C412   C428    1.401   .     A
C412   C414    1.463   .     S
C413   H443    1.084   .     S
C413   C419    1.398   .     A
C413   C13     1.370   1_565 S
C414   O449    1.291   .     A
C414   O448    1.296   .     A
C415   C416    1.396   .     A
C415   H432    1.084   .     S
C416   C417    1.398   .     A
C416   C424    1.418   .     S
C417   H433    1.084   .     S
C418   H434    1.083   .     S
C418   C419    1.396   .     A
C418   C15     1.370   1_565 S
C420   N445    1.376   .     A
C420   N456    1.426   .     S
C420   C488    1.427   .     S
C421   N444    1.361   .     A
C421   H435    1.080   .     S
C421   C554    1.427   1_455 S
C422   N444    1.371   .     A
C422   N462    1.419   .     S
C422   C557    1.422   1_455 S
C423   H436    1.081   .     S
C423   N445    1.361   .     A
C423   C489    1.422   .     S
C424   O450    1.283   .     A
C424   O451    1.284   .     A
C425   C427    1.454   .     S
C425   O452    1.292   .     A
C425   O453    1.294   .     A
C426   C1010   1.410   1_554 S
C426   H1040   1.083   1_554 S
C428   H439    1.079   .     S
C428   C429    1.388   .     A
C429   C1033   1.392   .     S
C429   H1044   1.083   .     S
C430   H440    1.079   .     S
C430   C1007   1.419   1_554 S
C430   C1032   1.392   1_554 S
H437   C1029   1.083   .     S
H441   C1032   1.083   1_554 S
N444   Zn454   2.012   .     S
N445   Zn455   2.011   .     S
O446   Zn454   2.000   .     S
O447   Zn455   1.996   .     S
O448   Zn454   1.960   .     S
O449   Zn455   1.904   .     S
O450   Zn454   1.996   .     S
O451   Zn455   2.000   .     S
O452   Zn454   1.904   .     S
O453   Zn455   1.960   .     S
N456   C458    1.447   .     S
N456   H457    1.028   .     S
C458   H459    1.110   .     S
C458   H527    1.111   .     S
C458   H528    1.111   .     S
H460   C592    1.111   1_455 S
H461   C592    1.111   1_455 S
N462   H463    1.031   .     S
N462   C598    1.447   1_455 S
C464   H465    1.111   .     S
C464   H467    1.112   .     S
C464   N529    1.447   .     S
C464   H533    1.110   .     S
H466   C598    1.110   1_455 S
O468   H469    0.992   .     S
C470   O513    1.285   .     A
C470   O514    1.283   .     A
C470   C486    1.418   .     S
C471   C472    1.404   .     A
C471   C1076   1.413   .     S
C471   C1100   1.419   .     S
C472   C479    1.415   .     A
C472   C476    1.414   .     A
C473   C477    1.390   .     A
C473   C1074   1.413   1_554 S
C473   C1077   1.422   1_554 S
C474   C475    1.401   .     A
C474   C1076   1.422   .     S
C474   C1096   1.410   .     S
C475   C476    1.401   .     A
C475   O535    1.383   .     S
C476   H509    1.082   .     S
C477   C494    1.389   .     A
C477   H505    1.079   .     S
C478   H498    1.082   .     S
C478   C494    1.398   .     A
C478   C493    1.395   .     A
C479   C495    1.401   .     A
C479   C481    1.463   .     S
C480   H510    1.084   .     S
C480   C486    1.398   .     A
C480   C80     1.370   1_565 S
C481   O516    1.291   .     A
C481   O515    1.296   .     A
C482   C483    1.396   .     A
C482   H499    1.084   .     S
C483   C484    1.398   .     A
C483   C491    1.418   .     S
C484   H500    1.084   .     S
C485   H501    1.083   .     S
C485   C486    1.396   .     A
C485   C82     1.370   1_565 S
C487   N512    1.376   .     A
C487   N523    1.426   .     S
C487   C555    1.427   .     S
C488   N511    1.361   .     A
C488   H502    1.080   .     S
C489   N511    1.371   .     A
C489   N529    1.419   .     S
C490   H503    1.081   .     S
C490   N512    1.361   .     A
C490   C556    1.422   .     S
C491   O517    1.283   .     A
C491   O518    1.284   .     A
C492   C494    1.454   .     S
C492   O519    1.292   .     A
C492   O520    1.294   .     A
C493   C1077   1.410   1_554 S
C493   H1107   1.083   1_554 S
C495   H506    1.079   .     S
C495   C496    1.388   .     A
C496   C1100   1.392   .     S
C496   H1111   1.083   .     S
C497   H507    1.079   .     S
C497   C1074   1.419   1_554 S
C497   C1099   1.392   1_554 S
H504   C1096   1.083   .     S
H508   C1099   1.083   1_554 S
N511   Zn521   2.012   .     S
N512   Zn522   2.011   .     S
O513   Zn521   2.000   .     S
O514   Zn522   1.996   .     S
O515   Zn521   1.960   .     S
O516   Zn522   1.904   .     S
O517   Zn521   1.996   .     S
O518   Zn522   2.000   .     S
O519   Zn521   1.904   .     S
O520   Zn522   1.960   .     S
N523   C525    1.447   .     S
N523   H524    1.028   .     S
C525   H526    1.110   .     S
C525   H594    1.111   .     S
C525   H595    1.111   .     S
N529   H530    1.031   .     S
C531   H532    1.111   .     S
C531   H534    1.112   .     S
C531   N596    1.447   .     S
C531   H600    1.110   .     S
O535   H536    0.992   .     S
C537   O580    1.285   .     A
C537   O581    1.283   .     A
C537   C553    1.418   .     S
C538   C539    1.404   .     A
C538   C1143   1.413   .     S
C538   C1167   1.419   .     S
C539   C546    1.415   .     A
C539   C543    1.414   .     A
C540   C544    1.390   .     A
C540   C1141   1.413   1_554 S
C540   C1144   1.422   1_554 S
C541   C542    1.401   .     A
C541   C1143   1.422   .     S
C541   C1163   1.410   .     S
C542   C543    1.401   .     A
C542   O602    1.383   .     S
C543   H576    1.082   .     S
C544   C561    1.389   .     A
C544   H572    1.079   .     S
C545   H565    1.082   .     S
C545   C561    1.398   .     A
C545   C560    1.395   .     A
C546   C562    1.401   .     A
C546   C548    1.463   .     S
C547   H577    1.084   .     S
C547   C553    1.398   .     A
C547   C147    1.370   1_565 S
C548   O583    1.291   .     A
C548   O582    1.296   .     A
C549   C550    1.396   .     A
C549   H566    1.084   .     S
C550   C551    1.398   .     A
C550   C558    1.418   .     S
C551   H567    1.084   .     S
C552   H568    1.083   .     S
C552   C553    1.396   .     A
C552   C149    1.370   1_565 S
C554   N579    1.376   .     A
C554   N590    1.426   .     S
C554   C421    1.427   1_655 S
C555   N578    1.361   .     A
C555   H569    1.080   .     S
C556   N578    1.371   .     A
C556   N596    1.419   .     S
C557   H570    1.081   .     S
C557   N579    1.361   .     A
C557   C422    1.422   1_655 S
C558   O584    1.283   .     A
C558   O585    1.284   .     A
C559   C561    1.454   .     S
C559   O586    1.292   .     A
C559   O587    1.294   .     A
C560   C1144   1.410   1_554 S
C560   H1174   1.083   1_554 S
C562   H573    1.079   .     S
C562   C563    1.388   .     A
C563   C1167   1.392   .     S
C563   H1178   1.083   .     S
C564   H574    1.079   .     S
C564   C1141   1.419   1_554 S
C564   C1166   1.392   1_554 S
H571   C1163   1.083   .     S
H575   C1166   1.083   1_554 S
N578   Zn588   2.012   .     S
N579   Zn589   2.011   .     S
O580   Zn588   2.000   .     S
O581   Zn589   1.996   .     S
O582   Zn588   1.960   .     S
O583   Zn589   1.904   .     S
O584   Zn588   1.996   .     S
O585   Zn589   2.000   .     S
O586   Zn588   1.904   .     S
O587   Zn589   1.960   .     S
N590   C592    1.447   .     S
N590   H591    1.028   .     S
C592   H593    1.110   .     S
C592   H460    1.111   1_655 S
C592   H461    1.111   1_655 S
N596   H597    1.031   .     S
C598   H599    1.111   .     S
C598   H601    1.112   .     S
C598   N462    1.447   1_655 S
C598   H466    1.110   1_655 S
O602   H603    0.992   .     S
C604   O647    1.285   .     A
C604   O648    1.283   .     A
C604   C620    1.418   .     S
C605   C606    1.404   .     A
C605   C4      1.413   1_556 S
C605   C28     1.419   1_556 S
C606   C613    1.415   .     A
C606   C610    1.414   .     A
C607   C611    1.390   .     A
C608   C609    1.401   .     A
C608   C4      1.422   1_556 S
C608   C24     1.410   1_556 S
C609   C610    1.401   .     A
C609   O669    1.383   .     S
C610   H643    1.082   .     S
C611   C628    1.389   .     A
C611   H639    1.079   .     S
C612   H632    1.082   .     S
C612   C628    1.398   .     A
C612   C627    1.395   .     A
C613   C629    1.401   .     A
C613   C615    1.463   .     S
C614   H644    1.084   .     S
C614   C620    1.398   .     A
C614   C817    1.370   .     S
C615   O650    1.291   .     A
C615   O649    1.296   .     A
C616   C617    1.396   .     A
C616   H633    1.084   .     S
C616   C1016   1.370   1_545 S
C617   C618    1.398   .     A
C617   C625    1.418   .     S
C618   H634    1.084   .     S
C618   C1021   1.370   1_545 S
C619   H635    1.083   .     S
C619   C620    1.396   .     A
C619   C819    1.370   .     S
C621   N646    1.376   .     A
C621   N657    1.426   .     S
C621   C689    1.427   .     S
C622   N645    1.361   .     A
C622   H636    1.080   .     S
C622   C755    1.427   1_455 S
C623   N645    1.371   .     A
C623   N663    1.419   .     S
C623   C758    1.422   1_455 S
C624   H637    1.081   .     S
C624   N646    1.361   .     A
C624   C690    1.422   .     S
C625   O651    1.283   .     A
C625   O652    1.284   .     A
C626   C628    1.454   .     S
C626   O653    1.292   .     A
C626   O654    1.294   .     A
C629   H640    1.079   .     S
C629   C630    1.388   .     A
C630   C28     1.392   1_556 S
C630   H39     1.083   1_556 S
C631   H641    1.079   .     S
H638   C24     1.083   1_556 S
N645   Zn655   2.012   .     S
N646   Zn656   2.011   .     S
O647   Zn655   2.000   .     S
O648   Zn656   1.996   .     S
O649   Zn655   1.960   .     S
O650   Zn656   1.904   .     S
O651   Zn655   1.996   .     S
O652   Zn656   2.000   .     S
O653   Zn655   1.904   .     S
O654   Zn656   1.960   .     S
N657   C659    1.447   .     S
N657   H658    1.028   .     S
C659   H660    1.110   .     S
C659   H728    1.111   .     S
C659   H729    1.111   .     S
H661   C793    1.111   1_455 S
H662   C793    1.111   1_455 S
N663   H664    1.031   .     S
N663   C799    1.447   1_455 S
C665   H666    1.111   .     S
C665   H668    1.112   .     S
C665   N730    1.447   .     S
C665   H734    1.110   .     S
H667   C799    1.110   1_455 S
O669   H670    0.992   .     S
C671   O714    1.285   .     A
C671   O715    1.283   .     A
C671   C687    1.418   .     S
C672   C673    1.404   .     A
C672   C71     1.413   1_556 S
C672   C95     1.419   1_556 S
C673   C680    1.415   .     A
C673   C677    1.414   .     A
C674   C678    1.390   .     A
C675   C676    1.401   .     A
C675   C71     1.422   1_556 S
C675   C91     1.410   1_556 S
C676   C677    1.401   .     A
C676   O736    1.383   .     S
C677   H710    1.082   .     S
C678   C695    1.389   .     A
C678   H706    1.079   .     S
C679   H699    1.082   .     S
C679   C695    1.398   .     A
C679   C694    1.395   .     A
C680   C696    1.401   .     A
C680   C682    1.463   .     S
C681   H711    1.084   .     S
C681   C687    1.398   .     A
C681   C884    1.370   .     S
C682   O717    1.291   .     A
C682   O716    1.296   .     A
C683   C684    1.396   .     A
C683   H700    1.084   .     S
C683   C1083   1.370   1_545 S
C684   C685    1.398   .     A
C684   C692    1.418   .     S
C685   H701    1.084   .     S
C685   C1088   1.370   1_545 S
C686   H702    1.083   .     S
C686   C687    1.396   .     A
C686   C886    1.370   .     S
C688   N713    1.376   .     A
C688   N724    1.426   .     S
C688   C756    1.427   .     S
C689   N712    1.361   .     A
C689   H703    1.080   .     S
C690   N712    1.371   .     A
C690   N730    1.419   .     S
C691   H704    1.081   .     S
C691   N713    1.361   .     A
C691   C757    1.422   .     S
C692   O718    1.283   .     A
C692   O719    1.284   .     A
C693   C695    1.454   .     S
C693   O720    1.292   .     A
C693   O721    1.294   .     A
C696   H707    1.079   .     S
C696   C697    1.388   .     A
C697   C95     1.392   1_556 S
C697   H106    1.083   1_556 S
C698   H708    1.079   .     S
H705   C91     1.083   1_556 S
N712   Zn722   2.012   .     S
N713   Zn723   2.011   .     S
O714   Zn722   2.000   .     S
O715   Zn723   1.996   .     S
O716   Zn722   1.960   .     S
O717   Zn723   1.904   .     S
O718   Zn722   1.996   .     S
O719   Zn723   2.000   .     S
O720   Zn722   1.904   .     S
O721   Zn723   1.960   .     S
N724   C726    1.447   .     S
N724   H725    1.028   .     S
C726   H727    1.110   .     S
C726   H795    1.111   .     S
C726   H796    1.111   .     S
N730   H731    1.031   .     S
C732   H733    1.111   .     S
C732   H735    1.112   .     S
C732   N797    1.447   .     S
C732   H801    1.110   .     S
O736   H737    0.992   .     S
C738   O781    1.285   .     A
C738   O782    1.283   .     A
C738   C754    1.418   .     S
C739   C740    1.404   .     A
C739   C138    1.413   1_556 S
C739   C162    1.419   1_556 S
C740   C747    1.415   .     A
C740   C744    1.414   .     A
C741   C745    1.390   .     A
C742   C743    1.401   .     A
C742   C138    1.422   1_556 S
C742   C158    1.410   1_556 S
C743   C744    1.401   .     A
C743   O803    1.383   .     S
C744   H777    1.082   .     S
C745   C762    1.389   .     A
C745   H773    1.079   .     S
C746   H766    1.082   .     S
C746   C762    1.398   .     A
C746   C761    1.395   .     A
C747   C763    1.401   .     A
C747   C749    1.463   .     S
C748   H778    1.084   .     S
C748   C754    1.398   .     A
C748   C951    1.370   .     S
C749   O784    1.291   .     A
C749   O783    1.296   .     A
C750   C751    1.396   .     A
C750   H767    1.084   .     S
C750   C1150   1.370   1_545 S
C751   C752    1.398   .     A
C751   C759    1.418   .     S
C752   H768    1.084   .     S
C752   C1155   1.370   1_545 S
C753   H769    1.083   .     S
C753   C754    1.396   .     A
C753   C953    1.370   .     S
C755   N780    1.376   .     A
C755   N791    1.426   .     S
C755   C622    1.427   1_655 S
C756   N779    1.361   .     A
C756   H770    1.080   .     S
C757   N779    1.371   .     A
C757   N797    1.419   .     S
C758   H771    1.081   .     S
C758   N780    1.361   .     A
C758   C623    1.422   1_655 S
C759   O785    1.283   .     A
C759   O786    1.284   .     A
C760   C762    1.454   .     S
C760   O787    1.292   .     A
C760   O788    1.294   .     A
C763   H774    1.079   .     S
C763   C764    1.388   .     A
C764   C162    1.392   1_556 S
C764   H173    1.083   1_556 S
C765   H775    1.079   .     S
H772   C158    1.083   1_556 S
N779   Zn789   2.012   .     S
N780   Zn790   2.011   .     S
O781   Zn789   2.000   .     S
O782   Zn790   1.996   .     S
O783   Zn789   1.960   .     S
O784   Zn790   1.904   .     S
O785   Zn789   1.996   .     S
O786   Zn790   2.000   .     S
O787   Zn789   1.904   .     S
O788   Zn790   1.960   .     S
N791   C793    1.447   .     S
N791   H792    1.028   .     S
C793   H794    1.110   .     S
C793   H661    1.111   1_655 S
C793   H662    1.111   1_655 S
N797   H798    1.031   .     S
C799   H800    1.111   .     S
C799   H802    1.112   .     S
C799   N663    1.447   1_655 S
C799   H667    1.110   1_655 S
O803   H804    0.992   .     S
C805   O848    1.285   .     A
C805   O849    1.283   .     A
C805   C821    1.418   .     S
C806   C807    1.404   .     A
C806   C205    1.413   1_556 S
C806   C229    1.419   1_556 S
C807   C814    1.415   .     A
C807   C811    1.414   .     A
C808   C812    1.390   .     A
C809   C810    1.401   .     A
C809   C205    1.422   1_556 S
C809   C225    1.410   1_556 S
C810   C811    1.401   .     A
C810   O870    1.383   .     S
C811   H844    1.082   .     S
C812   C829    1.389   .     A
C812   H840    1.079   .     S
C813   H833    1.082   .     S
C813   C829    1.398   .     A
C813   C828    1.395   .     A
C814   C830    1.401   .     A
C814   C816    1.463   .     S
C815   H845    1.084   .     S
C815   C821    1.398   .     A
C815   C1018   1.370   .     S
C816   O851    1.291   .     A
C816   O850    1.296   .     A
C817   C818    1.396   .     A
C817   H834    1.084   .     S
C818   C819    1.398   .     A
C818   C826    1.418   .     S
C819   H835    1.084   .     S
C820   H836    1.083   .     S
C820   C821    1.396   .     A
C820   C1020   1.370   .     S
C822   N847    1.376   .     A
C822   N858    1.426   .     S
C822   C890    1.427   .     S
C823   N846    1.361   .     A
C823   H837    1.080   .     S
C823   C956    1.427   1_455 S
C824   N846    1.371   .     A
C824   N864    1.419   .     S
C824   C959    1.422   1_455 S
C825   H838    1.081   .     S
C825   N847    1.361   .     A
C825   C891    1.422   .     S
C826   O852    1.283   .     A
C826   O853    1.284   .     A
C827   C829    1.454   .     S
C827   O854    1.292   .     A
C827   O855    1.294   .     A
C830   H841    1.079   .     S
C830   C831    1.388   .     A
C831   C229    1.392   1_556 S
C831   H240    1.083   1_556 S
C832   H842    1.079   .     S
H839   C225    1.083   1_556 S
N846   Zn856   2.012   .     S
N847   Zn857   2.011   .     S
O848   Zn856   2.000   .     S
O849   Zn857   1.996   .     S
O850   Zn856   1.960   .     S
O851   Zn857   1.904   .     S
O852   Zn856   1.996   .     S
O853   Zn857   2.000   .     S
O854   Zn856   1.904   .     S
O855   Zn857   1.960   .     S
N858   C860    1.447   .     S
N858   H859    1.028   .     S
C860   H861    1.110   .     S
C860   H929    1.111   .     S
C860   H930    1.111   .     S
H862   C994    1.111   1_455 S
H863   C994    1.111   1_455 S
N864   H865    1.031   .     S
N864   C1000   1.447   1_455 S
C866   H867    1.111   .     S
C866   H869    1.112   .     S
C866   N931    1.447   .     S
C866   H935    1.110   .     S
H868   C1000   1.110   1_455 S
O870   H871    0.992   .     S
C872   O915    1.285   .     A
C872   O916    1.283   .     A
C872   C888    1.418   .     S
C873   C874    1.404   .     A
C873   C272    1.413   1_556 S
C873   C296    1.419   1_556 S
C874   C881    1.415   .     A
C874   C878    1.414   .     A
C875   C879    1.390   .     A
C876   C877    1.401   .     A
C876   C272    1.422   1_556 S
C876   C292    1.410   1_556 S
C877   C878    1.401   .     A
C877   O937    1.383   .     S
C878   H911    1.082   .     S
C879   C896    1.389   .     A
C879   H907    1.079   .     S
C880   H900    1.082   .     S
C880   C896    1.398   .     A
C880   C895    1.395   .     A
C881   C897    1.401   .     A
C881   C883    1.463   .     S
C882   H912    1.084   .     S
C882   C888    1.398   .     A
C882   C1085   1.370   .     S
C883   O918    1.291   .     A
C883   O917    1.296   .     A
C884   C885    1.396   .     A
C884   H901    1.084   .     S
C885   C886    1.398   .     A
C885   C893    1.418   .     S
C886   H902    1.084   .     S
C887   H903    1.083   .     S
C887   C888    1.396   .     A
C887   C1087   1.370   .     S
C889   N914    1.376   .     A
C889   N925    1.426   .     S
C889   C957    1.427   .     S
C890   N913    1.361   .     A
C890   H904    1.080   .     S
C891   N913    1.371   .     A
C891   N931    1.419   .     S
C892   H905    1.081   .     S
C892   N914    1.361   .     A
C892   C958    1.422   .     S
C893   O919    1.283   .     A
C893   O920    1.284   .     A
C894   C896    1.454   .     S
C894   O921    1.292   .     A
C894   O922    1.294   .     A
C897   H908    1.079   .     S
C897   C898    1.388   .     A
C898   C296    1.392   1_556 S
C898   H307    1.083   1_556 S
C899   H909    1.079   .     S
H906   C292    1.083   1_556 S
N913   Zn923   2.012   .     S
N914   Zn924   2.011   .     S
O915   Zn923   2.000   .     S
O916   Zn924   1.996   .     S
O917   Zn923   1.960   .     S
O918   Zn924   1.904   .     S
O919   Zn923   1.996   .     S
O920   Zn924   2.000   .     S
O921   Zn923   1.904   .     S
O922   Zn924   1.960   .     S
N925   C927    1.447   .     S
N925   H926    1.028   .     S
C927   H928    1.110   .     S
C927   H996    1.111   .     S
C927   H997    1.111   .     S
N931   H932    1.031   .     S
C933   H934    1.111   .     S
C933   H936    1.112   .     S
C933   N998    1.447   .     S
C933   H1002   1.110   .     S
O937   H938    0.992   .     S
C939   O982    1.285   .     A
C939   O983    1.283   .     A
C939   C955    1.418   .     S
C940   C941    1.404   .     A
C940   C339    1.413   1_556 S
C940   C363    1.419   1_556 S
C941   C948    1.415   .     A
C941   C945    1.414   .     A
C942   C946    1.390   .     A
C943   C944    1.401   .     A
C943   C339    1.422   1_556 S
C943   C359    1.410   1_556 S
C944   C945    1.401   .     A
C944   O1004   1.383   .     S
C945   H978    1.082   .     S
C946   C963    1.389   .     A
C946   H974    1.079   .     S
C947   H967    1.082   .     S
C947   C963    1.398   .     A
C947   C962    1.395   .     A
C948   C964    1.401   .     A
C948   C950    1.463   .     S
C949   H979    1.084   .     S
C949   C955    1.398   .     A
C949   C1152   1.370   .     S
C950   O985    1.291   .     A
C950   O984    1.296   .     A
C951   C952    1.396   .     A
C951   H968    1.084   .     S
C952   C953    1.398   .     A
C952   C960    1.418   .     S
C953   H969    1.084   .     S
C954   H970    1.083   .     S
C954   C955    1.396   .     A
C954   C1154   1.370   .     S
C956   N981    1.376   .     A
C956   N992    1.426   .     S
C956   C823    1.427   1_655 S
C957   N980    1.361   .     A
C957   H971    1.080   .     S
C958   N980    1.371   .     A
C958   N998    1.419   .     S
C959   H972    1.081   .     S
C959   N981    1.361   .     A
C959   C824    1.422   1_655 S
C960   O986    1.283   .     A
C960   O987    1.284   .     A
C961   C963    1.454   .     S
C961   O988    1.292   .     A
C961   O989    1.294   .     A
C964   H975    1.079   .     S
C964   C965    1.388   .     A
C965   C363    1.392   1_556 S
C965   H374    1.083   1_556 S
C966   H976    1.079   .     S
H973   C359    1.083   1_556 S
N980   Zn990   2.012   .     S
N981   Zn991   2.011   .     S
O982   Zn990   2.000   .     S
O983   Zn991   1.996   .     S
O984   Zn990   1.960   .     S
O985   Zn991   1.904   .     S
O986   Zn990   1.996   .     S
O987   Zn991   2.000   .     S
O988   Zn990   1.904   .     S
O989   Zn991   1.960   .     S
N992   C994    1.447   .     S
N992   H993    1.028   .     S
C994   H995    1.110   .     S
C994   H862    1.111   1_655 S
C994   H863    1.111   1_655 S
N998   H999    1.031   .     S
C1000  H1001   1.111   .     S
C1000  H1003   1.112   .     S
C1000  N864    1.447   1_655 S
C1000  H868    1.110   1_655 S
O1004  H1005   0.992   .     S
C1006  O1049   1.285   .     A
C1006  O1050   1.283   .     A
C1006  C1022   1.418   .     S
C1007  C1008   1.404   .     A
C1007  C406    1.413   1_556 S
C1007  C430    1.419   1_556 S
C1008  C1015   1.415   .     A
C1008  C1012   1.414   .     A
C1009  C1013   1.390   .     A
C1010  C1011   1.401   .     A
C1010  C406    1.422   1_556 S
C1010  C426    1.410   1_556 S
C1011  C1012   1.401   .     A
C1011  O1071   1.383   .     S
C1012  H1045   1.082   .     S
C1013  C1030   1.389   .     A
C1013  H1041   1.079   .     S
C1014  H1034   1.082   .     S
C1014  C1030   1.398   .     A
C1014  C1029   1.395   .     A
C1015  C1031   1.401   .     A
C1015  C1017   1.463   .     S
C1016  H1046   1.084   .     S
C1016  C1022   1.398   .     A
C1016  C616    1.370   1_565 S
C1017  O1052   1.291   .     A
C1017  O1051   1.296   .     A
C1018  C1019   1.396   .     A
C1018  H1035   1.084   .     S
C1019  C1020   1.398   .     A
C1019  C1027   1.418   .     S
C1020  H1036   1.084   .     S
C1021  H1037   1.083   .     S
C1021  C1022   1.396   .     A
C1021  C618    1.370   1_565 S
C1023  N1048   1.376   .     A
C1023  N1059   1.426   .     S
C1023  C1091   1.427   .     S
C1024  N1047   1.361   .     A
C1024  H1038   1.080   .     S
C1024  C1157   1.427   1_455 S
C1025  N1047   1.371   .     A
C1025  N1065   1.419   .     S
C1025  C1160   1.422   1_455 S
C1026  H1039   1.081   .     S
C1026  N1048   1.361   .     A
C1026  C1092   1.422   .     S
C1027  O1053   1.283   .     A
C1027  O1054   1.284   .     A
C1028  C1030   1.454   .     S
C1028  O1055   1.292   .     A
C1028  O1056   1.294   .     A
C1031  H1042   1.079   .     S
C1031  C1032   1.388   .     A
C1032  C430    1.392   1_556 S
C1032  H441    1.083   1_556 S
C1033  H1043   1.079   .     S
H1040  C426    1.083   1_556 S
N1047  Zn1057  2.012   .     S
N1048  Zn1058  2.011   .     S
O1049  Zn1057  2.000   .     S
O1050  Zn1058  1.996   .     S
O1051  Zn1057  1.960   .     S
O1052  Zn1058  1.904   .     S
O1053  Zn1057  1.996   .     S
O1054  Zn1058  2.000   .     S
O1055  Zn1057  1.904   .     S
O1056  Zn1058  1.960   .     S
N1059  C1061   1.447   .     S
N1059  H1060   1.028   .     S
C1061  H1062   1.110   .     S
C1061  H1130   1.111   .     S
C1061  H1131   1.111   .     S
H1063  C1195   1.111   1_455 S
H1064  C1195   1.111   1_455 S
N1065  H1066   1.031   .     S
N1065  C1201   1.447   1_455 S
C1067  H1068   1.111   .     S
C1067  H1070   1.112   .     S
C1067  N1132   1.447   .     S
C1067  H1136   1.110   .     S
H1069  C1201   1.110   1_455 S
O1071  H1072   0.992   .     S
C1073  O1116   1.285   .     A
C1073  O1117   1.283   .     A
C1073  C1089   1.418   .     S
C1074  C1075   1.404   .     A
C1074  C473    1.413   1_556 S
C1074  C497    1.419   1_556 S
C1075  C1082   1.415   .     A
C1075  C1079   1.414   .     A
C1076  C1080   1.390   .     A
C1077  C1078   1.401   .     A
C1077  C473    1.422   1_556 S
C1077  C493    1.410   1_556 S
C1078  C1079   1.401   .     A
C1078  O1138   1.383   .     S
C1079  H1112   1.082   .     S
C1080  C1097   1.389   .     A
C1080  H1108   1.079   .     S
C1081  H1101   1.082   .     S
C1081  C1097   1.398   .     A
C1081  C1096   1.395   .     A
C1082  C1098   1.401   .     A
C1082  C1084   1.463   .     S
C1083  H1113   1.084   .     S
C1083  C1089   1.398   .     A
C1083  C683    1.370   1_565 S
C1084  O1119   1.291   .     A
C1084  O1118   1.296   .     A
C1085  C1086   1.396   .     A
C1085  H1102   1.084   .     S
C1086  C1087   1.398   .     A
C1086  C1094   1.418   .     S
C1087  H1103   1.084   .     S
C1088  H1104   1.083   .     S
C1088  C1089   1.396   .     A
C1088  C685    1.370   1_565 S
C1090  N1115   1.376   .     A
C1090  N1126   1.426   .     S
C1090  C1158   1.427   .     S
C1091  N1114   1.361   .     A
C1091  H1105   1.080   .     S
C1092  N1114   1.371   .     A
C1092  N1132   1.419   .     S
C1093  H1106   1.081   .     S
C1093  N1115   1.361   .     A
C1093  C1159   1.422   .     S
C1094  O1120   1.283   .     A
C1094  O1121   1.284   .     A
C1095  C1097   1.454   .     S
C1095  O1122   1.292   .     A
C1095  O1123   1.294   .     A
C1098  H1109   1.079   .     S
C1098  C1099   1.388   .     A
C1099  C497    1.392   1_556 S
C1099  H508    1.083   1_556 S
C1100  H1110   1.079   .     S
H1107  C493    1.083   1_556 S
N1114  Zn1124  2.012   .     S
N1115  Zn1125  2.011   .     S
O1116  Zn1124  2.000   .     S
O1117  Zn1125  1.996   .     S
O1118  Zn1124  1.960   .     S
O1119  Zn1125  1.904   .     S
O1120  Zn1124  1.996   .     S
O1121  Zn1125  2.000   .     S
O1122  Zn1124  1.904   .     S
O1123  Zn1125  1.960   .     S
N1126  C1128   1.447   .     S
N1126  H1127   1.028   .     S
C1128  H1129   1.110   .     S
C1128  H1197   1.111   .     S
C1128  H1198   1.111   .     S
N1132  H1133   1.031   .     S
C1134  H1135   1.111   .     S
C1134  H1137   1.112   .     S
C1134  N1199   1.447   .     S
C1134  H1203   1.110   .     S
O1138  H1139   0.992   .     S
C1140  O1183   1.285   .     A
C1140  O1184   1.283   .     A
C1140  C1156   1.418   .     S
C1141  C1142   1.404   .     A
C1141  C540    1.413   1_556 S
C1141  C564    1.419   1_556 S
C1142  C1149   1.415   .     A
C1142  C1146   1.414   .     A
C1143  C1147   1.390   .     A
C1144  C1145   1.401   .     A
C1144  C540    1.422   1_556 S
C1144  C560    1.410   1_556 S
C1145  C1146   1.401   .     A
C1145  O1205   1.383   .     S
C1146  H1179   1.082   .     S
C1147  C1164   1.389   .     A
C1147  H1175   1.079   .     S
C1148  H1168   1.082   .     S
C1148  C1164   1.398   .     A
C1148  C1163   1.395   .     A
C1149  C1165   1.401   .     A
C1149  C1151   1.463   .     S
C1150  H1180   1.084   .     S
C1150  C1156   1.398   .     A
C1150  C750    1.370   1_565 S
C1151  O1186   1.291   .     A
C1151  O1185   1.296   .     A
C1152  C1153   1.396   .     A
C1152  H1169   1.084   .     S
C1153  C1154   1.398   .     A
C1153  C1161   1.418   .     S
C1154  H1170   1.084   .     S
C1155  H1171   1.083   .     S
C1155  C1156   1.396   .     A
C1155  C752    1.370   1_565 S
C1157  N1182   1.376   .     A
C1157  N1193   1.426   .     S
C1157  C1024   1.427   1_655 S
C1158  N1181   1.361   .     A
C1158  H1172   1.080   .     S
C1159  N1181   1.371   .     A
C1159  N1199   1.419   .     S
C1160  H1173   1.081   .     S
C1160  N1182   1.361   .     A
C1160  C1025   1.422   1_655 S
C1161  O1187   1.283   .     A
C1161  O1188   1.284   .     A
C1162  C1164   1.454   .     S
C1162  O1189   1.292   .     A
C1162  O1190   1.294   .     A
C1165  H1176   1.079   .     S
C1165  C1166   1.388   .     A
C1166  C564    1.392   1_556 S
C1166  H575    1.083   1_556 S
C1167  H1177   1.079   .     S
H1174  C560    1.083   1_556 S
N1181  Zn1191  2.012   .     S
N1182  Zn1192  2.011   .     S
O1183  Zn1191  2.000   .     S
O1184  Zn1192  1.996   .     S
O1185  Zn1191  1.960   .     S
O1186  Zn1192  1.904   .     S
O1187  Zn1191  1.996   .     S
O1188  Zn1192  2.000   .     S
O1189  Zn1191  1.904   .     S
O1190  Zn1192  1.960   .     S
N1193  C1195   1.447   .     S
N1193  H1194   1.028   .     S
C1195  H1196   1.110   .     S
C1195  H1063   1.111   1_655 S
C1195  H1064   1.111   1_655 S
N1199  H1200   1.031   .     S
C1201  H1202   1.111   .     S
C1201  H1204   1.112   .     S
C1201  N1065   1.447   1_655 S
C1201  H1069   1.110   1_655 S
O1205  H1206   0.992   .     S
