data_str_m2_o1_o18_pcu_sym.56
_audit_creation_date              2020-01-03
_audit_creation_method            'Materials Studio'
_symmetry_space_group_name_H-M    'P1'
_symmetry_Int_Tables_number       1
_symmetry_cell_setting            triclinic
loop_
_symmetry_equiv_pos_as_xyz
  x,y,z
_cell_length_a                    28.9812
_cell_length_b                    32.7804
_cell_length_c                    31.2238
_cell_angle_alpha                 90.9807
_cell_angle_beta                  72.6792
_cell_angle_gamma                 90.0331
loop_
_atom_site_label
_atom_site_type_symbol
_atom_site_fract_x
_atom_site_fract_y
_atom_site_fract_z
_atom_site_U_iso_or_equiv
_atom_site_adp_type
_atom_site_occupancy
O1     O     0.03958   0.10655   0.25000   0.00000  Uiso   1.00
O2     O     0.29375   0.22678   0.25000   0.00000  Uiso   1.00
O3     O     0.29372   0.10654   0.25000   0.00000  Uiso   1.00
O4     O     0.03961   0.22679   0.24999   0.00000  Uiso   1.00
C5     C     0.00110   0.08767   0.24603   0.00000  Uiso   1.00
C6     C     0.00045   0.24599   0.24856   0.00000  Uiso   1.00
O7     O     0.01852   0.16668   0.31491   0.00000  Uiso   1.00
O8     O     0.31481   0.16666   0.18508   0.00000  Uiso   1.00
O9     O     0.27267   0.16667   0.31492   0.00000  Uiso   1.00
O10    O     0.06067   0.16667   0.18508   0.00000  Uiso   1.00
C11    C     0.30559   0.16919   0.33600   0.00000  Uiso   1.00
C12    C     0.02785   0.16530   0.16386   0.00000  Uiso   1.00
Cu13   Cu    0.04689   0.16667   0.25000   0.00000  Uiso   1.00
Cu14   Cu    0.28645   0.16666   0.25000   0.00000  Uiso   1.00
C15    C     0.29010   0.17864   0.38483   0.00000  Uiso   1.00
C16    C     0.04455   0.16709   0.11427   0.00000  Uiso   1.00
C17    C     0.30620   0.20337   0.45275   0.00000  Uiso   1.00
C18    C     0.02959   0.17790   0.04302   0.00000  Uiso   1.00
C19    C     0.32304   0.19247   0.40730   0.00000  Uiso   1.00
C20    C     0.01323   0.16315   0.08698   0.00000  Uiso   1.00
C21    C     0.24084   0.17757   0.40879   0.00000  Uiso   1.00
C22    C     0.09377   0.17521   0.09376   0.00000  Uiso   1.00
C23    C     0.22441   0.18916   0.45452   0.00000  Uiso   1.00
C24    C     0.11087   0.18523   0.04841   0.00000  Uiso   1.00
C25    C     0.25775   0.20073   0.47717   0.00000  Uiso   1.00
C26    C     0.07738   0.19033   0.02442   0.00000  Uiso   1.00
C27    C     0.17514   0.19080   0.47814   0.00000  Uiso   1.00
C28    C     0.16029   0.19107   0.02569   0.00000  Uiso   1.00
C29    C     0.19416   0.20113   0.04813   0.00000  Uiso   1.00
C30    C     0.14097   0.19995   0.45613   0.00000  Uiso   1.00
C31    C     0.24159   0.21022   0.02364   0.00000  Uiso   1.00
C32    C     0.09344   0.20729   0.48151   0.00000  Uiso   1.00
H33    H     0.11868   0.17300   0.11332   0.00000  Uiso   1.00
H34    H     0.21530   0.16701   0.39188   0.00000  Uiso   1.00
H35    H     0.33084   0.21474   0.46899   0.00000  Uiso   1.00
H36    H     0.00636   0.17694   0.02204   0.00000  Uiso   1.00
H37    H     0.18325   0.20701   0.08392   0.00000  Uiso   1.00
H38    H     0.15258   0.20968   0.42158   0.00000  Uiso   1.00
C39    C     0.29267   0.02162   0.24175   0.00000  Uiso   1.00
C40    C     0.04615   0.31234   0.23298   0.00000  Uiso   1.00
C41    C     0.29164   0.31250   0.24622   0.00000  Uiso   1.00
C42    C     0.04639   0.02162   0.22917   0.00000  Uiso   1.00
C43    C     0.00158   0.29092   0.24369   0.00000  Uiso   1.00
C44    C     0.00237   0.04304   0.23911   0.00000  Uiso   1.00
C45    C     0.17942   0.15498   0.28684   0.00000  Uiso   1.00
C46    C     0.15396   0.17800   0.21303   0.00000  Uiso   1.00
H47    H     0.18782   0.14530   0.31659   0.00000  Uiso   1.00
H48    H     0.14559   0.18772   0.18329   0.00000  Uiso   1.00
C49    C     0.13025   0.15495   0.28681   0.00000  Uiso   1.00
C50    C     0.20318   0.17750   0.21287   0.00000  Uiso   1.00
H51    H     0.10274   0.14508   0.31645   0.00000  Uiso   1.00
H52    H     0.23074   0.18674   0.18295   0.00000  Uiso   1.00
N53    N     0.11736   0.16668   0.24999   0.00000  Uiso   1.00
N54    N     0.21597   0.16666   0.25001   0.00000  Uiso   1.00
N55    N     0.27187   0.23016   0.04584   0.00000  Uiso   1.00
H56    H     0.26578   0.22119   0.07856   0.00000  Uiso   1.00
C57    C     0.27117   0.27412   0.04270   0.00000  Uiso   1.00
H58    H     0.29464   0.28788   0.06133   0.00000  Uiso   1.00
H59    H     0.23384   0.28608   0.05779   0.00000  Uiso   1.00
H60    H     0.28472   0.28331   0.00706   0.00000  Uiso   1.00
N61    N     0.06955   0.24168   0.47054   0.00000  Uiso   1.00
H62    H     0.08359   0.25061   0.43778   0.00000  Uiso   1.00
C63    C     0.06419   0.27627   0.00114   0.00000  Uiso   1.00
H64    H     0.04372   0.30090   0.49075   0.00000  Uiso   1.00
H65    H     0.10031   0.28815   0.00055   0.00000  Uiso   1.00
H66    H     0.04411   0.26759   0.03589   0.00000  Uiso   1.00
N67    N     0.30017   0.14385   0.10292   0.00000  Uiso   1.00
H68    H     0.29480   0.12802   0.13204   0.00000  Uiso   1.00
C69    C     0.28381   0.11945   0.07109   0.00000  Uiso   1.00
H70    H     0.31181   0.09653   0.05401   0.00000  Uiso   1.00
H71    H     0.27482   0.13881   0.04601   0.00000  Uiso   1.00
H72    H     0.25023   0.10305   0.08907   0.00000  Uiso   1.00
N73    N     0.03961   0.19723   0.38438   0.00000  Uiso   1.00
H74    H     0.06207   0.18903   0.40295   0.00000  Uiso   1.00
C75    C     0.05135   0.23662   0.36394   0.00000  Uiso   1.00
H76    H     0.09102   0.23862   0.34828   0.00000  Uiso   1.00
H77    H     0.03950   0.26160   0.38936   0.00000  Uiso   1.00
H78    H     0.03294   0.24078   0.33786   0.00000  Uiso   1.00
N79    N     0.25130   0.04271   0.23724   0.00000  Uiso   1.00
H80    H     0.21795   0.03160   0.25465   0.00000  Uiso   1.00
C81    C     0.25515   0.05552   0.19203   0.00000  Uiso   1.00
H82    H     0.25335   0.02901   0.17013   0.00000  Uiso   1.00
H83    H     0.28995   0.07122   0.17684   0.00000  Uiso   1.00
H84    H     0.22536   0.07707   0.19291   0.00000  Uiso   1.00
N85    N     0.09081   0.29132   0.22672   0.00000  Uiso   1.00
H86    H     0.11850   0.29882   0.19861   0.00000  Uiso   1.00
C87    C     0.10571   0.28691   0.26683   0.00000  Uiso   1.00
H88    H     0.13806   0.30548   0.26493   0.00000  Uiso   1.00
H89    H     0.11525   0.25458   0.26985   0.00000  Uiso   1.00
H90    H     0.07684   0.29673   0.29753   0.00000  Uiso   1.00
N91    N     0.24677   0.29161   0.25442   0.00000  Uiso   1.00
H92    H     0.21894   0.30296   0.28083   0.00000  Uiso   1.00
C93    C     0.23276   0.28043   0.21502   0.00000  Uiso   1.00
H94    H     0.21704   0.30682   0.20270   0.00000  Uiso   1.00
H95    H     0.20436   0.25693   0.22417   0.00000  Uiso   1.00
H96    H     0.26399   0.26791   0.18792   0.00000  Uiso   1.00
N97    N     0.09058   0.04256   0.20959   0.00000  Uiso   1.00
H98    H     0.10922   0.03297   0.17747   0.00000  Uiso   1.00
C99    C     0.12091   0.05112   0.23793   0.00000  Uiso   1.00
H100   H     0.15314   0.03109   0.22767   0.00000  Uiso   1.00
H101   H     0.10131   0.04686   0.27403   0.00000  Uiso   1.00
H102   H     0.13356   0.08306   0.23306   0.00000  Uiso   1.00
O103   O     0.37291   0.10655   0.25000   0.00000  Uiso   1.00
O104   O     0.62709   0.22678   0.25000   0.00000  Uiso   1.00
O105   O     0.62706   0.10654   0.25000   0.00000  Uiso   1.00
O106   O     0.37294   0.22679   0.24999   0.00000  Uiso   1.00
C107   C     0.33443   0.08767   0.24603   0.00000  Uiso   1.00
C108   C     0.33379   0.24599   0.24856   0.00000  Uiso   1.00
O109   O     0.35186   0.16668   0.31491   0.00000  Uiso   1.00
O110   O     0.64814   0.16666   0.18508   0.00000  Uiso   1.00
O111   O     0.60600   0.16667   0.31492   0.00000  Uiso   1.00
O112   O     0.39400   0.16667   0.18508   0.00000  Uiso   1.00
C113   C     0.63893   0.16919   0.33600   0.00000  Uiso   1.00
C114   C     0.36118   0.16530   0.16386   0.00000  Uiso   1.00
Cu115  Cu    0.38022   0.16667   0.25000   0.00000  Uiso   1.00
Cu116  Cu    0.61978   0.16666   0.25000   0.00000  Uiso   1.00
C117   C     0.62343   0.17864   0.38483   0.00000  Uiso   1.00
C118   C     0.37789   0.16709   0.11427   0.00000  Uiso   1.00
C119   C     0.63953   0.20337   0.45275   0.00000  Uiso   1.00
C120   C     0.36292   0.17790   0.04302   0.00000  Uiso   1.00
C121   C     0.65638   0.19247   0.40730   0.00000  Uiso   1.00
C122   C     0.34656   0.16315   0.08698   0.00000  Uiso   1.00
C123   C     0.57417   0.17757   0.40879   0.00000  Uiso   1.00
C124   C     0.42710   0.17521   0.09376   0.00000  Uiso   1.00
C125   C     0.55774   0.18916   0.45452   0.00000  Uiso   1.00
C126   C     0.44420   0.18523   0.04841   0.00000  Uiso   1.00
C127   C     0.59108   0.20073   0.47717   0.00000  Uiso   1.00
C128   C     0.41071   0.19033   0.02442   0.00000  Uiso   1.00
C129   C     0.50848   0.19080   0.47814   0.00000  Uiso   1.00
C130   C     0.49362   0.19107   0.02569   0.00000  Uiso   1.00
C131   C     0.52750   0.20113   0.04813   0.00000  Uiso   1.00
C132   C     0.47430   0.19995   0.45613   0.00000  Uiso   1.00
C133   C     0.57492   0.21022   0.02364   0.00000  Uiso   1.00
C134   C     0.42678   0.20729   0.48151   0.00000  Uiso   1.00
H135   H     0.45201   0.17300   0.11332   0.00000  Uiso   1.00
H136   H     0.54863   0.16701   0.39188   0.00000  Uiso   1.00
H137   H     0.66417   0.21474   0.46899   0.00000  Uiso   1.00
H138   H     0.33970   0.17694   0.02204   0.00000  Uiso   1.00
H139   H     0.51658   0.20701   0.08392   0.00000  Uiso   1.00
H140   H     0.48591   0.20968   0.42158   0.00000  Uiso   1.00
C141   C     0.62601   0.02162   0.24175   0.00000  Uiso   1.00
C142   C     0.37948   0.31234   0.23298   0.00000  Uiso   1.00
C143   C     0.62498   0.31250   0.24622   0.00000  Uiso   1.00
C144   C     0.37972   0.02162   0.22917   0.00000  Uiso   1.00
C145   C     0.33492   0.29092   0.24369   0.00000  Uiso   1.00
C146   C     0.33571   0.04304   0.23911   0.00000  Uiso   1.00
C147   C     0.51276   0.15498   0.28684   0.00000  Uiso   1.00
C148   C     0.48729   0.17800   0.21303   0.00000  Uiso   1.00
H149   H     0.52115   0.14530   0.31659   0.00000  Uiso   1.00
H150   H     0.47892   0.18772   0.18329   0.00000  Uiso   1.00
C151   C     0.46358   0.15495   0.28681   0.00000  Uiso   1.00
C152   C     0.53651   0.17750   0.21287   0.00000  Uiso   1.00
H153   H     0.43608   0.14508   0.31645   0.00000  Uiso   1.00
H154   H     0.56408   0.18674   0.18295   0.00000  Uiso   1.00
N155   N     0.45069   0.16668   0.24999   0.00000  Uiso   1.00
N156   N     0.54931   0.16666   0.25001   0.00000  Uiso   1.00
N157   N     0.60520   0.23016   0.04584   0.00000  Uiso   1.00
H158   H     0.59911   0.22119   0.07856   0.00000  Uiso   1.00
C159   C     0.60450   0.27412   0.04270   0.00000  Uiso   1.00
H160   H     0.62797   0.28788   0.06133   0.00000  Uiso   1.00
H161   H     0.56718   0.28608   0.05779   0.00000  Uiso   1.00
H162   H     0.61806   0.28331   0.00706   0.00000  Uiso   1.00
N163   N     0.40288   0.24168   0.47054   0.00000  Uiso   1.00
H164   H     0.41693   0.25061   0.43778   0.00000  Uiso   1.00
C165   C     0.39753   0.27627   0.00114   0.00000  Uiso   1.00
H166   H     0.37706   0.30090   0.49075   0.00000  Uiso   1.00
H167   H     0.43365   0.28815   0.00055   0.00000  Uiso   1.00
H168   H     0.37745   0.26759   0.03589   0.00000  Uiso   1.00
N169   N     0.63350   0.14385   0.10292   0.00000  Uiso   1.00
H170   H     0.62813   0.12802   0.13204   0.00000  Uiso   1.00
C171   C     0.61715   0.11945   0.07109   0.00000  Uiso   1.00
H172   H     0.64514   0.09653   0.05401   0.00000  Uiso   1.00
H173   H     0.60815   0.13881   0.04601   0.00000  Uiso   1.00
H174   H     0.58356   0.10305   0.08907   0.00000  Uiso   1.00
N175   N     0.37294   0.19723   0.38438   0.00000  Uiso   1.00
H176   H     0.39540   0.18903   0.40295   0.00000  Uiso   1.00
C177   C     0.38468   0.23662   0.36394   0.00000  Uiso   1.00
H178   H     0.42435   0.23862   0.34828   0.00000  Uiso   1.00
H179   H     0.37284   0.26160   0.38936   0.00000  Uiso   1.00
H180   H     0.36627   0.24078   0.33786   0.00000  Uiso   1.00
N181   N     0.58464   0.04271   0.23724   0.00000  Uiso   1.00
H182   H     0.55129   0.03160   0.25465   0.00000  Uiso   1.00
C183   C     0.58849   0.05552   0.19203   0.00000  Uiso   1.00
H184   H     0.58668   0.02901   0.17013   0.00000  Uiso   1.00
H185   H     0.62329   0.07122   0.17684   0.00000  Uiso   1.00
H186   H     0.55870   0.07707   0.19291   0.00000  Uiso   1.00
N187   N     0.42414   0.29132   0.22672   0.00000  Uiso   1.00
H188   H     0.45183   0.29882   0.19861   0.00000  Uiso   1.00
C189   C     0.43904   0.28691   0.26683   0.00000  Uiso   1.00
H190   H     0.47139   0.30548   0.26493   0.00000  Uiso   1.00
H191   H     0.44858   0.25458   0.26985   0.00000  Uiso   1.00
H192   H     0.41018   0.29673   0.29753   0.00000  Uiso   1.00
N193   N     0.58010   0.29161   0.25442   0.00000  Uiso   1.00
H194   H     0.55227   0.30296   0.28083   0.00000  Uiso   1.00
C195   C     0.56609   0.28043   0.21502   0.00000  Uiso   1.00
H196   H     0.55037   0.30682   0.20270   0.00000  Uiso   1.00
H197   H     0.53770   0.25693   0.22417   0.00000  Uiso   1.00
H198   H     0.59732   0.26791   0.18792   0.00000  Uiso   1.00
N199   N     0.42391   0.04256   0.20959   0.00000  Uiso   1.00
H200   H     0.44256   0.03297   0.17747   0.00000  Uiso   1.00
C201   C     0.45425   0.05112   0.23793   0.00000  Uiso   1.00
H202   H     0.48647   0.03109   0.22767   0.00000  Uiso   1.00
H203   H     0.43464   0.04686   0.27403   0.00000  Uiso   1.00
H204   H     0.46689   0.08306   0.23306   0.00000  Uiso   1.00
O205   O     0.70625   0.10655   0.25000   0.00000  Uiso   1.00
O206   O     0.96042   0.22678   0.25000   0.00000  Uiso   1.00
O207   O     0.96039   0.10654   0.25000   0.00000  Uiso   1.00
O208   O     0.70628   0.22679   0.24999   0.00000  Uiso   1.00
C209   C     0.66776   0.08767   0.24603   0.00000  Uiso   1.00
C210   C     0.66712   0.24599   0.24856   0.00000  Uiso   1.00
O211   O     0.68519   0.16668   0.31491   0.00000  Uiso   1.00
O212   O     0.98148   0.16666   0.18508   0.00000  Uiso   1.00
O213   O     0.93933   0.16667   0.31492   0.00000  Uiso   1.00
O214   O     0.72733   0.16667   0.18508   0.00000  Uiso   1.00
C215   C     0.97226   0.16919   0.33600   0.00000  Uiso   1.00
C216   C     0.69451   0.16530   0.16386   0.00000  Uiso   1.00
Cu217  Cu    0.71355   0.16667   0.25000   0.00000  Uiso   1.00
Cu218  Cu    0.95311   0.16666   0.25000   0.00000  Uiso   1.00
C219   C     0.95677   0.17864   0.38483   0.00000  Uiso   1.00
C220   C     0.71122   0.16709   0.11427   0.00000  Uiso   1.00
C221   C     0.97287   0.20337   0.45275   0.00000  Uiso   1.00
C222   C     0.69626   0.17790   0.04302   0.00000  Uiso   1.00
C223   C     0.98971   0.19247   0.40730   0.00000  Uiso   1.00
C224   C     0.67989   0.16315   0.08698   0.00000  Uiso   1.00
C225   C     0.90750   0.17757   0.40879   0.00000  Uiso   1.00
C226   C     0.76043   0.17521   0.09376   0.00000  Uiso   1.00
C227   C     0.89108   0.18916   0.45452   0.00000  Uiso   1.00
C228   C     0.77753   0.18523   0.04841   0.00000  Uiso   1.00
C229   C     0.92441   0.20073   0.47717   0.00000  Uiso   1.00
C230   C     0.74405   0.19033   0.02442   0.00000  Uiso   1.00
C231   C     0.84181   0.19080   0.47814   0.00000  Uiso   1.00
C232   C     0.82695   0.19107   0.02569   0.00000  Uiso   1.00
C233   C     0.86083   0.20113   0.04813   0.00000  Uiso   1.00
C234   C     0.80763   0.19995   0.45613   0.00000  Uiso   1.00
C235   C     0.90826   0.21022   0.02364   0.00000  Uiso   1.00
C236   C     0.76011   0.20729   0.48151   0.00000  Uiso   1.00
H237   H     0.78535   0.17300   0.11332   0.00000  Uiso   1.00
H238   H     0.88196   0.16701   0.39188   0.00000  Uiso   1.00
H239   H     0.99751   0.21474   0.46899   0.00000  Uiso   1.00
H240   H     0.67303   0.17694   0.02204   0.00000  Uiso   1.00
H241   H     0.84991   0.20701   0.08392   0.00000  Uiso   1.00
H242   H     0.81925   0.20968   0.42158   0.00000  Uiso   1.00
C243   C     0.95934   0.02162   0.24175   0.00000  Uiso   1.00
C244   C     0.71281   0.31234   0.23298   0.00000  Uiso   1.00
C245   C     0.95831   0.31250   0.24622   0.00000  Uiso   1.00
C246   C     0.71306   0.02162   0.22917   0.00000  Uiso   1.00
C247   C     0.66825   0.29092   0.24369   0.00000  Uiso   1.00
C248   C     0.66904   0.04304   0.23911   0.00000  Uiso   1.00
C249   C     0.84609   0.15498   0.28684   0.00000  Uiso   1.00
C250   C     0.82062   0.17800   0.21303   0.00000  Uiso   1.00
H251   H     0.85449   0.14530   0.31659   0.00000  Uiso   1.00
H252   H     0.81225   0.18772   0.18329   0.00000  Uiso   1.00
C253   C     0.79691   0.15495   0.28681   0.00000  Uiso   1.00
C254   C     0.86985   0.17750   0.21287   0.00000  Uiso   1.00
H255   H     0.76941   0.14508   0.31645   0.00000  Uiso   1.00
H256   H     0.89741   0.18674   0.18295   0.00000  Uiso   1.00
N257   N     0.78403   0.16668   0.24999   0.00000  Uiso   1.00
N258   N     0.88264   0.16666   0.25001   0.00000  Uiso   1.00
N259   N     0.93853   0.23016   0.04584   0.00000  Uiso   1.00
H260   H     0.93244   0.22119   0.07856   0.00000  Uiso   1.00
C261   C     0.93784   0.27412   0.04270   0.00000  Uiso   1.00
H262   H     0.96131   0.28788   0.06133   0.00000  Uiso   1.00
H263   H     0.90051   0.28608   0.05779   0.00000  Uiso   1.00
H264   H     0.95139   0.28331   0.00706   0.00000  Uiso   1.00
N265   N     0.73622   0.24168   0.47054   0.00000  Uiso   1.00
H266   H     0.75026   0.25061   0.43778   0.00000  Uiso   1.00
C267   C     0.73086   0.27627   0.00114   0.00000  Uiso   1.00
H268   H     0.71039   0.30090   0.49075   0.00000  Uiso   1.00
H269   H     0.76698   0.28815   0.00055   0.00000  Uiso   1.00
H270   H     0.71078   0.26759   0.03589   0.00000  Uiso   1.00
N271   N     0.96684   0.14385   0.10292   0.00000  Uiso   1.00
H272   H     0.96146   0.12802   0.13204   0.00000  Uiso   1.00
C273   C     0.95048   0.11945   0.07109   0.00000  Uiso   1.00
H274   H     0.97848   0.09653   0.05401   0.00000  Uiso   1.00
H275   H     0.94148   0.13881   0.04601   0.00000  Uiso   1.00
H276   H     0.91690   0.10305   0.08907   0.00000  Uiso   1.00
N277   N     0.70628   0.19723   0.38438   0.00000  Uiso   1.00
H278   H     0.72873   0.18903   0.40295   0.00000  Uiso   1.00
C279   C     0.71801   0.23662   0.36394   0.00000  Uiso   1.00
H280   H     0.75769   0.23862   0.34828   0.00000  Uiso   1.00
H281   H     0.70617   0.26160   0.38936   0.00000  Uiso   1.00
H282   H     0.69961   0.24078   0.33786   0.00000  Uiso   1.00
N283   N     0.91797   0.04271   0.23724   0.00000  Uiso   1.00
H284   H     0.88462   0.03160   0.25465   0.00000  Uiso   1.00
C285   C     0.92182   0.05552   0.19203   0.00000  Uiso   1.00
H286   H     0.92002   0.02901   0.17013   0.00000  Uiso   1.00
H287   H     0.95662   0.07122   0.17684   0.00000  Uiso   1.00
H288   H     0.89203   0.07707   0.19291   0.00000  Uiso   1.00
N289   N     0.75747   0.29132   0.22672   0.00000  Uiso   1.00
H290   H     0.78516   0.29882   0.19861   0.00000  Uiso   1.00
C291   C     0.77237   0.28691   0.26683   0.00000  Uiso   1.00
H292   H     0.80472   0.30548   0.26493   0.00000  Uiso   1.00
H293   H     0.78191   0.25458   0.26985   0.00000  Uiso   1.00
H294   H     0.74351   0.29673   0.29753   0.00000  Uiso   1.00
N295   N     0.91343   0.29161   0.25442   0.00000  Uiso   1.00
H296   H     0.88560   0.30296   0.28083   0.00000  Uiso   1.00
C297   C     0.89942   0.28043   0.21502   0.00000  Uiso   1.00
H298   H     0.88371   0.30682   0.20270   0.00000  Uiso   1.00
H299   H     0.87103   0.25693   0.22417   0.00000  Uiso   1.00
H300   H     0.93065   0.26791   0.18792   0.00000  Uiso   1.00
N301   N     0.75724   0.04256   0.20959   0.00000  Uiso   1.00
H302   H     0.77589   0.03297   0.17747   0.00000  Uiso   1.00
C303   C     0.78758   0.05112   0.23793   0.00000  Uiso   1.00
H304   H     0.81980   0.03109   0.22767   0.00000  Uiso   1.00
H305   H     0.76797   0.04686   0.27403   0.00000  Uiso   1.00
H306   H     0.80023   0.08306   0.23306   0.00000  Uiso   1.00
O307   O     0.03958   0.43989   0.25000   0.00000  Uiso   1.00
O308   O     0.29375   0.56011   0.25000   0.00000  Uiso   1.00
O309   O     0.29372   0.43988   0.25000   0.00000  Uiso   1.00
O310   O     0.03961   0.56012   0.24999   0.00000  Uiso   1.00
C311   C     0.00110   0.42100   0.24603   0.00000  Uiso   1.00
C312   C     0.00045   0.57932   0.24856   0.00000  Uiso   1.00
O313   O     0.01852   0.50001   0.31491   0.00000  Uiso   1.00
O314   O     0.31481   0.49999   0.18508   0.00000  Uiso   1.00
O315   O     0.27267   0.50000   0.31492   0.00000  Uiso   1.00
O316   O     0.06067   0.50000   0.18508   0.00000  Uiso   1.00
C317   C     0.30559   0.50252   0.33600   0.00000  Uiso   1.00
C318   C     0.02785   0.49864   0.16386   0.00000  Uiso   1.00
Cu319  Cu    0.04689   0.50001   0.25000   0.00000  Uiso   1.00
Cu320  Cu    0.28645   0.49999   0.25000   0.00000  Uiso   1.00
C321   C     0.29010   0.51197   0.38483   0.00000  Uiso   1.00
C322   C     0.04455   0.50042   0.11427   0.00000  Uiso   1.00
C323   C     0.30620   0.53671   0.45275   0.00000  Uiso   1.00
C324   C     0.02959   0.51124   0.04302   0.00000  Uiso   1.00
C325   C     0.32304   0.52580   0.40730   0.00000  Uiso   1.00
C326   C     0.01323   0.49649   0.08698   0.00000  Uiso   1.00
C327   C     0.24084   0.51090   0.40879   0.00000  Uiso   1.00
C328   C     0.09377   0.50855   0.09376   0.00000  Uiso   1.00
C329   C     0.22441   0.52249   0.45452   0.00000  Uiso   1.00
C330   C     0.11087   0.51857   0.04841   0.00000  Uiso   1.00
C331   C     0.25775   0.53406   0.47717   0.00000  Uiso   1.00
C332   C     0.07738   0.52367   0.02442   0.00000  Uiso   1.00
C333   C     0.17514   0.52413   0.47814   0.00000  Uiso   1.00
C334   C     0.16029   0.52440   0.02569   0.00000  Uiso   1.00
C335   C     0.19416   0.53447   0.04813   0.00000  Uiso   1.00
C336   C     0.14097   0.53329   0.45613   0.00000  Uiso   1.00
C337   C     0.24159   0.54356   0.02364   0.00000  Uiso   1.00
C338   C     0.09344   0.54062   0.48151   0.00000  Uiso   1.00
H339   H     0.11868   0.50633   0.11332   0.00000  Uiso   1.00
H340   H     0.21530   0.50034   0.39188   0.00000  Uiso   1.00
H341   H     0.33084   0.54808   0.46899   0.00000  Uiso   1.00
H342   H     0.00636   0.51027   0.02204   0.00000  Uiso   1.00
H343   H     0.18325   0.54034   0.08392   0.00000  Uiso   1.00
H344   H     0.15258   0.54302   0.42158   0.00000  Uiso   1.00
C345   C     0.29267   0.35495   0.24175   0.00000  Uiso   1.00
C346   C     0.04615   0.64568   0.23298   0.00000  Uiso   1.00
C347   C     0.29164   0.64583   0.24622   0.00000  Uiso   1.00
C348   C     0.04639   0.35496   0.22917   0.00000  Uiso   1.00
C349   C     0.00158   0.62425   0.24369   0.00000  Uiso   1.00
C350   C     0.00237   0.37637   0.23911   0.00000  Uiso   1.00
C351   C     0.17942   0.48832   0.28684   0.00000  Uiso   1.00
C352   C     0.15396   0.51134   0.21303   0.00000  Uiso   1.00
H353   H     0.18782   0.47863   0.31659   0.00000  Uiso   1.00
H354   H     0.14559   0.52105   0.18329   0.00000  Uiso   1.00
C355   C     0.13025   0.48828   0.28681   0.00000  Uiso   1.00
C356   C     0.20318   0.51083   0.21287   0.00000  Uiso   1.00
H357   H     0.10274   0.47842   0.31645   0.00000  Uiso   1.00
H358   H     0.23074   0.52008   0.18295   0.00000  Uiso   1.00
N359   N     0.11736   0.50001   0.24999   0.00000  Uiso   1.00
N360   N     0.21597   0.49999   0.25001   0.00000  Uiso   1.00
N361   N     0.27187   0.56350   0.04584   0.00000  Uiso   1.00
H362   H     0.26578   0.55452   0.07856   0.00000  Uiso   1.00
C363   C     0.27117   0.60745   0.04270   0.00000  Uiso   1.00
H364   H     0.29464   0.62122   0.06133   0.00000  Uiso   1.00
H365   H     0.23384   0.61941   0.05779   0.00000  Uiso   1.00
H366   H     0.28472   0.61665   0.00706   0.00000  Uiso   1.00
N367   N     0.06955   0.57502   0.47054   0.00000  Uiso   1.00
H368   H     0.08359   0.58394   0.43778   0.00000  Uiso   1.00
C369   C     0.06419   0.60961   0.00114   0.00000  Uiso   1.00
H370   H     0.04372   0.63423   0.49075   0.00000  Uiso   1.00
H371   H     0.10031   0.62149   0.00055   0.00000  Uiso   1.00
H372   H     0.04411   0.60092   0.03589   0.00000  Uiso   1.00
N373   N     0.30017   0.47719   0.10292   0.00000  Uiso   1.00
H374   H     0.29480   0.46135   0.13204   0.00000  Uiso   1.00
C375   C     0.28381   0.45278   0.07109   0.00000  Uiso   1.00
H376   H     0.31181   0.42986   0.05401   0.00000  Uiso   1.00
H377   H     0.27482   0.47215   0.04601   0.00000  Uiso   1.00
H378   H     0.25023   0.43638   0.08907   0.00000  Uiso   1.00
N379   N     0.03961   0.53056   0.38438   0.00000  Uiso   1.00
H380   H     0.06207   0.52236   0.40295   0.00000  Uiso   1.00
C381   C     0.05135   0.56995   0.36394   0.00000  Uiso   1.00
H382   H     0.09102   0.57195   0.34828   0.00000  Uiso   1.00
H383   H     0.03950   0.59493   0.38936   0.00000  Uiso   1.00
H384   H     0.03294   0.57412   0.33786   0.00000  Uiso   1.00
N385   N     0.25130   0.37604   0.23724   0.00000  Uiso   1.00
H386   H     0.21795   0.36493   0.25465   0.00000  Uiso   1.00
C387   C     0.25515   0.38885   0.19203   0.00000  Uiso   1.00
H388   H     0.25335   0.36235   0.17013   0.00000  Uiso   1.00
H389   H     0.28995   0.40455   0.17684   0.00000  Uiso   1.00
H390   H     0.22536   0.41041   0.19291   0.00000  Uiso   1.00
N391   N     0.09081   0.62466   0.22672   0.00000  Uiso   1.00
H392   H     0.11850   0.63215   0.19861   0.00000  Uiso   1.00
C393   C     0.10571   0.62024   0.26683   0.00000  Uiso   1.00
H394   H     0.13806   0.63882   0.26493   0.00000  Uiso   1.00
H395   H     0.11525   0.58792   0.26985   0.00000  Uiso   1.00
H396   H     0.07684   0.63006   0.29753   0.00000  Uiso   1.00
N397   N     0.24677   0.62495   0.25442   0.00000  Uiso   1.00
H398   H     0.21894   0.63629   0.28083   0.00000  Uiso   1.00
C399   C     0.23276   0.61376   0.21502   0.00000  Uiso   1.00
H400   H     0.21704   0.64015   0.20270   0.00000  Uiso   1.00
H401   H     0.20436   0.59026   0.22417   0.00000  Uiso   1.00
H402   H     0.26399   0.60124   0.18792   0.00000  Uiso   1.00
N403   N     0.09058   0.37589   0.20959   0.00000  Uiso   1.00
H404   H     0.10922   0.36630   0.17747   0.00000  Uiso   1.00
C405   C     0.12091   0.38445   0.23793   0.00000  Uiso   1.00
H406   H     0.15314   0.36443   0.22767   0.00000  Uiso   1.00
H407   H     0.10131   0.38019   0.27403   0.00000  Uiso   1.00
H408   H     0.13356   0.41639   0.23306   0.00000  Uiso   1.00
O409   O     0.37291   0.43989   0.25000   0.00000  Uiso   1.00
O410   O     0.62709   0.56011   0.25000   0.00000  Uiso   1.00
O411   O     0.62706   0.43988   0.25000   0.00000  Uiso   1.00
O412   O     0.37294   0.56012   0.24999   0.00000  Uiso   1.00
C413   C     0.33443   0.42100   0.24603   0.00000  Uiso   1.00
C414   C     0.33379   0.57932   0.24856   0.00000  Uiso   1.00
O415   O     0.35186   0.50001   0.31491   0.00000  Uiso   1.00
O416   O     0.64814   0.49999   0.18508   0.00000  Uiso   1.00
O417   O     0.60600   0.50000   0.31492   0.00000  Uiso   1.00
O418   O     0.39400   0.50000   0.18508   0.00000  Uiso   1.00
C419   C     0.63893   0.50252   0.33600   0.00000  Uiso   1.00
C420   C     0.36118   0.49864   0.16386   0.00000  Uiso   1.00
Cu421  Cu    0.38022   0.50001   0.25000   0.00000  Uiso   1.00
Cu422  Cu    0.61978   0.49999   0.25000   0.00000  Uiso   1.00
C423   C     0.62343   0.51197   0.38483   0.00000  Uiso   1.00
C424   C     0.37789   0.50042   0.11427   0.00000  Uiso   1.00
C425   C     0.63953   0.53671   0.45275   0.00000  Uiso   1.00
C426   C     0.36292   0.51124   0.04302   0.00000  Uiso   1.00
C427   C     0.65638   0.52580   0.40730   0.00000  Uiso   1.00
C428   C     0.34656   0.49649   0.08698   0.00000  Uiso   1.00
C429   C     0.57417   0.51090   0.40879   0.00000  Uiso   1.00
C430   C     0.42710   0.50855   0.09376   0.00000  Uiso   1.00
C431   C     0.55774   0.52249   0.45452   0.00000  Uiso   1.00
C432   C     0.44420   0.51857   0.04841   0.00000  Uiso   1.00
C433   C     0.59108   0.53406   0.47717   0.00000  Uiso   1.00
C434   C     0.41071   0.52367   0.02442   0.00000  Uiso   1.00
C435   C     0.50848   0.52413   0.47814   0.00000  Uiso   1.00
C436   C     0.49362   0.52440   0.02569   0.00000  Uiso   1.00
C437   C     0.52750   0.53447   0.04813   0.00000  Uiso   1.00
C438   C     0.47430   0.53329   0.45613   0.00000  Uiso   1.00
C439   C     0.57492   0.54356   0.02364   0.00000  Uiso   1.00
C440   C     0.42678   0.54062   0.48151   0.00000  Uiso   1.00
H441   H     0.45201   0.50633   0.11332   0.00000  Uiso   1.00
H442   H     0.54863   0.50034   0.39188   0.00000  Uiso   1.00
H443   H     0.66417   0.54808   0.46899   0.00000  Uiso   1.00
H444   H     0.33970   0.51027   0.02204   0.00000  Uiso   1.00
H445   H     0.51658   0.54034   0.08392   0.00000  Uiso   1.00
H446   H     0.48591   0.54302   0.42158   0.00000  Uiso   1.00
C447   C     0.62601   0.35495   0.24175   0.00000  Uiso   1.00
C448   C     0.37948   0.64568   0.23298   0.00000  Uiso   1.00
C449   C     0.62498   0.64583   0.24622   0.00000  Uiso   1.00
C450   C     0.37972   0.35496   0.22917   0.00000  Uiso   1.00
C451   C     0.33492   0.62425   0.24369   0.00000  Uiso   1.00
C452   C     0.33571   0.37637   0.23911   0.00000  Uiso   1.00
C453   C     0.51276   0.48832   0.28684   0.00000  Uiso   1.00
C454   C     0.48729   0.51134   0.21303   0.00000  Uiso   1.00
H455   H     0.52115   0.47863   0.31659   0.00000  Uiso   1.00
H456   H     0.47892   0.52105   0.18329   0.00000  Uiso   1.00
C457   C     0.46358   0.48828   0.28681   0.00000  Uiso   1.00
C458   C     0.53651   0.51083   0.21287   0.00000  Uiso   1.00
H459   H     0.43608   0.47842   0.31645   0.00000  Uiso   1.00
H460   H     0.56408   0.52008   0.18295   0.00000  Uiso   1.00
N461   N     0.45069   0.50001   0.24999   0.00000  Uiso   1.00
N462   N     0.54931   0.49999   0.25001   0.00000  Uiso   1.00
N463   N     0.60520   0.56350   0.04584   0.00000  Uiso   1.00
H464   H     0.59911   0.55452   0.07856   0.00000  Uiso   1.00
C465   C     0.60450   0.60745   0.04270   0.00000  Uiso   1.00
H466   H     0.62797   0.62122   0.06133   0.00000  Uiso   1.00
H467   H     0.56718   0.61941   0.05779   0.00000  Uiso   1.00
H468   H     0.61806   0.61665   0.00706   0.00000  Uiso   1.00
N469   N     0.40288   0.57502   0.47054   0.00000  Uiso   1.00
H470   H     0.41693   0.58394   0.43778   0.00000  Uiso   1.00
C471   C     0.39753   0.60961   0.00114   0.00000  Uiso   1.00
H472   H     0.37706   0.63423   0.49075   0.00000  Uiso   1.00
H473   H     0.43365   0.62149   0.00055   0.00000  Uiso   1.00
H474   H     0.37745   0.60092   0.03589   0.00000  Uiso   1.00
N475   N     0.63350   0.47719   0.10292   0.00000  Uiso   1.00
H476   H     0.62813   0.46135   0.13204   0.00000  Uiso   1.00
C477   C     0.61715   0.45278   0.07109   0.00000  Uiso   1.00
H478   H     0.64514   0.42986   0.05401   0.00000  Uiso   1.00
H479   H     0.60815   0.47215   0.04601   0.00000  Uiso   1.00
H480   H     0.58356   0.43638   0.08907   0.00000  Uiso   1.00
N481   N     0.37294   0.53056   0.38438   0.00000  Uiso   1.00
H482   H     0.39540   0.52236   0.40295   0.00000  Uiso   1.00
C483   C     0.38468   0.56995   0.36394   0.00000  Uiso   1.00
H484   H     0.42435   0.57195   0.34828   0.00000  Uiso   1.00
H485   H     0.37284   0.59493   0.38936   0.00000  Uiso   1.00
H486   H     0.36627   0.57412   0.33786   0.00000  Uiso   1.00
N487   N     0.58464   0.37604   0.23724   0.00000  Uiso   1.00
H488   H     0.55129   0.36493   0.25465   0.00000  Uiso   1.00
C489   C     0.58849   0.38885   0.19203   0.00000  Uiso   1.00
H490   H     0.58668   0.36235   0.17013   0.00000  Uiso   1.00
H491   H     0.62329   0.40455   0.17684   0.00000  Uiso   1.00
H492   H     0.55870   0.41041   0.19291   0.00000  Uiso   1.00
N493   N     0.42414   0.62466   0.22672   0.00000  Uiso   1.00
H494   H     0.45183   0.63215   0.19861   0.00000  Uiso   1.00
C495   C     0.43904   0.62024   0.26683   0.00000  Uiso   1.00
H496   H     0.47139   0.63882   0.26493   0.00000  Uiso   1.00
H497   H     0.44858   0.58792   0.26985   0.00000  Uiso   1.00
H498   H     0.41018   0.63006   0.29753   0.00000  Uiso   1.00
N499   N     0.58010   0.62495   0.25442   0.00000  Uiso   1.00
H500   H     0.55227   0.63629   0.28083   0.00000  Uiso   1.00
C501   C     0.56609   0.61376   0.21502   0.00000  Uiso   1.00
H502   H     0.55037   0.64015   0.20270   0.00000  Uiso   1.00
H503   H     0.53770   0.59026   0.22417   0.00000  Uiso   1.00
H504   H     0.59732   0.60124   0.18792   0.00000  Uiso   1.00
N505   N     0.42391   0.37589   0.20959   0.00000  Uiso   1.00
H506   H     0.44256   0.36630   0.17747   0.00000  Uiso   1.00
C507   C     0.45425   0.38445   0.23793   0.00000  Uiso   1.00
H508   H     0.48647   0.36443   0.22767   0.00000  Uiso   1.00
H509   H     0.43464   0.38019   0.27403   0.00000  Uiso   1.00
H510   H     0.46689   0.41639   0.23306   0.00000  Uiso   1.00
O511   O     0.70625   0.43989   0.25000   0.00000  Uiso   1.00
O512   O     0.96042   0.56011   0.25000   0.00000  Uiso   1.00
O513   O     0.96039   0.43988   0.25000   0.00000  Uiso   1.00
O514   O     0.70628   0.56012   0.24999   0.00000  Uiso   1.00
C515   C     0.66776   0.42100   0.24603   0.00000  Uiso   1.00
C516   C     0.66712   0.57932   0.24856   0.00000  Uiso   1.00
O517   O     0.68519   0.50001   0.31491   0.00000  Uiso   1.00
O518   O     0.98148   0.49999   0.18508   0.00000  Uiso   1.00
O519   O     0.93933   0.50000   0.31492   0.00000  Uiso   1.00
O520   O     0.72733   0.50000   0.18508   0.00000  Uiso   1.00
C521   C     0.97226   0.50252   0.33600   0.00000  Uiso   1.00
C522   C     0.69451   0.49864   0.16386   0.00000  Uiso   1.00
Cu523  Cu    0.71355   0.50001   0.25000   0.00000  Uiso   1.00
Cu524  Cu    0.95311   0.49999   0.25000   0.00000  Uiso   1.00
C525   C     0.95677   0.51197   0.38483   0.00000  Uiso   1.00
C526   C     0.71122   0.50042   0.11427   0.00000  Uiso   1.00
C527   C     0.97287   0.53671   0.45275   0.00000  Uiso   1.00
C528   C     0.69626   0.51124   0.04302   0.00000  Uiso   1.00
C529   C     0.98971   0.52580   0.40730   0.00000  Uiso   1.00
C530   C     0.67989   0.49649   0.08698   0.00000  Uiso   1.00
C531   C     0.90750   0.51090   0.40879   0.00000  Uiso   1.00
C532   C     0.76043   0.50855   0.09376   0.00000  Uiso   1.00
C533   C     0.89108   0.52249   0.45452   0.00000  Uiso   1.00
C534   C     0.77753   0.51857   0.04841   0.00000  Uiso   1.00
C535   C     0.92441   0.53406   0.47717   0.00000  Uiso   1.00
C536   C     0.74405   0.52367   0.02442   0.00000  Uiso   1.00
C537   C     0.84181   0.52413   0.47814   0.00000  Uiso   1.00
C538   C     0.82695   0.52440   0.02569   0.00000  Uiso   1.00
C539   C     0.86083   0.53447   0.04813   0.00000  Uiso   1.00
C540   C     0.80763   0.53329   0.45613   0.00000  Uiso   1.00
C541   C     0.90826   0.54356   0.02364   0.00000  Uiso   1.00
C542   C     0.76011   0.54062   0.48151   0.00000  Uiso   1.00
H543   H     0.78535   0.50633   0.11332   0.00000  Uiso   1.00
H544   H     0.88196   0.50034   0.39188   0.00000  Uiso   1.00
H545   H     0.99751   0.54808   0.46899   0.00000  Uiso   1.00
H546   H     0.67303   0.51027   0.02204   0.00000  Uiso   1.00
H547   H     0.84991   0.54034   0.08392   0.00000  Uiso   1.00
H548   H     0.81925   0.54302   0.42158   0.00000  Uiso   1.00
C549   C     0.95934   0.35495   0.24175   0.00000  Uiso   1.00
C550   C     0.71281   0.64568   0.23298   0.00000  Uiso   1.00
C551   C     0.95831   0.64583   0.24622   0.00000  Uiso   1.00
C552   C     0.71306   0.35496   0.22917   0.00000  Uiso   1.00
C553   C     0.66825   0.62425   0.24369   0.00000  Uiso   1.00
C554   C     0.66904   0.37637   0.23911   0.00000  Uiso   1.00
C555   C     0.84609   0.48832   0.28684   0.00000  Uiso   1.00
C556   C     0.82062   0.51134   0.21303   0.00000  Uiso   1.00
H557   H     0.85449   0.47863   0.31659   0.00000  Uiso   1.00
H558   H     0.81225   0.52105   0.18329   0.00000  Uiso   1.00
C559   C     0.79691   0.48828   0.28681   0.00000  Uiso   1.00
C560   C     0.86985   0.51083   0.21287   0.00000  Uiso   1.00
H561   H     0.76941   0.47842   0.31645   0.00000  Uiso   1.00
H562   H     0.89741   0.52008   0.18295   0.00000  Uiso   1.00
N563   N     0.78403   0.50001   0.24999   0.00000  Uiso   1.00
N564   N     0.88264   0.49999   0.25001   0.00000  Uiso   1.00
N565   N     0.93853   0.56350   0.04584   0.00000  Uiso   1.00
H566   H     0.93244   0.55452   0.07856   0.00000  Uiso   1.00
C567   C     0.93784   0.60745   0.04270   0.00000  Uiso   1.00
H568   H     0.96131   0.62122   0.06133   0.00000  Uiso   1.00
H569   H     0.90051   0.61941   0.05779   0.00000  Uiso   1.00
H570   H     0.95139   0.61665   0.00706   0.00000  Uiso   1.00
N571   N     0.73622   0.57502   0.47054   0.00000  Uiso   1.00
H572   H     0.75026   0.58394   0.43778   0.00000  Uiso   1.00
C573   C     0.73086   0.60961   0.00114   0.00000  Uiso   1.00
H574   H     0.71039   0.63423   0.49075   0.00000  Uiso   1.00
H575   H     0.76698   0.62149   0.00055   0.00000  Uiso   1.00
H576   H     0.71078   0.60092   0.03589   0.00000  Uiso   1.00
N577   N     0.96684   0.47719   0.10292   0.00000  Uiso   1.00
H578   H     0.96146   0.46135   0.13204   0.00000  Uiso   1.00
C579   C     0.95048   0.45278   0.07109   0.00000  Uiso   1.00
H580   H     0.97848   0.42986   0.05401   0.00000  Uiso   1.00
H581   H     0.94148   0.47215   0.04601   0.00000  Uiso   1.00
H582   H     0.91690   0.43638   0.08907   0.00000  Uiso   1.00
N583   N     0.70628   0.53056   0.38438   0.00000  Uiso   1.00
H584   H     0.72873   0.52236   0.40295   0.00000  Uiso   1.00
C585   C     0.71801   0.56995   0.36394   0.00000  Uiso   1.00
H586   H     0.75769   0.57195   0.34828   0.00000  Uiso   1.00
H587   H     0.70617   0.59493   0.38936   0.00000  Uiso   1.00
H588   H     0.69961   0.57412   0.33786   0.00000  Uiso   1.00
N589   N     0.91797   0.37604   0.23724   0.00000  Uiso   1.00
H590   H     0.88462   0.36493   0.25465   0.00000  Uiso   1.00
C591   C     0.92182   0.38885   0.19203   0.00000  Uiso   1.00
H592   H     0.92002   0.36235   0.17013   0.00000  Uiso   1.00
H593   H     0.95662   0.40455   0.17684   0.00000  Uiso   1.00
H594   H     0.89203   0.41041   0.19291   0.00000  Uiso   1.00
N595   N     0.75747   0.62466   0.22672   0.00000  Uiso   1.00
H596   H     0.78516   0.63215   0.19861   0.00000  Uiso   1.00
C597   C     0.77237   0.62024   0.26683   0.00000  Uiso   1.00
H598   H     0.80472   0.63882   0.26493   0.00000  Uiso   1.00
H599   H     0.78191   0.58792   0.26985   0.00000  Uiso   1.00
H600   H     0.74351   0.63006   0.29753   0.00000  Uiso   1.00
N601   N     0.91343   0.62495   0.25442   0.00000  Uiso   1.00
H602   H     0.88560   0.63629   0.28083   0.00000  Uiso   1.00
C603   C     0.89942   0.61376   0.21502   0.00000  Uiso   1.00
H604   H     0.88371   0.64015   0.20270   0.00000  Uiso   1.00
H605   H     0.87103   0.59026   0.22417   0.00000  Uiso   1.00
H606   H     0.93065   0.60124   0.18792   0.00000  Uiso   1.00
N607   N     0.75724   0.37589   0.20959   0.00000  Uiso   1.00
H608   H     0.77589   0.36630   0.17747   0.00000  Uiso   1.00
C609   C     0.78758   0.38445   0.23793   0.00000  Uiso   1.00
H610   H     0.81980   0.36443   0.22767   0.00000  Uiso   1.00
H611   H     0.76797   0.38019   0.27403   0.00000  Uiso   1.00
H612   H     0.80023   0.41639   0.23306   0.00000  Uiso   1.00
O613   O     0.03958   0.77322   0.25000   0.00000  Uiso   1.00
O614   O     0.29375   0.89345   0.25000   0.00000  Uiso   1.00
O615   O     0.29372   0.77321   0.25000   0.00000  Uiso   1.00
O616   O     0.03961   0.89346   0.24999   0.00000  Uiso   1.00
C617   C     0.00110   0.75434   0.24603   0.00000  Uiso   1.00
C618   C     0.00045   0.91266   0.24856   0.00000  Uiso   1.00
O619   O     0.01852   0.83334   0.31491   0.00000  Uiso   1.00
O620   O     0.31481   0.83332   0.18508   0.00000  Uiso   1.00
O621   O     0.27267   0.83333   0.31492   0.00000  Uiso   1.00
O622   O     0.06067   0.83333   0.18508   0.00000  Uiso   1.00
C623   C     0.30559   0.83586   0.33600   0.00000  Uiso   1.00
C624   C     0.02785   0.83197   0.16386   0.00000  Uiso   1.00
Cu625  Cu    0.04689   0.83334   0.25000   0.00000  Uiso   1.00
Cu626  Cu    0.28645   0.83333   0.25000   0.00000  Uiso   1.00
C627   C     0.29010   0.84531   0.38483   0.00000  Uiso   1.00
C628   C     0.04455   0.83375   0.11427   0.00000  Uiso   1.00
C629   C     0.30620   0.87004   0.45275   0.00000  Uiso   1.00
C630   C     0.02959   0.84457   0.04302   0.00000  Uiso   1.00
C631   C     0.32304   0.85914   0.40730   0.00000  Uiso   1.00
C632   C     0.01323   0.82982   0.08698   0.00000  Uiso   1.00
C633   C     0.24084   0.84424   0.40879   0.00000  Uiso   1.00
C634   C     0.09377   0.84188   0.09376   0.00000  Uiso   1.00
C635   C     0.22441   0.85583   0.45452   0.00000  Uiso   1.00
C636   C     0.11087   0.85190   0.04841   0.00000  Uiso   1.00
C637   C     0.25775   0.86739   0.47717   0.00000  Uiso   1.00
C638   C     0.07738   0.85700   0.02442   0.00000  Uiso   1.00
C639   C     0.17514   0.85747   0.47814   0.00000  Uiso   1.00
C640   C     0.16029   0.85773   0.02569   0.00000  Uiso   1.00
C641   C     0.19416   0.86780   0.04813   0.00000  Uiso   1.00
C642   C     0.14097   0.86662   0.45613   0.00000  Uiso   1.00
C643   C     0.24159   0.87689   0.02364   0.00000  Uiso   1.00
C644   C     0.09344   0.87396   0.48151   0.00000  Uiso   1.00
H645   H     0.11868   0.83966   0.11332   0.00000  Uiso   1.00
H646   H     0.21530   0.83367   0.39188   0.00000  Uiso   1.00
H647   H     0.33084   0.88141   0.46899   0.00000  Uiso   1.00
H648   H     0.00636   0.84361   0.02204   0.00000  Uiso   1.00
H649   H     0.18325   0.87367   0.08392   0.00000  Uiso   1.00
H650   H     0.15258   0.87635   0.42158   0.00000  Uiso   1.00
C651   C     0.29267   0.68829   0.24175   0.00000  Uiso   1.00
C652   C     0.04615   0.97901   0.23298   0.00000  Uiso   1.00
C653   C     0.29164   0.97917   0.24622   0.00000  Uiso   1.00
C654   C     0.04639   0.68829   0.22917   0.00000  Uiso   1.00
C655   C     0.00158   0.95759   0.24369   0.00000  Uiso   1.00
C656   C     0.00237   0.70970   0.23911   0.00000  Uiso   1.00
C657   C     0.17942   0.82165   0.28684   0.00000  Uiso   1.00
C658   C     0.15396   0.84467   0.21303   0.00000  Uiso   1.00
H659   H     0.18782   0.81197   0.31659   0.00000  Uiso   1.00
H660   H     0.14559   0.85438   0.18329   0.00000  Uiso   1.00
C661   C     0.13025   0.82161   0.28681   0.00000  Uiso   1.00
C662   C     0.20318   0.84417   0.21287   0.00000  Uiso   1.00
H663   H     0.10274   0.81175   0.31645   0.00000  Uiso   1.00
H664   H     0.23074   0.85341   0.18295   0.00000  Uiso   1.00
N665   N     0.11736   0.83334   0.24999   0.00000  Uiso   1.00
N666   N     0.21597   0.83332   0.25001   0.00000  Uiso   1.00
N667   N     0.27187   0.89683   0.04584   0.00000  Uiso   1.00
H668   H     0.26578   0.88785   0.07856   0.00000  Uiso   1.00
C669   C     0.27117   0.94078   0.04270   0.00000  Uiso   1.00
H670   H     0.29464   0.95455   0.06133   0.00000  Uiso   1.00
H671   H     0.23384   0.95274   0.05779   0.00000  Uiso   1.00
H672   H     0.28472   0.94998   0.00706   0.00000  Uiso   1.00
N673   N     0.06955   0.90835   0.47054   0.00000  Uiso   1.00
H674   H     0.08359   0.91728   0.43778   0.00000  Uiso   1.00
C675   C     0.06419   0.94294   0.00114   0.00000  Uiso   1.00
H676   H     0.04372   0.96756   0.49075   0.00000  Uiso   1.00
H677   H     0.10031   0.95482   0.00055   0.00000  Uiso   1.00
H678   H     0.04411   0.93426   0.03589   0.00000  Uiso   1.00
N679   N     0.30017   0.81052   0.10292   0.00000  Uiso   1.00
H680   H     0.29480   0.79468   0.13204   0.00000  Uiso   1.00
C681   C     0.28381   0.78611   0.07109   0.00000  Uiso   1.00
H682   H     0.31181   0.76319   0.05401   0.00000  Uiso   1.00
H683   H     0.27482   0.80548   0.04601   0.00000  Uiso   1.00
H684   H     0.25023   0.76972   0.08907   0.00000  Uiso   1.00
N685   N     0.03961   0.86389   0.38438   0.00000  Uiso   1.00
H686   H     0.06207   0.85570   0.40295   0.00000  Uiso   1.00
C687   C     0.05135   0.90328   0.36394   0.00000  Uiso   1.00
H688   H     0.09102   0.90528   0.34828   0.00000  Uiso   1.00
H689   H     0.03950   0.92826   0.38936   0.00000  Uiso   1.00
H690   H     0.03294   0.90745   0.33786   0.00000  Uiso   1.00
N691   N     0.25130   0.70937   0.23724   0.00000  Uiso   1.00
H692   H     0.21795   0.69827   0.25465   0.00000  Uiso   1.00
C693   C     0.25515   0.72218   0.19203   0.00000  Uiso   1.00
H694   H     0.25335   0.69568   0.17013   0.00000  Uiso   1.00
H695   H     0.28995   0.73788   0.17684   0.00000  Uiso   1.00
H696   H     0.22536   0.74374   0.19291   0.00000  Uiso   1.00
N697   N     0.09081   0.95799   0.22672   0.00000  Uiso   1.00
H698   H     0.11850   0.96549   0.19861   0.00000  Uiso   1.00
C699   C     0.10571   0.95358   0.26683   0.00000  Uiso   1.00
H700   H     0.13806   0.97215   0.26493   0.00000  Uiso   1.00
H701   H     0.11525   0.92125   0.26985   0.00000  Uiso   1.00
H702   H     0.07684   0.96340   0.29753   0.00000  Uiso   1.00
N703   N     0.24677   0.95828   0.25442   0.00000  Uiso   1.00
H704   H     0.21894   0.96962   0.28083   0.00000  Uiso   1.00
C705   C     0.23276   0.94709   0.21502   0.00000  Uiso   1.00
H706   H     0.21704   0.97348   0.20270   0.00000  Uiso   1.00
H707   H     0.20436   0.92360   0.22417   0.00000  Uiso   1.00
H708   H     0.26399   0.93458   0.18792   0.00000  Uiso   1.00
N709   N     0.09058   0.70923   0.20959   0.00000  Uiso   1.00
H710   H     0.10922   0.69964   0.17747   0.00000  Uiso   1.00
C711   C     0.12091   0.71778   0.23793   0.00000  Uiso   1.00
H712   H     0.15314   0.69776   0.22767   0.00000  Uiso   1.00
H713   H     0.10131   0.71353   0.27403   0.00000  Uiso   1.00
H714   H     0.13356   0.74973   0.23306   0.00000  Uiso   1.00
O715   O     0.37291   0.77322   0.25000   0.00000  Uiso   1.00
O716   O     0.62709   0.89345   0.25000   0.00000  Uiso   1.00
O717   O     0.62706   0.77321   0.25000   0.00000  Uiso   1.00
O718   O     0.37294   0.89346   0.24999   0.00000  Uiso   1.00
C719   C     0.33443   0.75434   0.24603   0.00000  Uiso   1.00
C720   C     0.33379   0.91266   0.24856   0.00000  Uiso   1.00
O721   O     0.35186   0.83334   0.31491   0.00000  Uiso   1.00
O722   O     0.64814   0.83332   0.18508   0.00000  Uiso   1.00
O723   O     0.60600   0.83333   0.31492   0.00000  Uiso   1.00
O724   O     0.39400   0.83333   0.18508   0.00000  Uiso   1.00
C725   C     0.63893   0.83586   0.33600   0.00000  Uiso   1.00
C726   C     0.36118   0.83197   0.16386   0.00000  Uiso   1.00
Cu727  Cu    0.38022   0.83334   0.25000   0.00000  Uiso   1.00
Cu728  Cu    0.61978   0.83333   0.25000   0.00000  Uiso   1.00
C729   C     0.62343   0.84531   0.38483   0.00000  Uiso   1.00
C730   C     0.37789   0.83375   0.11427   0.00000  Uiso   1.00
C731   C     0.63953   0.87004   0.45275   0.00000  Uiso   1.00
C732   C     0.36292   0.84457   0.04302   0.00000  Uiso   1.00
C733   C     0.65638   0.85914   0.40730   0.00000  Uiso   1.00
C734   C     0.34656   0.82982   0.08698   0.00000  Uiso   1.00
C735   C     0.57417   0.84424   0.40879   0.00000  Uiso   1.00
C736   C     0.42710   0.84188   0.09376   0.00000  Uiso   1.00
C737   C     0.55774   0.85583   0.45452   0.00000  Uiso   1.00
C738   C     0.44420   0.85190   0.04841   0.00000  Uiso   1.00
C739   C     0.59108   0.86739   0.47717   0.00000  Uiso   1.00
C740   C     0.41071   0.85700   0.02442   0.00000  Uiso   1.00
C741   C     0.50848   0.85747   0.47814   0.00000  Uiso   1.00
C742   C     0.49362   0.85773   0.02569   0.00000  Uiso   1.00
C743   C     0.52750   0.86780   0.04813   0.00000  Uiso   1.00
C744   C     0.47430   0.86662   0.45613   0.00000  Uiso   1.00
C745   C     0.57492   0.87689   0.02364   0.00000  Uiso   1.00
C746   C     0.42678   0.87396   0.48151   0.00000  Uiso   1.00
H747   H     0.45201   0.83966   0.11332   0.00000  Uiso   1.00
H748   H     0.54863   0.83367   0.39188   0.00000  Uiso   1.00
H749   H     0.66417   0.88141   0.46899   0.00000  Uiso   1.00
H750   H     0.33970   0.84361   0.02204   0.00000  Uiso   1.00
H751   H     0.51658   0.87367   0.08392   0.00000  Uiso   1.00
H752   H     0.48591   0.87635   0.42158   0.00000  Uiso   1.00
C753   C     0.62601   0.68829   0.24175   0.00000  Uiso   1.00
C754   C     0.37948   0.97901   0.23298   0.00000  Uiso   1.00
C755   C     0.62498   0.97917   0.24622   0.00000  Uiso   1.00
C756   C     0.37972   0.68829   0.22917   0.00000  Uiso   1.00
C757   C     0.33492   0.95759   0.24369   0.00000  Uiso   1.00
C758   C     0.33571   0.70970   0.23911   0.00000  Uiso   1.00
C759   C     0.51276   0.82165   0.28684   0.00000  Uiso   1.00
C760   C     0.48729   0.84467   0.21303   0.00000  Uiso   1.00
H761   H     0.52115   0.81197   0.31659   0.00000  Uiso   1.00
H762   H     0.47892   0.85438   0.18329   0.00000  Uiso   1.00
C763   C     0.46358   0.82161   0.28681   0.00000  Uiso   1.00
C764   C     0.53651   0.84417   0.21287   0.00000  Uiso   1.00
H765   H     0.43608   0.81175   0.31645   0.00000  Uiso   1.00
H766   H     0.56408   0.85341   0.18295   0.00000  Uiso   1.00
N767   N     0.45069   0.83334   0.24999   0.00000  Uiso   1.00
N768   N     0.54931   0.83332   0.25001   0.00000  Uiso   1.00
N769   N     0.60520   0.89683   0.04584   0.00000  Uiso   1.00
H770   H     0.59911   0.88785   0.07856   0.00000  Uiso   1.00
C771   C     0.60450   0.94078   0.04270   0.00000  Uiso   1.00
H772   H     0.62797   0.95455   0.06133   0.00000  Uiso   1.00
H773   H     0.56718   0.95274   0.05779   0.00000  Uiso   1.00
H774   H     0.61806   0.94998   0.00706   0.00000  Uiso   1.00
N775   N     0.40288   0.90835   0.47054   0.00000  Uiso   1.00
H776   H     0.41693   0.91728   0.43778   0.00000  Uiso   1.00
C777   C     0.39753   0.94294   0.00114   0.00000  Uiso   1.00
H778   H     0.37706   0.96756   0.49075   0.00000  Uiso   1.00
H779   H     0.43365   0.95482   0.00055   0.00000  Uiso   1.00
H780   H     0.37745   0.93426   0.03589   0.00000  Uiso   1.00
N781   N     0.63350   0.81052   0.10292   0.00000  Uiso   1.00
H782   H     0.62813   0.79468   0.13204   0.00000  Uiso   1.00
C783   C     0.61715   0.78611   0.07109   0.00000  Uiso   1.00
H784   H     0.64514   0.76319   0.05401   0.00000  Uiso   1.00
H785   H     0.60815   0.80548   0.04601   0.00000  Uiso   1.00
H786   H     0.58356   0.76972   0.08907   0.00000  Uiso   1.00
N787   N     0.37294   0.86389   0.38438   0.00000  Uiso   1.00
H788   H     0.39540   0.85570   0.40295   0.00000  Uiso   1.00
C789   C     0.38468   0.90328   0.36394   0.00000  Uiso   1.00
H790   H     0.42435   0.90528   0.34828   0.00000  Uiso   1.00
H791   H     0.37284   0.92826   0.38936   0.00000  Uiso   1.00
H792   H     0.36627   0.90745   0.33786   0.00000  Uiso   1.00
N793   N     0.58464   0.70937   0.23724   0.00000  Uiso   1.00
H794   H     0.55129   0.69827   0.25465   0.00000  Uiso   1.00
C795   C     0.58849   0.72218   0.19203   0.00000  Uiso   1.00
H796   H     0.58668   0.69568   0.17013   0.00000  Uiso   1.00
H797   H     0.62329   0.73788   0.17684   0.00000  Uiso   1.00
H798   H     0.55870   0.74374   0.19291   0.00000  Uiso   1.00
N799   N     0.42414   0.95799   0.22672   0.00000  Uiso   1.00
H800   H     0.45183   0.96549   0.19861   0.00000  Uiso   1.00
C801   C     0.43904   0.95358   0.26683   0.00000  Uiso   1.00
H802   H     0.47139   0.97215   0.26493   0.00000  Uiso   1.00
H803   H     0.44858   0.92125   0.26985   0.00000  Uiso   1.00
H804   H     0.41018   0.96340   0.29753   0.00000  Uiso   1.00
N805   N     0.58010   0.95828   0.25442   0.00000  Uiso   1.00
H806   H     0.55227   0.96962   0.28083   0.00000  Uiso   1.00
C807   C     0.56609   0.94709   0.21502   0.00000  Uiso   1.00
H808   H     0.55037   0.97348   0.20270   0.00000  Uiso   1.00
H809   H     0.53770   0.92360   0.22417   0.00000  Uiso   1.00
H810   H     0.59732   0.93458   0.18792   0.00000  Uiso   1.00
N811   N     0.42391   0.70923   0.20959   0.00000  Uiso   1.00
H812   H     0.44256   0.69964   0.17747   0.00000  Uiso   1.00
C813   C     0.45425   0.71778   0.23793   0.00000  Uiso   1.00
H814   H     0.48647   0.69776   0.22767   0.00000  Uiso   1.00
H815   H     0.43464   0.71353   0.27403   0.00000  Uiso   1.00
H816   H     0.46689   0.74973   0.23306   0.00000  Uiso   1.00
O817   O     0.70625   0.77322   0.25000   0.00000  Uiso   1.00
O818   O     0.96042   0.89345   0.25000   0.00000  Uiso   1.00
O819   O     0.96039   0.77321   0.25000   0.00000  Uiso   1.00
O820   O     0.70628   0.89346   0.24999   0.00000  Uiso   1.00
C821   C     0.66776   0.75434   0.24603   0.00000  Uiso   1.00
C822   C     0.66712   0.91266   0.24856   0.00000  Uiso   1.00
O823   O     0.68519   0.83334   0.31491   0.00000  Uiso   1.00
O824   O     0.98148   0.83332   0.18508   0.00000  Uiso   1.00
O825   O     0.93933   0.83333   0.31492   0.00000  Uiso   1.00
O826   O     0.72733   0.83333   0.18508   0.00000  Uiso   1.00
C827   C     0.97226   0.83586   0.33600   0.00000  Uiso   1.00
C828   C     0.69451   0.83197   0.16386   0.00000  Uiso   1.00
Cu829  Cu    0.71355   0.83334   0.25000   0.00000  Uiso   1.00
Cu830  Cu    0.95311   0.83333   0.25000   0.00000  Uiso   1.00
C831   C     0.95677   0.84531   0.38483   0.00000  Uiso   1.00
C832   C     0.71122   0.83375   0.11427   0.00000  Uiso   1.00
C833   C     0.97287   0.87004   0.45275   0.00000  Uiso   1.00
C834   C     0.69626   0.84457   0.04302   0.00000  Uiso   1.00
C835   C     0.98971   0.85914   0.40730   0.00000  Uiso   1.00
C836   C     0.67989   0.82982   0.08698   0.00000  Uiso   1.00
C837   C     0.90750   0.84424   0.40879   0.00000  Uiso   1.00
C838   C     0.76043   0.84188   0.09376   0.00000  Uiso   1.00
C839   C     0.89108   0.85583   0.45452   0.00000  Uiso   1.00
C840   C     0.77753   0.85190   0.04841   0.00000  Uiso   1.00
C841   C     0.92441   0.86739   0.47717   0.00000  Uiso   1.00
C842   C     0.74405   0.85700   0.02442   0.00000  Uiso   1.00
C843   C     0.84181   0.85747   0.47814   0.00000  Uiso   1.00
C844   C     0.82695   0.85773   0.02569   0.00000  Uiso   1.00
C845   C     0.86083   0.86780   0.04813   0.00000  Uiso   1.00
C846   C     0.80763   0.86662   0.45613   0.00000  Uiso   1.00
C847   C     0.90826   0.87689   0.02364   0.00000  Uiso   1.00
C848   C     0.76011   0.87396   0.48151   0.00000  Uiso   1.00
H849   H     0.78535   0.83966   0.11332   0.00000  Uiso   1.00
H850   H     0.88196   0.83367   0.39188   0.00000  Uiso   1.00
H851   H     0.99751   0.88141   0.46899   0.00000  Uiso   1.00
H852   H     0.67303   0.84361   0.02204   0.00000  Uiso   1.00
H853   H     0.84991   0.87367   0.08392   0.00000  Uiso   1.00
H854   H     0.81925   0.87635   0.42158   0.00000  Uiso   1.00
C855   C     0.95934   0.68829   0.24175   0.00000  Uiso   1.00
C856   C     0.71281   0.97901   0.23298   0.00000  Uiso   1.00
C857   C     0.95831   0.97917   0.24622   0.00000  Uiso   1.00
C858   C     0.71306   0.68829   0.22917   0.00000  Uiso   1.00
C859   C     0.66825   0.95759   0.24369   0.00000  Uiso   1.00
C860   C     0.66904   0.70970   0.23911   0.00000  Uiso   1.00
C861   C     0.84609   0.82165   0.28684   0.00000  Uiso   1.00
C862   C     0.82062   0.84467   0.21303   0.00000  Uiso   1.00
H863   H     0.85449   0.81197   0.31659   0.00000  Uiso   1.00
H864   H     0.81225   0.85438   0.18329   0.00000  Uiso   1.00
C865   C     0.79691   0.82161   0.28681   0.00000  Uiso   1.00
C866   C     0.86985   0.84417   0.21287   0.00000  Uiso   1.00
H867   H     0.76941   0.81175   0.31645   0.00000  Uiso   1.00
H868   H     0.89741   0.85341   0.18295   0.00000  Uiso   1.00
N869   N     0.78403   0.83334   0.24999   0.00000  Uiso   1.00
N870   N     0.88264   0.83332   0.25001   0.00000  Uiso   1.00
N871   N     0.93853   0.89683   0.04584   0.00000  Uiso   1.00
H872   H     0.93244   0.88785   0.07856   0.00000  Uiso   1.00
C873   C     0.93784   0.94078   0.04270   0.00000  Uiso   1.00
H874   H     0.96131   0.95455   0.06133   0.00000  Uiso   1.00
H875   H     0.90051   0.95274   0.05779   0.00000  Uiso   1.00
H876   H     0.95139   0.94998   0.00706   0.00000  Uiso   1.00
N877   N     0.73622   0.90835   0.47054   0.00000  Uiso   1.00
H878   H     0.75026   0.91728   0.43778   0.00000  Uiso   1.00
C879   C     0.73086   0.94294   0.00114   0.00000  Uiso   1.00
H880   H     0.71039   0.96756   0.49075   0.00000  Uiso   1.00
H881   H     0.76698   0.95482   0.00055   0.00000  Uiso   1.00
H882   H     0.71078   0.93426   0.03589   0.00000  Uiso   1.00
N883   N     0.96684   0.81052   0.10292   0.00000  Uiso   1.00
H884   H     0.96146   0.79468   0.13204   0.00000  Uiso   1.00
C885   C     0.95048   0.78611   0.07109   0.00000  Uiso   1.00
H886   H     0.97848   0.76319   0.05401   0.00000  Uiso   1.00
H887   H     0.94148   0.80548   0.04601   0.00000  Uiso   1.00
H888   H     0.91690   0.76972   0.08907   0.00000  Uiso   1.00
N889   N     0.70628   0.86389   0.38438   0.00000  Uiso   1.00
H890   H     0.72873   0.85570   0.40295   0.00000  Uiso   1.00
C891   C     0.71801   0.90328   0.36394   0.00000  Uiso   1.00
H892   H     0.75769   0.90528   0.34828   0.00000  Uiso   1.00
H893   H     0.70617   0.92826   0.38936   0.00000  Uiso   1.00
H894   H     0.69961   0.90745   0.33786   0.00000  Uiso   1.00
N895   N     0.91797   0.70937   0.23724   0.00000  Uiso   1.00
H896   H     0.88462   0.69827   0.25465   0.00000  Uiso   1.00
C897   C     0.92182   0.72218   0.19203   0.00000  Uiso   1.00
H898   H     0.92002   0.69568   0.17013   0.00000  Uiso   1.00
H899   H     0.95662   0.73788   0.17684   0.00000  Uiso   1.00
H900   H     0.89203   0.74374   0.19291   0.00000  Uiso   1.00
N901   N     0.75747   0.95799   0.22672   0.00000  Uiso   1.00
H902   H     0.78516   0.96549   0.19861   0.00000  Uiso   1.00
C903   C     0.77237   0.95358   0.26683   0.00000  Uiso   1.00
H904   H     0.80472   0.97215   0.26493   0.00000  Uiso   1.00
H905   H     0.78191   0.92125   0.26985   0.00000  Uiso   1.00
H906   H     0.74351   0.96340   0.29753   0.00000  Uiso   1.00
N907   N     0.91343   0.95828   0.25442   0.00000  Uiso   1.00
H908   H     0.88560   0.96962   0.28083   0.00000  Uiso   1.00
C909   C     0.89942   0.94709   0.21502   0.00000  Uiso   1.00
H910   H     0.88371   0.97348   0.20270   0.00000  Uiso   1.00
H911   H     0.87103   0.92360   0.22417   0.00000  Uiso   1.00
H912   H     0.93065   0.93458   0.18792   0.00000  Uiso   1.00
N913   N     0.75724   0.70923   0.20959   0.00000  Uiso   1.00
H914   H     0.77589   0.69964   0.17747   0.00000  Uiso   1.00
C915   C     0.78758   0.71778   0.23793   0.00000  Uiso   1.00
H916   H     0.81980   0.69776   0.22767   0.00000  Uiso   1.00
H917   H     0.76797   0.71353   0.27403   0.00000  Uiso   1.00
H918   H     0.80023   0.74973   0.23306   0.00000  Uiso   1.00
O919   O     0.03958   0.10655   0.75000   0.00000  Uiso   1.00
O920   O     0.29375   0.22678   0.75000   0.00000  Uiso   1.00
O921   O     0.29372   0.10654   0.75000   0.00000  Uiso   1.00
O922   O     0.03961   0.22679   0.74999   0.00000  Uiso   1.00
C923   C     0.00110   0.08767   0.74603   0.00000  Uiso   1.00
C924   C     0.00045   0.24599   0.74856   0.00000  Uiso   1.00
O925   O     0.01852   0.16668   0.81491   0.00000  Uiso   1.00
O926   O     0.31481   0.16666   0.68508   0.00000  Uiso   1.00
O927   O     0.27267   0.16667   0.81492   0.00000  Uiso   1.00
O928   O     0.06067   0.16667   0.68508   0.00000  Uiso   1.00
C929   C     0.30559   0.16919   0.83600   0.00000  Uiso   1.00
C930   C     0.02785   0.16530   0.66386   0.00000  Uiso   1.00
Cu931  Cu    0.04689   0.16667   0.75000   0.00000  Uiso   1.00
Cu932  Cu    0.28645   0.16666   0.75000   0.00000  Uiso   1.00
C933   C     0.29010   0.17864   0.88483   0.00000  Uiso   1.00
C934   C     0.04455   0.16709   0.61427   0.00000  Uiso   1.00
C935   C     0.30620   0.20337   0.95275   0.00000  Uiso   1.00
C936   C     0.02959   0.17790   0.54302   0.00000  Uiso   1.00
C937   C     0.32304   0.19247   0.90730   0.00000  Uiso   1.00
C938   C     0.01323   0.16315   0.58698   0.00000  Uiso   1.00
C939   C     0.24084   0.17757   0.90879   0.00000  Uiso   1.00
C940   C     0.09377   0.17521   0.59376   0.00000  Uiso   1.00
C941   C     0.22441   0.18916   0.95452   0.00000  Uiso   1.00
C942   C     0.11087   0.18523   0.54841   0.00000  Uiso   1.00
C943   C     0.25775   0.20073   0.97717   0.00000  Uiso   1.00
C944   C     0.07738   0.19033   0.52442   0.00000  Uiso   1.00
C945   C     0.17514   0.19080   0.97814   0.00000  Uiso   1.00
C946   C     0.16029   0.19107   0.52569   0.00000  Uiso   1.00
C947   C     0.19416   0.20113   0.54813   0.00000  Uiso   1.00
C948   C     0.14097   0.19995   0.95613   0.00000  Uiso   1.00
C949   C     0.24159   0.21022   0.52364   0.00000  Uiso   1.00
C950   C     0.09344   0.20729   0.98151   0.00000  Uiso   1.00
H951   H     0.11868   0.17300   0.61332   0.00000  Uiso   1.00
H952   H     0.21530   0.16701   0.89188   0.00000  Uiso   1.00
H953   H     0.33084   0.21474   0.96899   0.00000  Uiso   1.00
H954   H     0.00636   0.17694   0.52204   0.00000  Uiso   1.00
H955   H     0.18325   0.20701   0.58392   0.00000  Uiso   1.00
H956   H     0.15258   0.20968   0.92158   0.00000  Uiso   1.00
C957   C     0.29267   0.02162   0.74175   0.00000  Uiso   1.00
C958   C     0.04615   0.31234   0.73298   0.00000  Uiso   1.00
C959   C     0.29164   0.31250   0.74622   0.00000  Uiso   1.00
C960   C     0.04639   0.02162   0.72917   0.00000  Uiso   1.00
C961   C     0.00158   0.29092   0.74369   0.00000  Uiso   1.00
C962   C     0.00237   0.04304   0.73911   0.00000  Uiso   1.00
C963   C     0.17942   0.15498   0.78684   0.00000  Uiso   1.00
C964   C     0.15396   0.17800   0.71303   0.00000  Uiso   1.00
H965   H     0.18782   0.14530   0.81659   0.00000  Uiso   1.00
H966   H     0.14559   0.18772   0.68329   0.00000  Uiso   1.00
C967   C     0.13025   0.15495   0.78681   0.00000  Uiso   1.00
C968   C     0.20318   0.17750   0.71287   0.00000  Uiso   1.00
H969   H     0.10274   0.14508   0.81645   0.00000  Uiso   1.00
H970   H     0.23074   0.18674   0.68295   0.00000  Uiso   1.00
N971   N     0.11736   0.16668   0.74999   0.00000  Uiso   1.00
N972   N     0.21597   0.16666   0.75001   0.00000  Uiso   1.00
N973   N     0.27187   0.23016   0.54584   0.00000  Uiso   1.00
H974   H     0.26578   0.22119   0.57856   0.00000  Uiso   1.00
C975   C     0.27117   0.27412   0.54270   0.00000  Uiso   1.00
H976   H     0.29464   0.28788   0.56133   0.00000  Uiso   1.00
H977   H     0.23384   0.28608   0.55779   0.00000  Uiso   1.00
H978   H     0.28472   0.28331   0.50706   0.00000  Uiso   1.00
N979   N     0.06955   0.24168   0.97054   0.00000  Uiso   1.00
H980   H     0.08359   0.25061   0.93778   0.00000  Uiso   1.00
C981   C     0.06419   0.27627   0.50114   0.00000  Uiso   1.00
H982   H     0.04372   0.30090   0.99075   0.00000  Uiso   1.00
H983   H     0.10031   0.28815   0.50055   0.00000  Uiso   1.00
H984   H     0.04411   0.26759   0.53589   0.00000  Uiso   1.00
N985   N     0.30017   0.14385   0.60292   0.00000  Uiso   1.00
H986   H     0.29480   0.12802   0.63204   0.00000  Uiso   1.00
C987   C     0.28381   0.11945   0.57109   0.00000  Uiso   1.00
H988   H     0.31181   0.09653   0.55401   0.00000  Uiso   1.00
H989   H     0.27482   0.13881   0.54601   0.00000  Uiso   1.00
H990   H     0.25023   0.10305   0.58907   0.00000  Uiso   1.00
N991   N     0.03961   0.19723   0.88438   0.00000  Uiso   1.00
H992   H     0.06207   0.18903   0.90295   0.00000  Uiso   1.00
C993   C     0.05135   0.23662   0.86394   0.00000  Uiso   1.00
H994   H     0.09102   0.23862   0.84828   0.00000  Uiso   1.00
H995   H     0.03950   0.26160   0.88936   0.00000  Uiso   1.00
H996   H     0.03294   0.24078   0.83786   0.00000  Uiso   1.00
N997   N     0.25130   0.04271   0.73724   0.00000  Uiso   1.00
H998   H     0.21795   0.03160   0.75465   0.00000  Uiso   1.00
C999   C     0.25515   0.05552   0.69203   0.00000  Uiso   1.00
H1000  H     0.25335   0.02901   0.67013   0.00000  Uiso   1.00
H1001  H     0.28995   0.07122   0.67684   0.00000  Uiso   1.00
H1002  H     0.22536   0.07707   0.69291   0.00000  Uiso   1.00
N1003  N     0.09081   0.29132   0.72672   0.00000  Uiso   1.00
H1004  H     0.11850   0.29882   0.69861   0.00000  Uiso   1.00
C1005  C     0.10571   0.28691   0.76683   0.00000  Uiso   1.00
H1006  H     0.13806   0.30548   0.76493   0.00000  Uiso   1.00
H1007  H     0.11525   0.25458   0.76985   0.00000  Uiso   1.00
H1008  H     0.07684   0.29673   0.79753   0.00000  Uiso   1.00
N1009  N     0.24677   0.29161   0.75442   0.00000  Uiso   1.00
H1010  H     0.21894   0.30296   0.78083   0.00000  Uiso   1.00
C1011  C     0.23276   0.28043   0.71502   0.00000  Uiso   1.00
H1012  H     0.21704   0.30682   0.70270   0.00000  Uiso   1.00
H1013  H     0.20436   0.25693   0.72417   0.00000  Uiso   1.00
H1014  H     0.26399   0.26791   0.68792   0.00000  Uiso   1.00
N1015  N     0.09058   0.04256   0.70959   0.00000  Uiso   1.00
H1016  H     0.10922   0.03297   0.67747   0.00000  Uiso   1.00
C1017  C     0.12091   0.05112   0.73793   0.00000  Uiso   1.00
H1018  H     0.15314   0.03109   0.72767   0.00000  Uiso   1.00
H1019  H     0.10131   0.04686   0.77403   0.00000  Uiso   1.00
H1020  H     0.13356   0.08306   0.73306   0.00000  Uiso   1.00
O1021  O     0.37291   0.10655   0.75000   0.00000  Uiso   1.00
O1022  O     0.62709   0.22678   0.75000   0.00000  Uiso   1.00
O1023  O     0.62706   0.10654   0.75000   0.00000  Uiso   1.00
O1024  O     0.37294   0.22679   0.74999   0.00000  Uiso   1.00
C1025  C     0.33443   0.08767   0.74603   0.00000  Uiso   1.00
C1026  C     0.33379   0.24599   0.74856   0.00000  Uiso   1.00
O1027  O     0.35186   0.16668   0.81491   0.00000  Uiso   1.00
O1028  O     0.64814   0.16666   0.68508   0.00000  Uiso   1.00
O1029  O     0.60600   0.16667   0.81492   0.00000  Uiso   1.00
O1030  O     0.39400   0.16667   0.68508   0.00000  Uiso   1.00
C1031  C     0.63893   0.16919   0.83600   0.00000  Uiso   1.00
C1032  C     0.36118   0.16530   0.66386   0.00000  Uiso   1.00
Cu1033 Cu    0.38022   0.16667   0.75000   0.00000  Uiso   1.00
Cu1034 Cu    0.61978   0.16666   0.75000   0.00000  Uiso   1.00
C1035  C     0.62343   0.17864   0.88483   0.00000  Uiso   1.00
C1036  C     0.37789   0.16709   0.61427   0.00000  Uiso   1.00
C1037  C     0.63953   0.20337   0.95275   0.00000  Uiso   1.00
C1038  C     0.36292   0.17790   0.54302   0.00000  Uiso   1.00
C1039  C     0.65638   0.19247   0.90730   0.00000  Uiso   1.00
C1040  C     0.34656   0.16315   0.58698   0.00000  Uiso   1.00
C1041  C     0.57417   0.17757   0.90879   0.00000  Uiso   1.00
C1042  C     0.42710   0.17521   0.59376   0.00000  Uiso   1.00
C1043  C     0.55774   0.18916   0.95452   0.00000  Uiso   1.00
C1044  C     0.44420   0.18523   0.54841   0.00000  Uiso   1.00
C1045  C     0.59108   0.20073   0.97717   0.00000  Uiso   1.00
C1046  C     0.41071   0.19033   0.52442   0.00000  Uiso   1.00
C1047  C     0.50848   0.19080   0.97814   0.00000  Uiso   1.00
C1048  C     0.49362   0.19107   0.52569   0.00000  Uiso   1.00
C1049  C     0.52750   0.20113   0.54813   0.00000  Uiso   1.00
C1050  C     0.47430   0.19995   0.95613   0.00000  Uiso   1.00
C1051  C     0.57492   0.21022   0.52364   0.00000  Uiso   1.00
C1052  C     0.42678   0.20729   0.98151   0.00000  Uiso   1.00
H1053  H     0.45201   0.17300   0.61332   0.00000  Uiso   1.00
H1054  H     0.54863   0.16701   0.89188   0.00000  Uiso   1.00
H1055  H     0.66417   0.21474   0.96899   0.00000  Uiso   1.00
H1056  H     0.33970   0.17694   0.52204   0.00000  Uiso   1.00
H1057  H     0.51658   0.20701   0.58392   0.00000  Uiso   1.00
H1058  H     0.48591   0.20968   0.92158   0.00000  Uiso   1.00
C1059  C     0.62601   0.02162   0.74175   0.00000  Uiso   1.00
C1060  C     0.37948   0.31234   0.73298   0.00000  Uiso   1.00
C1061  C     0.62498   0.31250   0.74622   0.00000  Uiso   1.00
C1062  C     0.37972   0.02162   0.72917   0.00000  Uiso   1.00
C1063  C     0.33492   0.29092   0.74369   0.00000  Uiso   1.00
C1064  C     0.33571   0.04304   0.73911   0.00000  Uiso   1.00
C1065  C     0.51276   0.15498   0.78684   0.00000  Uiso   1.00
C1066  C     0.48729   0.17800   0.71303   0.00000  Uiso   1.00
H1067  H     0.52115   0.14530   0.81659   0.00000  Uiso   1.00
H1068  H     0.47892   0.18772   0.68329   0.00000  Uiso   1.00
C1069  C     0.46358   0.15495   0.78681   0.00000  Uiso   1.00
C1070  C     0.53651   0.17750   0.71287   0.00000  Uiso   1.00
H1071  H     0.43608   0.14508   0.81645   0.00000  Uiso   1.00
H1072  H     0.56408   0.18674   0.68295   0.00000  Uiso   1.00
N1073  N     0.45069   0.16668   0.74999   0.00000  Uiso   1.00
N1074  N     0.54931   0.16666   0.75001   0.00000  Uiso   1.00
N1075  N     0.60520   0.23016   0.54584   0.00000  Uiso   1.00
H1076  H     0.59911   0.22119   0.57856   0.00000  Uiso   1.00
C1077  C     0.60450   0.27412   0.54270   0.00000  Uiso   1.00
H1078  H     0.62797   0.28788   0.56133   0.00000  Uiso   1.00
H1079  H     0.56718   0.28608   0.55779   0.00000  Uiso   1.00
H1080  H     0.61806   0.28331   0.50706   0.00000  Uiso   1.00
N1081  N     0.40288   0.24168   0.97054   0.00000  Uiso   1.00
H1082  H     0.41693   0.25061   0.93778   0.00000  Uiso   1.00
C1083  C     0.39753   0.27627   0.50114   0.00000  Uiso   1.00
H1084  H     0.37706   0.30090   0.99075   0.00000  Uiso   1.00
H1085  H     0.43365   0.28815   0.50055   0.00000  Uiso   1.00
H1086  H     0.37745   0.26759   0.53589   0.00000  Uiso   1.00
N1087  N     0.63350   0.14385   0.60292   0.00000  Uiso   1.00
H1088  H     0.62813   0.12802   0.63204   0.00000  Uiso   1.00
C1089  C     0.61715   0.11945   0.57109   0.00000  Uiso   1.00
H1090  H     0.64514   0.09653   0.55401   0.00000  Uiso   1.00
H1091  H     0.60815   0.13881   0.54601   0.00000  Uiso   1.00
H1092  H     0.58356   0.10305   0.58907   0.00000  Uiso   1.00
N1093  N     0.37294   0.19723   0.88438   0.00000  Uiso   1.00
H1094  H     0.39540   0.18903   0.90295   0.00000  Uiso   1.00
C1095  C     0.38468   0.23662   0.86394   0.00000  Uiso   1.00
H1096  H     0.42435   0.23862   0.84828   0.00000  Uiso   1.00
H1097  H     0.37284   0.26160   0.88936   0.00000  Uiso   1.00
H1098  H     0.36627   0.24078   0.83786   0.00000  Uiso   1.00
N1099  N     0.58464   0.04271   0.73724   0.00000  Uiso   1.00
H1100  H     0.55129   0.03160   0.75465   0.00000  Uiso   1.00
C1101  C     0.58849   0.05552   0.69203   0.00000  Uiso   1.00
H1102  H     0.58668   0.02901   0.67013   0.00000  Uiso   1.00
H1103  H     0.62329   0.07122   0.67684   0.00000  Uiso   1.00
H1104  H     0.55870   0.07707   0.69291   0.00000  Uiso   1.00
N1105  N     0.42414   0.29132   0.72672   0.00000  Uiso   1.00
H1106  H     0.45183   0.29882   0.69861   0.00000  Uiso   1.00
C1107  C     0.43904   0.28691   0.76683   0.00000  Uiso   1.00
H1108  H     0.47139   0.30548   0.76493   0.00000  Uiso   1.00
H1109  H     0.44858   0.25458   0.76985   0.00000  Uiso   1.00
H1110  H     0.41018   0.29673   0.79753   0.00000  Uiso   1.00
N1111  N     0.58010   0.29161   0.75442   0.00000  Uiso   1.00
H1112  H     0.55227   0.30296   0.78083   0.00000  Uiso   1.00
C1113  C     0.56609   0.28043   0.71502   0.00000  Uiso   1.00
H1114  H     0.55037   0.30682   0.70270   0.00000  Uiso   1.00
H1115  H     0.53770   0.25693   0.72417   0.00000  Uiso   1.00
H1116  H     0.59732   0.26791   0.68792   0.00000  Uiso   1.00
N1117  N     0.42391   0.04256   0.70959   0.00000  Uiso   1.00
H1118  H     0.44256   0.03297   0.67747   0.00000  Uiso   1.00
C1119  C     0.45425   0.05112   0.73793   0.00000  Uiso   1.00
H1120  H     0.48647   0.03109   0.72767   0.00000  Uiso   1.00
H1121  H     0.43464   0.04686   0.77403   0.00000  Uiso   1.00
H1122  H     0.46689   0.08306   0.73306   0.00000  Uiso   1.00
O1123  O     0.70625   0.10655   0.75000   0.00000  Uiso   1.00
O1124  O     0.96042   0.22678   0.75000   0.00000  Uiso   1.00
O1125  O     0.96039   0.10654   0.75000   0.00000  Uiso   1.00
O1126  O     0.70628   0.22679   0.74999   0.00000  Uiso   1.00
C1127  C     0.66776   0.08767   0.74603   0.00000  Uiso   1.00
C1128  C     0.66712   0.24599   0.74856   0.00000  Uiso   1.00
O1129  O     0.68519   0.16668   0.81491   0.00000  Uiso   1.00
O1130  O     0.98148   0.16666   0.68508   0.00000  Uiso   1.00
O1131  O     0.93933   0.16667   0.81492   0.00000  Uiso   1.00
O1132  O     0.72733   0.16667   0.68508   0.00000  Uiso   1.00
C1133  C     0.97226   0.16919   0.83600   0.00000  Uiso   1.00
C1134  C     0.69451   0.16530   0.66386   0.00000  Uiso   1.00
Cu1135 Cu    0.71355   0.16667   0.75000   0.00000  Uiso   1.00
Cu1136 Cu    0.95311   0.16666   0.75000   0.00000  Uiso   1.00
C1137  C     0.95677   0.17864   0.88483   0.00000  Uiso   1.00
C1138  C     0.71122   0.16709   0.61427   0.00000  Uiso   1.00
C1139  C     0.97287   0.20337   0.95275   0.00000  Uiso   1.00
C1140  C     0.69626   0.17790   0.54302   0.00000  Uiso   1.00
C1141  C     0.98971   0.19247   0.90730   0.00000  Uiso   1.00
C1142  C     0.67989   0.16315   0.58698   0.00000  Uiso   1.00
C1143  C     0.90750   0.17757   0.90879   0.00000  Uiso   1.00
C1144  C     0.76043   0.17521   0.59376   0.00000  Uiso   1.00
C1145  C     0.89108   0.18916   0.95452   0.00000  Uiso   1.00
C1146  C     0.77753   0.18523   0.54841   0.00000  Uiso   1.00
C1147  C     0.92441   0.20073   0.97717   0.00000  Uiso   1.00
C1148  C     0.74405   0.19033   0.52442   0.00000  Uiso   1.00
C1149  C     0.84181   0.19080   0.97814   0.00000  Uiso   1.00
C1150  C     0.82695   0.19107   0.52569   0.00000  Uiso   1.00
C1151  C     0.86083   0.20113   0.54813   0.00000  Uiso   1.00
C1152  C     0.80763   0.19995   0.95613   0.00000  Uiso   1.00
C1153  C     0.90826   0.21022   0.52364   0.00000  Uiso   1.00
C1154  C     0.76011   0.20729   0.98151   0.00000  Uiso   1.00
H1155  H     0.78535   0.17300   0.61332   0.00000  Uiso   1.00
H1156  H     0.88196   0.16701   0.89188   0.00000  Uiso   1.00
H1157  H     0.99751   0.21474   0.96899   0.00000  Uiso   1.00
H1158  H     0.67303   0.17694   0.52204   0.00000  Uiso   1.00
H1159  H     0.84991   0.20701   0.58392   0.00000  Uiso   1.00
H1160  H     0.81925   0.20968   0.92158   0.00000  Uiso   1.00
C1161  C     0.95934   0.02162   0.74175   0.00000  Uiso   1.00
C1162  C     0.71281   0.31234   0.73298   0.00000  Uiso   1.00
C1163  C     0.95831   0.31250   0.74622   0.00000  Uiso   1.00
C1164  C     0.71306   0.02162   0.72917   0.00000  Uiso   1.00
C1165  C     0.66825   0.29092   0.74369   0.00000  Uiso   1.00
C1166  C     0.66904   0.04304   0.73911   0.00000  Uiso   1.00
C1167  C     0.84609   0.15498   0.78684   0.00000  Uiso   1.00
C1168  C     0.82062   0.17800   0.71303   0.00000  Uiso   1.00
H1169  H     0.85449   0.14530   0.81659   0.00000  Uiso   1.00
H1170  H     0.81225   0.18772   0.68329   0.00000  Uiso   1.00
C1171  C     0.79691   0.15495   0.78681   0.00000  Uiso   1.00
C1172  C     0.86985   0.17750   0.71287   0.00000  Uiso   1.00
H1173  H     0.76941   0.14508   0.81645   0.00000  Uiso   1.00
H1174  H     0.89741   0.18674   0.68295   0.00000  Uiso   1.00
N1175  N     0.78403   0.16668   0.74999   0.00000  Uiso   1.00
N1176  N     0.88264   0.16666   0.75001   0.00000  Uiso   1.00
N1177  N     0.93853   0.23016   0.54584   0.00000  Uiso   1.00
H1178  H     0.93244   0.22119   0.57856   0.00000  Uiso   1.00
C1179  C     0.93784   0.27412   0.54270   0.00000  Uiso   1.00
H1180  H     0.96131   0.28788   0.56133   0.00000  Uiso   1.00
H1181  H     0.90051   0.28608   0.55779   0.00000  Uiso   1.00
H1182  H     0.95139   0.28331   0.50706   0.00000  Uiso   1.00
N1183  N     0.73622   0.24168   0.97054   0.00000  Uiso   1.00
H1184  H     0.75026   0.25061   0.93778   0.00000  Uiso   1.00
C1185  C     0.73086   0.27627   0.50114   0.00000  Uiso   1.00
H1186  H     0.71039   0.30090   0.99075   0.00000  Uiso   1.00
H1187  H     0.76698   0.28815   0.50055   0.00000  Uiso   1.00
H1188  H     0.71078   0.26759   0.53589   0.00000  Uiso   1.00
N1189  N     0.96684   0.14385   0.60292   0.00000  Uiso   1.00
H1190  H     0.96146   0.12802   0.63204   0.00000  Uiso   1.00
C1191  C     0.95048   0.11945   0.57109   0.00000  Uiso   1.00
H1192  H     0.97848   0.09653   0.55401   0.00000  Uiso   1.00
H1193  H     0.94148   0.13881   0.54601   0.00000  Uiso   1.00
H1194  H     0.91690   0.10305   0.58907   0.00000  Uiso   1.00
N1195  N     0.70628   0.19723   0.88438   0.00000  Uiso   1.00
H1196  H     0.72873   0.18903   0.90295   0.00000  Uiso   1.00
C1197  C     0.71801   0.23662   0.86394   0.00000  Uiso   1.00
H1198  H     0.75769   0.23862   0.84828   0.00000  Uiso   1.00
H1199  H     0.70617   0.26160   0.88936   0.00000  Uiso   1.00
H1200  H     0.69961   0.24078   0.83786   0.00000  Uiso   1.00
N1201  N     0.91797   0.04271   0.73724   0.00000  Uiso   1.00
H1202  H     0.88462   0.03160   0.75465   0.00000  Uiso   1.00
C1203  C     0.92182   0.05552   0.69203   0.00000  Uiso   1.00
H1204  H     0.92002   0.02901   0.67013   0.00000  Uiso   1.00
H1205  H     0.95662   0.07122   0.67684   0.00000  Uiso   1.00
H1206  H     0.89203   0.07707   0.69291   0.00000  Uiso   1.00
N1207  N     0.75747   0.29132   0.72672   0.00000  Uiso   1.00
H1208  H     0.78516   0.29882   0.69861   0.00000  Uiso   1.00
C1209  C     0.77237   0.28691   0.76683   0.00000  Uiso   1.00
H1210  H     0.80472   0.30548   0.76493   0.00000  Uiso   1.00
H1211  H     0.78191   0.25458   0.76985   0.00000  Uiso   1.00
H1212  H     0.74351   0.29673   0.79753   0.00000  Uiso   1.00
N1213  N     0.91343   0.29161   0.75442   0.00000  Uiso   1.00
H1214  H     0.88560   0.30296   0.78083   0.00000  Uiso   1.00
C1215  C     0.89942   0.28043   0.71502   0.00000  Uiso   1.00
H1216  H     0.88371   0.30682   0.70270   0.00000  Uiso   1.00
H1217  H     0.87103   0.25693   0.72417   0.00000  Uiso   1.00
H1218  H     0.93065   0.26791   0.68792   0.00000  Uiso   1.00
N1219  N     0.75724   0.04256   0.70959   0.00000  Uiso   1.00
H1220  H     0.77589   0.03297   0.67747   0.00000  Uiso   1.00
C1221  C     0.78758   0.05112   0.73793   0.00000  Uiso   1.00
H1222  H     0.81980   0.03109   0.72767   0.00000  Uiso   1.00
H1223  H     0.76797   0.04686   0.77403   0.00000  Uiso   1.00
H1224  H     0.80023   0.08306   0.73306   0.00000  Uiso   1.00
O1225  O     0.03958   0.43989   0.75000   0.00000  Uiso   1.00
O1226  O     0.29375   0.56011   0.75000   0.00000  Uiso   1.00
O1227  O     0.29372   0.43988   0.75000   0.00000  Uiso   1.00
O1228  O     0.03961   0.56012   0.74999   0.00000  Uiso   1.00
C1229  C     0.00110   0.42100   0.74603   0.00000  Uiso   1.00
C1230  C     0.00045   0.57932   0.74856   0.00000  Uiso   1.00
O1231  O     0.01852   0.50001   0.81491   0.00000  Uiso   1.00
O1232  O     0.31481   0.49999   0.68508   0.00000  Uiso   1.00
O1233  O     0.27267   0.50000   0.81492   0.00000  Uiso   1.00
O1234  O     0.06067   0.50000   0.68508   0.00000  Uiso   1.00
C1235  C     0.30559   0.50252   0.83600   0.00000  Uiso   1.00
C1236  C     0.02785   0.49864   0.66386   0.00000  Uiso   1.00
Cu1237 Cu    0.04689   0.50001   0.75000   0.00000  Uiso   1.00
Cu1238 Cu    0.28645   0.49999   0.75000   0.00000  Uiso   1.00
C1239  C     0.29010   0.51197   0.88483   0.00000  Uiso   1.00
C1240  C     0.04455   0.50042   0.61427   0.00000  Uiso   1.00
C1241  C     0.30620   0.53671   0.95275   0.00000  Uiso   1.00
C1242  C     0.02959   0.51124   0.54302   0.00000  Uiso   1.00
C1243  C     0.32304   0.52580   0.90730   0.00000  Uiso   1.00
C1244  C     0.01323   0.49649   0.58698   0.00000  Uiso   1.00
C1245  C     0.24084   0.51090   0.90879   0.00000  Uiso   1.00
C1246  C     0.09377   0.50855   0.59376   0.00000  Uiso   1.00
C1247  C     0.22441   0.52249   0.95452   0.00000  Uiso   1.00
C1248  C     0.11087   0.51857   0.54841   0.00000  Uiso   1.00
C1249  C     0.25775   0.53406   0.97717   0.00000  Uiso   1.00
C1250  C     0.07738   0.52367   0.52442   0.00000  Uiso   1.00
C1251  C     0.17514   0.52413   0.97814   0.00000  Uiso   1.00
C1252  C     0.16029   0.52440   0.52569   0.00000  Uiso   1.00
C1253  C     0.19416   0.53447   0.54813   0.00000  Uiso   1.00
C1254  C     0.14097   0.53329   0.95613   0.00000  Uiso   1.00
C1255  C     0.24159   0.54356   0.52364   0.00000  Uiso   1.00
C1256  C     0.09344   0.54062   0.98151   0.00000  Uiso   1.00
H1257  H     0.11868   0.50633   0.61332   0.00000  Uiso   1.00
H1258  H     0.21530   0.50034   0.89188   0.00000  Uiso   1.00
H1259  H     0.33084   0.54808   0.96899   0.00000  Uiso   1.00
H1260  H     0.00636   0.51027   0.52204   0.00000  Uiso   1.00
H1261  H     0.18325   0.54034   0.58392   0.00000  Uiso   1.00
H1262  H     0.15258   0.54302   0.92158   0.00000  Uiso   1.00
C1263  C     0.29267   0.35495   0.74175   0.00000  Uiso   1.00
C1264  C     0.04615   0.64568   0.73298   0.00000  Uiso   1.00
C1265  C     0.29164   0.64583   0.74622   0.00000  Uiso   1.00
C1266  C     0.04639   0.35496   0.72917   0.00000  Uiso   1.00
C1267  C     0.00158   0.62425   0.74369   0.00000  Uiso   1.00
C1268  C     0.00237   0.37637   0.73911   0.00000  Uiso   1.00
C1269  C     0.17942   0.48832   0.78684   0.00000  Uiso   1.00
C1270  C     0.15396   0.51134   0.71303   0.00000  Uiso   1.00
H1271  H     0.18782   0.47863   0.81659   0.00000  Uiso   1.00
H1272  H     0.14559   0.52105   0.68329   0.00000  Uiso   1.00
C1273  C     0.13025   0.48828   0.78681   0.00000  Uiso   1.00
C1274  C     0.20318   0.51083   0.71287   0.00000  Uiso   1.00
H1275  H     0.10274   0.47842   0.81645   0.00000  Uiso   1.00
H1276  H     0.23074   0.52008   0.68295   0.00000  Uiso   1.00
N1277  N     0.11736   0.50001   0.74999   0.00000  Uiso   1.00
N1278  N     0.21597   0.49999   0.75001   0.00000  Uiso   1.00
N1279  N     0.27187   0.56350   0.54584   0.00000  Uiso   1.00
H1280  H     0.26578   0.55452   0.57856   0.00000  Uiso   1.00
C1281  C     0.27117   0.60745   0.54270   0.00000  Uiso   1.00
H1282  H     0.29464   0.62122   0.56133   0.00000  Uiso   1.00
H1283  H     0.23384   0.61941   0.55779   0.00000  Uiso   1.00
H1284  H     0.28472   0.61665   0.50706   0.00000  Uiso   1.00
N1285  N     0.06955   0.57502   0.97054   0.00000  Uiso   1.00
H1286  H     0.08359   0.58394   0.93778   0.00000  Uiso   1.00
C1287  C     0.06419   0.60961   0.50114   0.00000  Uiso   1.00
H1288  H     0.04372   0.63423   0.99075   0.00000  Uiso   1.00
H1289  H     0.10031   0.62149   0.50055   0.00000  Uiso   1.00
H1290  H     0.04411   0.60092   0.53589   0.00000  Uiso   1.00
N1291  N     0.30017   0.47719   0.60292   0.00000  Uiso   1.00
H1292  H     0.29480   0.46135   0.63204   0.00000  Uiso   1.00
C1293  C     0.28381   0.45278   0.57109   0.00000  Uiso   1.00
H1294  H     0.31181   0.42986   0.55401   0.00000  Uiso   1.00
H1295  H     0.27482   0.47215   0.54601   0.00000  Uiso   1.00
H1296  H     0.25023   0.43638   0.58907   0.00000  Uiso   1.00
N1297  N     0.03961   0.53056   0.88438   0.00000  Uiso   1.00
H1298  H     0.06207   0.52236   0.90295   0.00000  Uiso   1.00
C1299  C     0.05135   0.56995   0.86394   0.00000  Uiso   1.00
H1300  H     0.09102   0.57195   0.84828   0.00000  Uiso   1.00
H1301  H     0.03950   0.59493   0.88936   0.00000  Uiso   1.00
H1302  H     0.03294   0.57412   0.83786   0.00000  Uiso   1.00
N1303  N     0.25130   0.37604   0.73724   0.00000  Uiso   1.00
H1304  H     0.21795   0.36493   0.75465   0.00000  Uiso   1.00
C1305  C     0.25515   0.38885   0.69203   0.00000  Uiso   1.00
H1306  H     0.25335   0.36235   0.67013   0.00000  Uiso   1.00
H1307  H     0.28995   0.40455   0.67684   0.00000  Uiso   1.00
H1308  H     0.22536   0.41041   0.69291   0.00000  Uiso   1.00
N1309  N     0.09081   0.62466   0.72672   0.00000  Uiso   1.00
H1310  H     0.11850   0.63215   0.69861   0.00000  Uiso   1.00
C1311  C     0.10571   0.62024   0.76683   0.00000  Uiso   1.00
H1312  H     0.13806   0.63882   0.76493   0.00000  Uiso   1.00
H1313  H     0.11525   0.58792   0.76985   0.00000  Uiso   1.00
H1314  H     0.07684   0.63006   0.79753   0.00000  Uiso   1.00
N1315  N     0.24677   0.62495   0.75442   0.00000  Uiso   1.00
H1316  H     0.21894   0.63629   0.78083   0.00000  Uiso   1.00
C1317  C     0.23276   0.61376   0.71502   0.00000  Uiso   1.00
H1318  H     0.21704   0.64015   0.70270   0.00000  Uiso   1.00
H1319  H     0.20436   0.59026   0.72417   0.00000  Uiso   1.00
H1320  H     0.26399   0.60124   0.68792   0.00000  Uiso   1.00
N1321  N     0.09058   0.37589   0.70959   0.00000  Uiso   1.00
H1322  H     0.10922   0.36630   0.67747   0.00000  Uiso   1.00
C1323  C     0.12091   0.38445   0.73793   0.00000  Uiso   1.00
H1324  H     0.15314   0.36443   0.72767   0.00000  Uiso   1.00
H1325  H     0.10131   0.38019   0.77403   0.00000  Uiso   1.00
H1326  H     0.13356   0.41639   0.73306   0.00000  Uiso   1.00
O1327  O     0.37291   0.43989   0.75000   0.00000  Uiso   1.00
O1328  O     0.62709   0.56011   0.75000   0.00000  Uiso   1.00
O1329  O     0.62706   0.43988   0.75000   0.00000  Uiso   1.00
O1330  O     0.37294   0.56012   0.74999   0.00000  Uiso   1.00
C1331  C     0.33443   0.42100   0.74603   0.00000  Uiso   1.00
C1332  C     0.33379   0.57932   0.74856   0.00000  Uiso   1.00
O1333  O     0.35186   0.50001   0.81491   0.00000  Uiso   1.00
O1334  O     0.64814   0.49999   0.68508   0.00000  Uiso   1.00
O1335  O     0.60600   0.50000   0.81492   0.00000  Uiso   1.00
O1336  O     0.39400   0.50000   0.68508   0.00000  Uiso   1.00
C1337  C     0.63893   0.50252   0.83600   0.00000  Uiso   1.00
C1338  C     0.36118   0.49864   0.66386   0.00000  Uiso   1.00
Cu1339 Cu    0.38022   0.50001   0.75000   0.00000  Uiso   1.00
Cu1340 Cu    0.61978   0.49999   0.75000   0.00000  Uiso   1.00
C1341  C     0.62343   0.51197   0.88483   0.00000  Uiso   1.00
C1342  C     0.37789   0.50042   0.61427   0.00000  Uiso   1.00
C1343  C     0.63953   0.53671   0.95275   0.00000  Uiso   1.00
C1344  C     0.36292   0.51124   0.54302   0.00000  Uiso   1.00
C1345  C     0.65638   0.52580   0.90730   0.00000  Uiso   1.00
C1346  C     0.34656   0.49649   0.58698   0.00000  Uiso   1.00
C1347  C     0.57417   0.51090   0.90879   0.00000  Uiso   1.00
C1348  C     0.42710   0.50855   0.59376   0.00000  Uiso   1.00
C1349  C     0.55774   0.52249   0.95452   0.00000  Uiso   1.00
C1350  C     0.44420   0.51857   0.54841   0.00000  Uiso   1.00
C1351  C     0.59108   0.53406   0.97717   0.00000  Uiso   1.00
C1352  C     0.41071   0.52367   0.52442   0.00000  Uiso   1.00
C1353  C     0.50848   0.52413   0.97814   0.00000  Uiso   1.00
C1354  C     0.49362   0.52440   0.52569   0.00000  Uiso   1.00
C1355  C     0.52750   0.53447   0.54813   0.00000  Uiso   1.00
C1356  C     0.47430   0.53329   0.95613   0.00000  Uiso   1.00
C1357  C     0.57492   0.54356   0.52364   0.00000  Uiso   1.00
C1358  C     0.42678   0.54062   0.98151   0.00000  Uiso   1.00
H1359  H     0.45201   0.50633   0.61332   0.00000  Uiso   1.00
H1360  H     0.54863   0.50034   0.89188   0.00000  Uiso   1.00
H1361  H     0.66417   0.54808   0.96899   0.00000  Uiso   1.00
H1362  H     0.33970   0.51027   0.52204   0.00000  Uiso   1.00
H1363  H     0.51658   0.54034   0.58392   0.00000  Uiso   1.00
H1364  H     0.48591   0.54302   0.92158   0.00000  Uiso   1.00
C1365  C     0.62601   0.35495   0.74175   0.00000  Uiso   1.00
C1366  C     0.37948   0.64568   0.73298   0.00000  Uiso   1.00
C1367  C     0.62498   0.64583   0.74622   0.00000  Uiso   1.00
C1368  C     0.37972   0.35496   0.72917   0.00000  Uiso   1.00
C1369  C     0.33492   0.62425   0.74369   0.00000  Uiso   1.00
C1370  C     0.33571   0.37637   0.73911   0.00000  Uiso   1.00
C1371  C     0.51276   0.48832   0.78684   0.00000  Uiso   1.00
C1372  C     0.48729   0.51134   0.71303   0.00000  Uiso   1.00
H1373  H     0.52115   0.47863   0.81659   0.00000  Uiso   1.00
H1374  H     0.47892   0.52105   0.68329   0.00000  Uiso   1.00
C1375  C     0.46358   0.48828   0.78681   0.00000  Uiso   1.00
C1376  C     0.53651   0.51083   0.71287   0.00000  Uiso   1.00
H1377  H     0.43608   0.47842   0.81645   0.00000  Uiso   1.00
H1378  H     0.56408   0.52008   0.68295   0.00000  Uiso   1.00
N1379  N     0.45069   0.50001   0.74999   0.00000  Uiso   1.00
N1380  N     0.54931   0.49999   0.75001   0.00000  Uiso   1.00
N1381  N     0.60520   0.56350   0.54584   0.00000  Uiso   1.00
H1382  H     0.59911   0.55452   0.57856   0.00000  Uiso   1.00
C1383  C     0.60450   0.60745   0.54270   0.00000  Uiso   1.00
H1384  H     0.62797   0.62122   0.56133   0.00000  Uiso   1.00
H1385  H     0.56718   0.61941   0.55779   0.00000  Uiso   1.00
H1386  H     0.61806   0.61665   0.50706   0.00000  Uiso   1.00
N1387  N     0.40288   0.57502   0.97054   0.00000  Uiso   1.00
H1388  H     0.41693   0.58394   0.93778   0.00000  Uiso   1.00
C1389  C     0.39753   0.60961   0.50114   0.00000  Uiso   1.00
H1390  H     0.37706   0.63423   0.99075   0.00000  Uiso   1.00
H1391  H     0.43365   0.62149   0.50055   0.00000  Uiso   1.00
H1392  H     0.37745   0.60092   0.53589   0.00000  Uiso   1.00
N1393  N     0.63350   0.47719   0.60292   0.00000  Uiso   1.00
H1394  H     0.62813   0.46135   0.63204   0.00000  Uiso   1.00
C1395  C     0.61715   0.45278   0.57109   0.00000  Uiso   1.00
H1396  H     0.64514   0.42986   0.55401   0.00000  Uiso   1.00
H1397  H     0.60815   0.47215   0.54601   0.00000  Uiso   1.00
H1398  H     0.58356   0.43638   0.58907   0.00000  Uiso   1.00
N1399  N     0.37294   0.53056   0.88438   0.00000  Uiso   1.00
H1400  H     0.39540   0.52236   0.90295   0.00000  Uiso   1.00
C1401  C     0.38468   0.56995   0.86394   0.00000  Uiso   1.00
H1402  H     0.42435   0.57195   0.84828   0.00000  Uiso   1.00
H1403  H     0.37284   0.59493   0.88936   0.00000  Uiso   1.00
H1404  H     0.36627   0.57412   0.83786   0.00000  Uiso   1.00
N1405  N     0.58464   0.37604   0.73724   0.00000  Uiso   1.00
H1406  H     0.55129   0.36493   0.75465   0.00000  Uiso   1.00
C1407  C     0.58849   0.38885   0.69203   0.00000  Uiso   1.00
H1408  H     0.58668   0.36235   0.67013   0.00000  Uiso   1.00
H1409  H     0.62329   0.40455   0.67684   0.00000  Uiso   1.00
H1410  H     0.55870   0.41041   0.69291   0.00000  Uiso   1.00
N1411  N     0.42414   0.62466   0.72672   0.00000  Uiso   1.00
H1412  H     0.45183   0.63215   0.69861   0.00000  Uiso   1.00
C1413  C     0.43904   0.62024   0.76683   0.00000  Uiso   1.00
H1414  H     0.47139   0.63882   0.76493   0.00000  Uiso   1.00
H1415  H     0.44858   0.58792   0.76985   0.00000  Uiso   1.00
H1416  H     0.41018   0.63006   0.79753   0.00000  Uiso   1.00
N1417  N     0.58010   0.62495   0.75442   0.00000  Uiso   1.00
H1418  H     0.55227   0.63629   0.78083   0.00000  Uiso   1.00
C1419  C     0.56609   0.61376   0.71502   0.00000  Uiso   1.00
H1420  H     0.55037   0.64015   0.70270   0.00000  Uiso   1.00
H1421  H     0.53770   0.59026   0.72417   0.00000  Uiso   1.00
H1422  H     0.59732   0.60124   0.68792   0.00000  Uiso   1.00
N1423  N     0.42391   0.37589   0.70959   0.00000  Uiso   1.00
H1424  H     0.44256   0.36630   0.67747   0.00000  Uiso   1.00
C1425  C     0.45425   0.38445   0.73793   0.00000  Uiso   1.00
H1426  H     0.48647   0.36443   0.72767   0.00000  Uiso   1.00
H1427  H     0.43464   0.38019   0.77403   0.00000  Uiso   1.00
H1428  H     0.46689   0.41639   0.73306   0.00000  Uiso   1.00
O1429  O     0.70625   0.43989   0.75000   0.00000  Uiso   1.00
O1430  O     0.96042   0.56011   0.75000   0.00000  Uiso   1.00
O1431  O     0.96039   0.43988   0.75000   0.00000  Uiso   1.00
O1432  O     0.70628   0.56012   0.74999   0.00000  Uiso   1.00
C1433  C     0.66776   0.42100   0.74603   0.00000  Uiso   1.00
C1434  C     0.66712   0.57932   0.74856   0.00000  Uiso   1.00
O1435  O     0.68519   0.50001   0.81491   0.00000  Uiso   1.00
O1436  O     0.98148   0.49999   0.68508   0.00000  Uiso   1.00
O1437  O     0.93933   0.50000   0.81492   0.00000  Uiso   1.00
O1438  O     0.72733   0.50000   0.68508   0.00000  Uiso   1.00
C1439  C     0.97226   0.50252   0.83600   0.00000  Uiso   1.00
C1440  C     0.69451   0.49864   0.66386   0.00000  Uiso   1.00
Cu1441 Cu    0.71355   0.50001   0.75000   0.00000  Uiso   1.00
Cu1442 Cu    0.95311   0.49999   0.75000   0.00000  Uiso   1.00
C1443  C     0.95677   0.51197   0.88483   0.00000  Uiso   1.00
C1444  C     0.71122   0.50042   0.61427   0.00000  Uiso   1.00
C1445  C     0.97287   0.53671   0.95275   0.00000  Uiso   1.00
C1446  C     0.69626   0.51124   0.54302   0.00000  Uiso   1.00
C1447  C     0.98971   0.52580   0.90730   0.00000  Uiso   1.00
C1448  C     0.67989   0.49649   0.58698   0.00000  Uiso   1.00
C1449  C     0.90750   0.51090   0.90879   0.00000  Uiso   1.00
C1450  C     0.76043   0.50855   0.59376   0.00000  Uiso   1.00
C1451  C     0.89108   0.52249   0.95452   0.00000  Uiso   1.00
C1452  C     0.77753   0.51857   0.54841   0.00000  Uiso   1.00
C1453  C     0.92441   0.53406   0.97717   0.00000  Uiso   1.00
C1454  C     0.74405   0.52367   0.52442   0.00000  Uiso   1.00
C1455  C     0.84181   0.52413   0.97814   0.00000  Uiso   1.00
C1456  C     0.82695   0.52440   0.52569   0.00000  Uiso   1.00
C1457  C     0.86083   0.53447   0.54813   0.00000  Uiso   1.00
C1458  C     0.80763   0.53329   0.95613   0.00000  Uiso   1.00
C1459  C     0.90826   0.54356   0.52364   0.00000  Uiso   1.00
C1460  C     0.76011   0.54062   0.98151   0.00000  Uiso   1.00
H1461  H     0.78535   0.50633   0.61332   0.00000  Uiso   1.00
H1462  H     0.88196   0.50034   0.89188   0.00000  Uiso   1.00
H1463  H     0.99751   0.54808   0.96899   0.00000  Uiso   1.00
H1464  H     0.67303   0.51027   0.52204   0.00000  Uiso   1.00
H1465  H     0.84991   0.54034   0.58392   0.00000  Uiso   1.00
H1466  H     0.81925   0.54302   0.92158   0.00000  Uiso   1.00
C1467  C     0.95934   0.35495   0.74175   0.00000  Uiso   1.00
C1468  C     0.71281   0.64568   0.73298   0.00000  Uiso   1.00
C1469  C     0.95831   0.64583   0.74622   0.00000  Uiso   1.00
C1470  C     0.71306   0.35496   0.72917   0.00000  Uiso   1.00
C1471  C     0.66825   0.62425   0.74369   0.00000  Uiso   1.00
C1472  C     0.66904   0.37637   0.73911   0.00000  Uiso   1.00
C1473  C     0.84609   0.48832   0.78684   0.00000  Uiso   1.00
C1474  C     0.82062   0.51134   0.71303   0.00000  Uiso   1.00
H1475  H     0.85449   0.47863   0.81659   0.00000  Uiso   1.00
H1476  H     0.81225   0.52105   0.68329   0.00000  Uiso   1.00
C1477  C     0.79691   0.48828   0.78681   0.00000  Uiso   1.00
C1478  C     0.86985   0.51083   0.71287   0.00000  Uiso   1.00
H1479  H     0.76941   0.47842   0.81645   0.00000  Uiso   1.00
H1480  H     0.89741   0.52008   0.68295   0.00000  Uiso   1.00
N1481  N     0.78403   0.50001   0.74999   0.00000  Uiso   1.00
N1482  N     0.88264   0.49999   0.75001   0.00000  Uiso   1.00
N1483  N     0.93853   0.56350   0.54584   0.00000  Uiso   1.00
H1484  H     0.93244   0.55452   0.57856   0.00000  Uiso   1.00
C1485  C     0.93784   0.60745   0.54270   0.00000  Uiso   1.00
H1486  H     0.96131   0.62122   0.56133   0.00000  Uiso   1.00
H1487  H     0.90051   0.61941   0.55779   0.00000  Uiso   1.00
H1488  H     0.95139   0.61665   0.50706   0.00000  Uiso   1.00
N1489  N     0.73622   0.57502   0.97054   0.00000  Uiso   1.00
H1490  H     0.75026   0.58394   0.93778   0.00000  Uiso   1.00
C1491  C     0.73086   0.60961   0.50114   0.00000  Uiso   1.00
H1492  H     0.71039   0.63423   0.99075   0.00000  Uiso   1.00
H1493  H     0.76698   0.62149   0.50055   0.00000  Uiso   1.00
H1494  H     0.71078   0.60092   0.53589   0.00000  Uiso   1.00
N1495  N     0.96684   0.47719   0.60292   0.00000  Uiso   1.00
H1496  H     0.96146   0.46135   0.63204   0.00000  Uiso   1.00
C1497  C     0.95048   0.45278   0.57109   0.00000  Uiso   1.00
H1498  H     0.97848   0.42986   0.55401   0.00000  Uiso   1.00
H1499  H     0.94148   0.47215   0.54601   0.00000  Uiso   1.00
H1500  H     0.91690   0.43638   0.58907   0.00000  Uiso   1.00
N1501  N     0.70628   0.53056   0.88438   0.00000  Uiso   1.00
H1502  H     0.72873   0.52236   0.90295   0.00000  Uiso   1.00
C1503  C     0.71801   0.56995   0.86394   0.00000  Uiso   1.00
H1504  H     0.75769   0.57195   0.84828   0.00000  Uiso   1.00
H1505  H     0.70617   0.59493   0.88936   0.00000  Uiso   1.00
H1506  H     0.69961   0.57412   0.83786   0.00000  Uiso   1.00
N1507  N     0.91797   0.37604   0.73724   0.00000  Uiso   1.00
H1508  H     0.88462   0.36493   0.75465   0.00000  Uiso   1.00
C1509  C     0.92182   0.38885   0.69203   0.00000  Uiso   1.00
H1510  H     0.92002   0.36235   0.67013   0.00000  Uiso   1.00
H1511  H     0.95662   0.40455   0.67684   0.00000  Uiso   1.00
H1512  H     0.89203   0.41041   0.69291   0.00000  Uiso   1.00
N1513  N     0.75747   0.62466   0.72672   0.00000  Uiso   1.00
H1514  H     0.78516   0.63215   0.69861   0.00000  Uiso   1.00
C1515  C     0.77237   0.62024   0.76683   0.00000  Uiso   1.00
H1516  H     0.80472   0.63882   0.76493   0.00000  Uiso   1.00
H1517  H     0.78191   0.58792   0.76985   0.00000  Uiso   1.00
H1518  H     0.74351   0.63006   0.79753   0.00000  Uiso   1.00
N1519  N     0.91343   0.62495   0.75442   0.00000  Uiso   1.00
H1520  H     0.88560   0.63629   0.78083   0.00000  Uiso   1.00
C1521  C     0.89942   0.61376   0.71502   0.00000  Uiso   1.00
H1522  H     0.88371   0.64015   0.70270   0.00000  Uiso   1.00
H1523  H     0.87103   0.59026   0.72417   0.00000  Uiso   1.00
H1524  H     0.93065   0.60124   0.68792   0.00000  Uiso   1.00
N1525  N     0.75724   0.37589   0.70959   0.00000  Uiso   1.00
H1526  H     0.77589   0.36630   0.67747   0.00000  Uiso   1.00
C1527  C     0.78758   0.38445   0.73793   0.00000  Uiso   1.00
H1528  H     0.81980   0.36443   0.72767   0.00000  Uiso   1.00
H1529  H     0.76797   0.38019   0.77403   0.00000  Uiso   1.00
H1530  H     0.80023   0.41639   0.73306   0.00000  Uiso   1.00
O1531  O     0.03958   0.77322   0.75000   0.00000  Uiso   1.00
O1532  O     0.29375   0.89345   0.75000   0.00000  Uiso   1.00
O1533  O     0.29372   0.77321   0.75000   0.00000  Uiso   1.00
O1534  O     0.03961   0.89346   0.74999   0.00000  Uiso   1.00
C1535  C     0.00110   0.75434   0.74603   0.00000  Uiso   1.00
C1536  C     0.00045   0.91266   0.74856   0.00000  Uiso   1.00
O1537  O     0.01852   0.83334   0.81491   0.00000  Uiso   1.00
O1538  O     0.31481   0.83332   0.68508   0.00000  Uiso   1.00
O1539  O     0.27267   0.83333   0.81492   0.00000  Uiso   1.00
O1540  O     0.06067   0.83333   0.68508   0.00000  Uiso   1.00
C1541  C     0.30559   0.83586   0.83600   0.00000  Uiso   1.00
C1542  C     0.02785   0.83197   0.66386   0.00000  Uiso   1.00
Cu1543 Cu    0.04689   0.83334   0.75000   0.00000  Uiso   1.00
Cu1544 Cu    0.28645   0.83333   0.75000   0.00000  Uiso   1.00
C1545  C     0.29010   0.84531   0.88483   0.00000  Uiso   1.00
C1546  C     0.04455   0.83375   0.61427   0.00000  Uiso   1.00
C1547  C     0.30620   0.87004   0.95275   0.00000  Uiso   1.00
C1548  C     0.02959   0.84457   0.54302   0.00000  Uiso   1.00
C1549  C     0.32304   0.85914   0.90730   0.00000  Uiso   1.00
C1550  C     0.01323   0.82982   0.58698   0.00000  Uiso   1.00
C1551  C     0.24084   0.84424   0.90879   0.00000  Uiso   1.00
C1552  C     0.09377   0.84188   0.59376   0.00000  Uiso   1.00
C1553  C     0.22441   0.85583   0.95452   0.00000  Uiso   1.00
C1554  C     0.11087   0.85190   0.54841   0.00000  Uiso   1.00
C1555  C     0.25775   0.86739   0.97717   0.00000  Uiso   1.00
C1556  C     0.07738   0.85700   0.52442   0.00000  Uiso   1.00
C1557  C     0.17514   0.85747   0.97814   0.00000  Uiso   1.00
C1558  C     0.16029   0.85773   0.52569   0.00000  Uiso   1.00
C1559  C     0.19416   0.86780   0.54813   0.00000  Uiso   1.00
C1560  C     0.14097   0.86662   0.95613   0.00000  Uiso   1.00
C1561  C     0.24159   0.87689   0.52364   0.00000  Uiso   1.00
C1562  C     0.09344   0.87396   0.98151   0.00000  Uiso   1.00
H1563  H     0.11868   0.83966   0.61332   0.00000  Uiso   1.00
H1564  H     0.21530   0.83367   0.89188   0.00000  Uiso   1.00
H1565  H     0.33084   0.88141   0.96899   0.00000  Uiso   1.00
H1566  H     0.00636   0.84361   0.52204   0.00000  Uiso   1.00
H1567  H     0.18325   0.87367   0.58392   0.00000  Uiso   1.00
H1568  H     0.15258   0.87635   0.92158   0.00000  Uiso   1.00
C1569  C     0.29267   0.68829   0.74175   0.00000  Uiso   1.00
C1570  C     0.04615   0.97901   0.73298   0.00000  Uiso   1.00
C1571  C     0.29164   0.97917   0.74622   0.00000  Uiso   1.00
C1572  C     0.04639   0.68829   0.72917   0.00000  Uiso   1.00
C1573  C     0.00158   0.95759   0.74369   0.00000  Uiso   1.00
C1574  C     0.00237   0.70970   0.73911   0.00000  Uiso   1.00
C1575  C     0.17942   0.82165   0.78684   0.00000  Uiso   1.00
C1576  C     0.15396   0.84467   0.71303   0.00000  Uiso   1.00
H1577  H     0.18782   0.81197   0.81659   0.00000  Uiso   1.00
H1578  H     0.14559   0.85438   0.68329   0.00000  Uiso   1.00
C1579  C     0.13025   0.82161   0.78681   0.00000  Uiso   1.00
C1580  C     0.20318   0.84417   0.71287   0.00000  Uiso   1.00
H1581  H     0.10274   0.81175   0.81645   0.00000  Uiso   1.00
H1582  H     0.23074   0.85341   0.68295   0.00000  Uiso   1.00
N1583  N     0.11736   0.83334   0.74999   0.00000  Uiso   1.00
N1584  N     0.21597   0.83332   0.75001   0.00000  Uiso   1.00
N1585  N     0.27187   0.89683   0.54584   0.00000  Uiso   1.00
H1586  H     0.26578   0.88785   0.57856   0.00000  Uiso   1.00
C1587  C     0.27117   0.94078   0.54270   0.00000  Uiso   1.00
H1588  H     0.29464   0.95455   0.56133   0.00000  Uiso   1.00
H1589  H     0.23384   0.95274   0.55779   0.00000  Uiso   1.00
H1590  H     0.28472   0.94998   0.50706   0.00000  Uiso   1.00
N1591  N     0.06955   0.90835   0.97054   0.00000  Uiso   1.00
H1592  H     0.08359   0.91728   0.93778   0.00000  Uiso   1.00
C1593  C     0.06419   0.94294   0.50114   0.00000  Uiso   1.00
H1594  H     0.04372   0.96756   0.99075   0.00000  Uiso   1.00
H1595  H     0.10031   0.95482   0.50055   0.00000  Uiso   1.00
H1596  H     0.04411   0.93426   0.53589   0.00000  Uiso   1.00
N1597  N     0.30017   0.81052   0.60292   0.00000  Uiso   1.00
H1598  H     0.29480   0.79468   0.63204   0.00000  Uiso   1.00
C1599  C     0.28381   0.78611   0.57109   0.00000  Uiso   1.00
H1600  H     0.31181   0.76319   0.55401   0.00000  Uiso   1.00
H1601  H     0.27482   0.80548   0.54601   0.00000  Uiso   1.00
H1602  H     0.25023   0.76972   0.58907   0.00000  Uiso   1.00
N1603  N     0.03961   0.86389   0.88438   0.00000  Uiso   1.00
H1604  H     0.06207   0.85570   0.90295   0.00000  Uiso   1.00
C1605  C     0.05135   0.90328   0.86394   0.00000  Uiso   1.00
H1606  H     0.09102   0.90528   0.84828   0.00000  Uiso   1.00
H1607  H     0.03950   0.92826   0.88936   0.00000  Uiso   1.00
H1608  H     0.03294   0.90745   0.83786   0.00000  Uiso   1.00
N1609  N     0.25130   0.70937   0.73724   0.00000  Uiso   1.00
H1610  H     0.21795   0.69827   0.75465   0.00000  Uiso   1.00
C1611  C     0.25515   0.72218   0.69203   0.00000  Uiso   1.00
H1612  H     0.25335   0.69568   0.67013   0.00000  Uiso   1.00
H1613  H     0.28995   0.73788   0.67684   0.00000  Uiso   1.00
H1614  H     0.22536   0.74374   0.69291   0.00000  Uiso   1.00
N1615  N     0.09081   0.95799   0.72672   0.00000  Uiso   1.00
H1616  H     0.11850   0.96549   0.69861   0.00000  Uiso   1.00
C1617  C     0.10571   0.95358   0.76683   0.00000  Uiso   1.00
H1618  H     0.13806   0.97215   0.76493   0.00000  Uiso   1.00
H1619  H     0.11525   0.92125   0.76985   0.00000  Uiso   1.00
H1620  H     0.07684   0.96340   0.79753   0.00000  Uiso   1.00
N1621  N     0.24677   0.95828   0.75442   0.00000  Uiso   1.00
H1622  H     0.21894   0.96962   0.78083   0.00000  Uiso   1.00
C1623  C     0.23276   0.94709   0.71502   0.00000  Uiso   1.00
H1624  H     0.21704   0.97348   0.70270   0.00000  Uiso   1.00
H1625  H     0.20436   0.92360   0.72417   0.00000  Uiso   1.00
H1626  H     0.26399   0.93458   0.68792   0.00000  Uiso   1.00
N1627  N     0.09058   0.70923   0.70959   0.00000  Uiso   1.00
H1628  H     0.10922   0.69964   0.67747   0.00000  Uiso   1.00
C1629  C     0.12091   0.71778   0.73793   0.00000  Uiso   1.00
H1630  H     0.15314   0.69776   0.72767   0.00000  Uiso   1.00
H1631  H     0.10131   0.71353   0.77403   0.00000  Uiso   1.00
H1632  H     0.13356   0.74973   0.73306   0.00000  Uiso   1.00
O1633  O     0.37291   0.77322   0.75000   0.00000  Uiso   1.00
O1634  O     0.62709   0.89345   0.75000   0.00000  Uiso   1.00
O1635  O     0.62706   0.77321   0.75000   0.00000  Uiso   1.00
O1636  O     0.37294   0.89346   0.74999   0.00000  Uiso   1.00
C1637  C     0.33443   0.75434   0.74603   0.00000  Uiso   1.00
C1638  C     0.33379   0.91266   0.74856   0.00000  Uiso   1.00
O1639  O     0.35186   0.83334   0.81491   0.00000  Uiso   1.00
O1640  O     0.64814   0.83332   0.68508   0.00000  Uiso   1.00
O1641  O     0.60600   0.83333   0.81492   0.00000  Uiso   1.00
O1642  O     0.39400   0.83333   0.68508   0.00000  Uiso   1.00
C1643  C     0.63893   0.83586   0.83600   0.00000  Uiso   1.00
C1644  C     0.36118   0.83197   0.66386   0.00000  Uiso   1.00
Cu1645 Cu    0.38022   0.83334   0.75000   0.00000  Uiso   1.00
Cu1646 Cu    0.61978   0.83333   0.75000   0.00000  Uiso   1.00
C1647  C     0.62343   0.84531   0.88483   0.00000  Uiso   1.00
C1648  C     0.37789   0.83375   0.61427   0.00000  Uiso   1.00
C1649  C     0.63953   0.87004   0.95275   0.00000  Uiso   1.00
C1650  C     0.36292   0.84457   0.54302   0.00000  Uiso   1.00
C1651  C     0.65638   0.85914   0.90730   0.00000  Uiso   1.00
C1652  C     0.34656   0.82982   0.58698   0.00000  Uiso   1.00
C1653  C     0.57417   0.84424   0.90879   0.00000  Uiso   1.00
C1654  C     0.42710   0.84188   0.59376   0.00000  Uiso   1.00
C1655  C     0.55774   0.85583   0.95452   0.00000  Uiso   1.00
C1656  C     0.44420   0.85190   0.54841   0.00000  Uiso   1.00
C1657  C     0.59108   0.86739   0.97717   0.00000  Uiso   1.00
C1658  C     0.41071   0.85700   0.52442   0.00000  Uiso   1.00
C1659  C     0.50848   0.85747   0.97814   0.00000  Uiso   1.00
C1660  C     0.49362   0.85773   0.52569   0.00000  Uiso   1.00
C1661  C     0.52750   0.86780   0.54813   0.00000  Uiso   1.00
C1662  C     0.47430   0.86662   0.95613   0.00000  Uiso   1.00
C1663  C     0.57492   0.87689   0.52364   0.00000  Uiso   1.00
C1664  C     0.42678   0.87396   0.98151   0.00000  Uiso   1.00
H1665  H     0.45201   0.83966   0.61332   0.00000  Uiso   1.00
H1666  H     0.54863   0.83367   0.89188   0.00000  Uiso   1.00
H1667  H     0.66417   0.88141   0.96899   0.00000  Uiso   1.00
H1668  H     0.33970   0.84361   0.52204   0.00000  Uiso   1.00
H1669  H     0.51658   0.87367   0.58392   0.00000  Uiso   1.00
H1670  H     0.48591   0.87635   0.92158   0.00000  Uiso   1.00
C1671  C     0.62601   0.68829   0.74175   0.00000  Uiso   1.00
C1672  C     0.37948   0.97901   0.73298   0.00000  Uiso   1.00
C1673  C     0.62498   0.97917   0.74622   0.00000  Uiso   1.00
C1674  C     0.37972   0.68829   0.72917   0.00000  Uiso   1.00
C1675  C     0.33492   0.95759   0.74369   0.00000  Uiso   1.00
C1676  C     0.33571   0.70970   0.73911   0.00000  Uiso   1.00
C1677  C     0.51276   0.82165   0.78684   0.00000  Uiso   1.00
C1678  C     0.48729   0.84467   0.71303   0.00000  Uiso   1.00
H1679  H     0.52115   0.81197   0.81659   0.00000  Uiso   1.00
H1680  H     0.47892   0.85438   0.68329   0.00000  Uiso   1.00
C1681  C     0.46358   0.82161   0.78681   0.00000  Uiso   1.00
C1682  C     0.53651   0.84417   0.71287   0.00000  Uiso   1.00
H1683  H     0.43608   0.81175   0.81645   0.00000  Uiso   1.00
H1684  H     0.56408   0.85341   0.68295   0.00000  Uiso   1.00
N1685  N     0.45069   0.83334   0.74999   0.00000  Uiso   1.00
N1686  N     0.54931   0.83332   0.75001   0.00000  Uiso   1.00
N1687  N     0.60520   0.89683   0.54584   0.00000  Uiso   1.00
H1688  H     0.59911   0.88785   0.57856   0.00000  Uiso   1.00
C1689  C     0.60450   0.94078   0.54270   0.00000  Uiso   1.00
H1690  H     0.62797   0.95455   0.56133   0.00000  Uiso   1.00
H1691  H     0.56718   0.95274   0.55779   0.00000  Uiso   1.00
H1692  H     0.61806   0.94998   0.50706   0.00000  Uiso   1.00
N1693  N     0.40288   0.90835   0.97054   0.00000  Uiso   1.00
H1694  H     0.41693   0.91728   0.93778   0.00000  Uiso   1.00
C1695  C     0.39753   0.94294   0.50114   0.00000  Uiso   1.00
H1696  H     0.37706   0.96756   0.99075   0.00000  Uiso   1.00
H1697  H     0.43365   0.95482   0.50055   0.00000  Uiso   1.00
H1698  H     0.37745   0.93426   0.53589   0.00000  Uiso   1.00
N1699  N     0.63350   0.81052   0.60292   0.00000  Uiso   1.00
H1700  H     0.62813   0.79468   0.63204   0.00000  Uiso   1.00
C1701  C     0.61715   0.78611   0.57109   0.00000  Uiso   1.00
H1702  H     0.64514   0.76319   0.55401   0.00000  Uiso   1.00
H1703  H     0.60815   0.80548   0.54601   0.00000  Uiso   1.00
H1704  H     0.58356   0.76972   0.58907   0.00000  Uiso   1.00
N1705  N     0.37294   0.86389   0.88438   0.00000  Uiso   1.00
H1706  H     0.39540   0.85570   0.90295   0.00000  Uiso   1.00
C1707  C     0.38468   0.90328   0.86394   0.00000  Uiso   1.00
H1708  H     0.42435   0.90528   0.84828   0.00000  Uiso   1.00
H1709  H     0.37284   0.92826   0.88936   0.00000  Uiso   1.00
H1710  H     0.36627   0.90745   0.83786   0.00000  Uiso   1.00
N1711  N     0.58464   0.70937   0.73724   0.00000  Uiso   1.00
H1712  H     0.55129   0.69827   0.75465   0.00000  Uiso   1.00
C1713  C     0.58849   0.72218   0.69203   0.00000  Uiso   1.00
H1714  H     0.58668   0.69568   0.67013   0.00000  Uiso   1.00
H1715  H     0.62329   0.73788   0.67684   0.00000  Uiso   1.00
H1716  H     0.55870   0.74374   0.69291   0.00000  Uiso   1.00
N1717  N     0.42414   0.95799   0.72672   0.00000  Uiso   1.00
H1718  H     0.45183   0.96549   0.69861   0.00000  Uiso   1.00
C1719  C     0.43904   0.95358   0.76683   0.00000  Uiso   1.00
H1720  H     0.47139   0.97215   0.76493   0.00000  Uiso   1.00
H1721  H     0.44858   0.92125   0.76985   0.00000  Uiso   1.00
H1722  H     0.41018   0.96340   0.79753   0.00000  Uiso   1.00
N1723  N     0.58010   0.95828   0.75442   0.00000  Uiso   1.00
H1724  H     0.55227   0.96962   0.78083   0.00000  Uiso   1.00
C1725  C     0.56609   0.94709   0.71502   0.00000  Uiso   1.00
H1726  H     0.55037   0.97348   0.70270   0.00000  Uiso   1.00
H1727  H     0.53770   0.92360   0.72417   0.00000  Uiso   1.00
H1728  H     0.59732   0.93458   0.68792   0.00000  Uiso   1.00
N1729  N     0.42391   0.70923   0.70959   0.00000  Uiso   1.00
H1730  H     0.44256   0.69964   0.67747   0.00000  Uiso   1.00
C1731  C     0.45425   0.71778   0.73793   0.00000  Uiso   1.00
H1732  H     0.48647   0.69776   0.72767   0.00000  Uiso   1.00
H1733  H     0.43464   0.71353   0.77403   0.00000  Uiso   1.00
H1734  H     0.46689   0.74973   0.73306   0.00000  Uiso   1.00
O1735  O     0.70625   0.77322   0.75000   0.00000  Uiso   1.00
O1736  O     0.96042   0.89345   0.75000   0.00000  Uiso   1.00
O1737  O     0.96039   0.77321   0.75000   0.00000  Uiso   1.00
O1738  O     0.70628   0.89346   0.74999   0.00000  Uiso   1.00
C1739  C     0.66776   0.75434   0.74603   0.00000  Uiso   1.00
C1740  C     0.66712   0.91266   0.74856   0.00000  Uiso   1.00
O1741  O     0.68519   0.83334   0.81491   0.00000  Uiso   1.00
O1742  O     0.98148   0.83332   0.68508   0.00000  Uiso   1.00
O1743  O     0.93933   0.83333   0.81492   0.00000  Uiso   1.00
O1744  O     0.72733   0.83333   0.68508   0.00000  Uiso   1.00
C1745  C     0.97226   0.83586   0.83600   0.00000  Uiso   1.00
C1746  C     0.69451   0.83197   0.66386   0.00000  Uiso   1.00
Cu1747 Cu    0.71355   0.83334   0.75000   0.00000  Uiso   1.00
Cu1748 Cu    0.95311   0.83333   0.75000   0.00000  Uiso   1.00
C1749  C     0.95677   0.84531   0.88483   0.00000  Uiso   1.00
C1750  C     0.71122   0.83375   0.61427   0.00000  Uiso   1.00
C1751  C     0.97287   0.87004   0.95275   0.00000  Uiso   1.00
C1752  C     0.69626   0.84457   0.54302   0.00000  Uiso   1.00
C1753  C     0.98971   0.85914   0.90730   0.00000  Uiso   1.00
C1754  C     0.67989   0.82982   0.58698   0.00000  Uiso   1.00
C1755  C     0.90750   0.84424   0.90879   0.00000  Uiso   1.00
C1756  C     0.76043   0.84188   0.59376   0.00000  Uiso   1.00
C1757  C     0.89108   0.85583   0.95452   0.00000  Uiso   1.00
C1758  C     0.77753   0.85190   0.54841   0.00000  Uiso   1.00
C1759  C     0.92441   0.86739   0.97717   0.00000  Uiso   1.00
C1760  C     0.74405   0.85700   0.52442   0.00000  Uiso   1.00
C1761  C     0.84181   0.85747   0.97814   0.00000  Uiso   1.00
C1762  C     0.82695   0.85773   0.52569   0.00000  Uiso   1.00
C1763  C     0.86083   0.86780   0.54813   0.00000  Uiso   1.00
C1764  C     0.80763   0.86662   0.95613   0.00000  Uiso   1.00
C1765  C     0.90826   0.87689   0.52364   0.00000  Uiso   1.00
C1766  C     0.76011   0.87396   0.98151   0.00000  Uiso   1.00
H1767  H     0.78535   0.83966   0.61332   0.00000  Uiso   1.00
H1768  H     0.88196   0.83367   0.89188   0.00000  Uiso   1.00
H1769  H     0.99751   0.88141   0.96899   0.00000  Uiso   1.00
H1770  H     0.67303   0.84361   0.52204   0.00000  Uiso   1.00
H1771  H     0.84991   0.87367   0.58392   0.00000  Uiso   1.00
H1772  H     0.81925   0.87635   0.92158   0.00000  Uiso   1.00
C1773  C     0.95934   0.68829   0.74175   0.00000  Uiso   1.00
C1774  C     0.71281   0.97901   0.73298   0.00000  Uiso   1.00
C1775  C     0.95831   0.97917   0.74622   0.00000  Uiso   1.00
C1776  C     0.71306   0.68829   0.72917   0.00000  Uiso   1.00
C1777  C     0.66825   0.95759   0.74369   0.00000  Uiso   1.00
C1778  C     0.66904   0.70970   0.73911   0.00000  Uiso   1.00
C1779  C     0.84609   0.82165   0.78684   0.00000  Uiso   1.00
C1780  C     0.82062   0.84467   0.71303   0.00000  Uiso   1.00
H1781  H     0.85449   0.81197   0.81659   0.00000  Uiso   1.00
H1782  H     0.81225   0.85438   0.68329   0.00000  Uiso   1.00
C1783  C     0.79691   0.82161   0.78681   0.00000  Uiso   1.00
C1784  C     0.86985   0.84417   0.71287   0.00000  Uiso   1.00
H1785  H     0.76941   0.81175   0.81645   0.00000  Uiso   1.00
H1786  H     0.89741   0.85341   0.68295   0.00000  Uiso   1.00
N1787  N     0.78403   0.83334   0.74999   0.00000  Uiso   1.00
N1788  N     0.88264   0.83332   0.75001   0.00000  Uiso   1.00
N1789  N     0.93853   0.89683   0.54584   0.00000  Uiso   1.00
H1790  H     0.93244   0.88785   0.57856   0.00000  Uiso   1.00
C1791  C     0.93784   0.94078   0.54270   0.00000  Uiso   1.00
H1792  H     0.96131   0.95455   0.56133   0.00000  Uiso   1.00
H1793  H     0.90051   0.95274   0.55779   0.00000  Uiso   1.00
H1794  H     0.95139   0.94998   0.50706   0.00000  Uiso   1.00
N1795  N     0.73622   0.90835   0.97054   0.00000  Uiso   1.00
H1796  H     0.75026   0.91728   0.93778   0.00000  Uiso   1.00
C1797  C     0.73086   0.94294   0.50114   0.00000  Uiso   1.00
H1798  H     0.71039   0.96756   0.99075   0.00000  Uiso   1.00
H1799  H     0.76698   0.95482   0.50055   0.00000  Uiso   1.00
H1800  H     0.71078   0.93426   0.53589   0.00000  Uiso   1.00
N1801  N     0.96684   0.81052   0.60292   0.00000  Uiso   1.00
H1802  H     0.96146   0.79468   0.63204   0.00000  Uiso   1.00
C1803  C     0.95048   0.78611   0.57109   0.00000  Uiso   1.00
H1804  H     0.97848   0.76319   0.55401   0.00000  Uiso   1.00
H1805  H     0.94148   0.80548   0.54601   0.00000  Uiso   1.00
H1806  H     0.91690   0.76972   0.58907   0.00000  Uiso   1.00
N1807  N     0.70628   0.86389   0.88438   0.00000  Uiso   1.00
H1808  H     0.72873   0.85570   0.90295   0.00000  Uiso   1.00
C1809  C     0.71801   0.90328   0.86394   0.00000  Uiso   1.00
H1810  H     0.75769   0.90528   0.84828   0.00000  Uiso   1.00
H1811  H     0.70617   0.92826   0.88936   0.00000  Uiso   1.00
H1812  H     0.69961   0.90745   0.83786   0.00000  Uiso   1.00
N1813  N     0.91797   0.70937   0.73724   0.00000  Uiso   1.00
H1814  H     0.88462   0.69827   0.75465   0.00000  Uiso   1.00
C1815  C     0.92182   0.72218   0.69203   0.00000  Uiso   1.00
H1816  H     0.92002   0.69568   0.67013   0.00000  Uiso   1.00
H1817  H     0.95662   0.73788   0.67684   0.00000  Uiso   1.00
H1818  H     0.89203   0.74374   0.69291   0.00000  Uiso   1.00
N1819  N     0.75747   0.95799   0.72672   0.00000  Uiso   1.00
H1820  H     0.78516   0.96549   0.69861   0.00000  Uiso   1.00
C1821  C     0.77237   0.95358   0.76683   0.00000  Uiso   1.00
H1822  H     0.80472   0.97215   0.76493   0.00000  Uiso   1.00
H1823  H     0.78191   0.92125   0.76985   0.00000  Uiso   1.00
H1824  H     0.74351   0.96340   0.79753   0.00000  Uiso   1.00
N1825  N     0.91343   0.95828   0.75442   0.00000  Uiso   1.00
H1826  H     0.88560   0.96962   0.78083   0.00000  Uiso   1.00
C1827  C     0.89942   0.94709   0.71502   0.00000  Uiso   1.00
H1828  H     0.88371   0.97348   0.70270   0.00000  Uiso   1.00
H1829  H     0.87103   0.92360   0.72417   0.00000  Uiso   1.00
H1830  H     0.93065   0.93458   0.68792   0.00000  Uiso   1.00
N1831  N     0.75724   0.70923   0.70959   0.00000  Uiso   1.00
H1832  H     0.77589   0.69964   0.67747   0.00000  Uiso   1.00
C1833  C     0.78758   0.71778   0.73793   0.00000  Uiso   1.00
H1834  H     0.81980   0.69776   0.72767   0.00000  Uiso   1.00
H1835  H     0.76797   0.71353   0.77403   0.00000  Uiso   1.00
H1836  H     0.80023   0.74973   0.73306   0.00000  Uiso   1.00
loop_
_geom_bond_atom_site_label_1
_geom_bond_atom_site_label_2
_geom_bond_distance
_geom_bond_site_symmetry_2
_ccdc_geom_bond_type
O1     C5      1.312   .     A
O1     Cu13    1.982   .     S
O2     Cu14    1.982   .     S
O2     C108    1.309   .     S
O3     Cu14    1.982   .     S
O3     C107    1.304   .     S
O4     Cu13    1.982   .     S
O4     C6      1.311   .     A
C5     C44     1.474   .     S
C5     O207    1.304   1_455 S
C6     C43     1.483   .     S
C6     O206    1.309   1_455 S
O7     Cu13    1.947   .     S
O7     C215    1.308   1_455 S
O8     Cu14    1.947   .     S
O8     C114    1.310   .     S
O9     Cu14    1.946   .     S
O9     C11     1.312   .     A
O10    C12     1.311   .     A
O10    Cu13    1.946   .     S
C11    C15     1.483   .     S
C11    O109    1.308   .     S
C12    C16     1.481   .     S
C12    O212    1.310   1_455 S
Cu13   N53     2.042   .     S
Cu13   Cu218   2.718   1_455 S
Cu14   N54     2.042   .     S
Cu14   Cu115   2.718   .     S
C15    C19     1.413   .     A
C15    C21     1.401   .     A
C16    C20     1.422   .     A
C16    C22     1.406   .     A
C17    C25     1.388   .     A
C17    C19     1.396   .     A
C17    H35     1.056   .     S
C18    C26     1.397   .     A
C18    C20     1.406   .     A
C18    H36     1.070   .     S
C19    N175    1.420   .     S
C20    N271    1.438   1_455 S
C21    H34     1.083   .     S
C21    C23     1.410   .     A
C22    C24     1.399   .     A
C22    H33     1.079   .     S
C23    C27     1.399   .     A
C23    C25     1.405   .     A
C24    C26     1.403   .     A
C24    C28     1.411   .     A
C25    C949    1.415   .     S
C26    C950    1.405   1_554 S
C27    C30     1.399   .     A
C27    C946    1.417   .     S
C28    C29     1.402   .     A
C28    C945    1.417   1_554 S
C29    C31     1.394   .     A
C29    H37     1.081   .     S
C30    H38     1.083   .     S
C30    C32     1.388   .     A
C31    N55     1.422   .     S
C31    C943    1.415   1_554 S
C32    N61     1.422   .     S
C32    C944    1.405   .     S
C39    N79     1.428   .     S
C39    C653    1.400   1_545 S
C39    C146    1.412   .     S
C40    C43     1.422   .     A
C40    N85     1.426   .     S
C40    C348    1.404   .     S
C41    N91     1.426   .     S
C41    C345    1.400   .     S
C41    C145    1.421   .     S
C42    C44     1.405   .     A
C42    N97     1.425   .     S
C42    C652    1.404   1_545 S
C43    C245    1.421   1_455 S
C44    C243    1.412   1_455 S
C45    H47     1.081   .     S
C45    C49     1.425   .     A
C45    N54     1.371   .     A
C46    H48     1.080   .     S
C46    C50     1.425   .     A
C46    N53     1.371   .     A
C49    H51     1.080   .     S
C49    N53     1.371   .     A
C50    N54     1.371   .     A
C50    H52     1.081   .     S
N55    H56     1.032   .     S
N55    C57     1.446   .     S
C57    H59     1.112   .     S
C57    H60     1.111   .     S
C57    H58     1.109   .     S
N61    H62     1.030   .     S
N61    C981    1.448   .     S
C63    H65     1.112   .     S
C63    H66     1.110   .     S
C63    N979    1.448   1_554 S
C63    H982    1.110   1_554 S
H64    C981    1.110   .     S
N67    H68     1.026   .     S
N67    C69     1.451   .     S
N67    C122    1.438   .     S
C69    H71     1.106   .     S
C69    H72     1.112   .     S
C69    H70     1.112   .     S
N73    H74     1.031   .     S
N73    C75     1.445   .     S
N73    C223    1.420   1_455 S
C75    H76     1.110   .     S
C75    H77     1.111   .     S
C75    H78     1.109   .     S
N79    C81     1.452   .     S
N79    H80     1.027   .     S
C81    H83     1.109   .     S
C81    H82     1.107   .     S
C81    H84     1.110   .     S
N85    H86     1.031   .     S
N85    C87     1.451   .     S
C87    H88     1.105   .     S
C87    H90     1.111   .     S
C87    H89     1.108   .     S
N91    H92     1.031   .     S
N91    C93     1.447   .     S
C93    H94     1.104   .     S
C93    H95     1.104   .     S
C93    H96     1.112   .     S
N97    H98     1.031   .     S
N97    C99     1.445   .     S
C99    H100    1.105   .     S
C99    H102    1.107   .     S
C99    H101    1.112   .     S
O103   C107    1.312   .     A
O103   Cu115   1.982   .     S
O104   Cu116   1.982   .     S
O104   C210    1.309   .     S
O105   Cu116   1.982   .     S
O105   C209    1.304   .     S
O106   Cu115   1.982   .     S
O106   C108    1.311   .     A
C107   C146    1.474   .     S
C108   C145    1.483   .     S
O109   Cu115   1.947   .     S
O110   Cu116   1.947   .     S
O110   C216    1.310   .     S
O111   Cu116   1.946   .     S
O111   C113    1.312   .     A
O112   C114    1.311   .     A
O112   Cu115   1.946   .     S
C113   C117    1.483   .     S
C113   O211    1.308   .     S
C114   C118    1.481   .     S
Cu115  N155    2.042   .     S
Cu116  N156    2.042   .     S
Cu116  Cu217   2.718   .     S
C117   C121    1.413   .     A
C117   C123    1.401   .     A
C118   C122    1.422   .     A
C118   C124    1.406   .     A
C119   C127    1.388   .     A
C119   C121    1.396   .     A
C119   H137    1.056   .     S
C120   C128    1.397   .     A
C120   C122    1.406   .     A
C120   H138    1.070   .     S
C121   N277    1.420   .     S
C123   H136    1.083   .     S
C123   C125    1.410   .     A
C124   C126    1.399   .     A
C124   H135    1.079   .     S
C125   C129    1.399   .     A
C125   C127    1.405   .     A
C126   C128    1.403   .     A
C126   C130    1.411   .     A
C127   C1051   1.415   .     S
C128   C1052   1.405   1_554 S
C129   C132    1.399   .     A
C129   C1048   1.417   .     S
C130   C131    1.402   .     A
C130   C1047   1.417   1_554 S
C131   C133    1.394   .     A
C131   H139    1.081   .     S
C132   H140    1.083   .     S
C132   C134    1.388   .     A
C133   N157    1.422   .     S
C133   C1045   1.415   1_554 S
C134   N163    1.422   .     S
C134   C1046   1.405   .     S
C141   N181    1.428   .     S
C141   C755    1.400   1_545 S
C141   C248    1.412   .     S
C142   C145    1.422   .     A
C142   N187    1.426   .     S
C142   C450    1.404   .     S
C143   N193    1.426   .     S
C143   C447    1.400   .     S
C143   C247    1.421   .     S
C144   C146    1.405   .     A
C144   N199    1.425   .     S
C144   C754    1.404   1_545 S
C147   H149    1.081   .     S
C147   C151    1.425   .     A
C147   N156    1.371   .     A
C148   H150    1.080   .     S
C148   C152    1.425   .     A
C148   N155    1.371   .     A
C151   H153    1.080   .     S
C151   N155    1.371   .     A
C152   N156    1.371   .     A
C152   H154    1.081   .     S
N157   H158    1.032   .     S
N157   C159    1.446   .     S
C159   H161    1.112   .     S
C159   H162    1.111   .     S
C159   H160    1.109   .     S
N163   H164    1.030   .     S
N163   C1083   1.448   .     S
C165   H167    1.112   .     S
C165   H168    1.110   .     S
C165   N1081   1.448   1_554 S
C165   H1084   1.110   1_554 S
H166   C1083   1.110   .     S
N169   H170    1.026   .     S
N169   C171    1.451   .     S
N169   C224    1.438   .     S
C171   H173    1.106   .     S
C171   H174    1.112   .     S
C171   H172    1.112   .     S
N175   H176    1.031   .     S
N175   C177    1.445   .     S
C177   H178    1.110   .     S
C177   H179    1.111   .     S
C177   H180    1.109   .     S
N181   C183    1.452   .     S
N181   H182    1.027   .     S
C183   H185    1.109   .     S
C183   H184    1.107   .     S
C183   H186    1.110   .     S
N187   H188    1.031   .     S
N187   C189    1.451   .     S
C189   H190    1.105   .     S
C189   H192    1.111   .     S
C189   H191    1.108   .     S
N193   H194    1.031   .     S
N193   C195    1.447   .     S
C195   H196    1.104   .     S
C195   H197    1.104   .     S
C195   H198    1.112   .     S
N199   H200    1.031   .     S
N199   C201    1.445   .     S
C201   H202    1.105   .     S
C201   H204    1.107   .     S
C201   H203    1.112   .     S
O205   C209    1.312   .     A
O205   Cu217   1.982   .     S
O206   Cu218   1.982   .     S
O206   C6      1.309   1_655 S
O207   Cu218   1.982   .     S
O207   C5      1.304   1_655 S
O208   Cu217   1.982   .     S
O208   C210    1.311   .     A
C209   C248    1.474   .     S
C210   C247    1.483   .     S
O211   Cu217   1.947   .     S
O212   Cu218   1.947   .     S
O212   C12     1.310   1_655 S
O213   Cu218   1.946   .     S
O213   C215    1.312   .     A
O214   C216    1.311   .     A
O214   Cu217   1.946   .     S
C215   C219    1.483   .     S
C215   O7      1.308   1_655 S
C216   C220    1.481   .     S
Cu217  N257    2.042   .     S
Cu218  N258    2.042   .     S
Cu218  Cu13    2.718   1_655 S
C219   C223    1.413   .     A
C219   C225    1.401   .     A
C220   C224    1.422   .     A
C220   C226    1.406   .     A
C221   C229    1.388   .     A
C221   C223    1.396   .     A
C221   H239    1.056   .     S
C222   C230    1.397   .     A
C222   C224    1.406   .     A
C222   H240    1.070   .     S
C223   N73     1.420   1_655 S
C225   H238    1.083   .     S
C225   C227    1.410   .     A
C226   C228    1.399   .     A
C226   H237    1.079   .     S
C227   C231    1.399   .     A
C227   C229    1.405   .     A
C228   C230    1.403   .     A
C228   C232    1.411   .     A
C229   C1153   1.415   .     S
C230   C1154   1.405   1_554 S
C231   C234    1.399   .     A
C231   C1150   1.417   .     S
C232   C233    1.402   .     A
C232   C1149   1.417   1_554 S
C233   C235    1.394   .     A
C233   H241    1.081   .     S
C234   H242    1.083   .     S
C234   C236    1.388   .     A
C235   N259    1.422   .     S
C235   C1147   1.415   1_554 S
C236   N265    1.422   .     S
C236   C1148   1.405   .     S
C243   N283    1.428   .     S
C243   C857    1.400   1_545 S
C243   C44     1.412   1_655 S
C244   C247    1.422   .     A
C244   N289    1.426   .     S
C244   C552    1.404   .     S
C245   N295    1.426   .     S
C245   C549    1.400   .     S
C245   C43     1.421   1_655 S
C246   C248    1.405   .     A
C246   N301    1.425   .     S
C246   C856    1.404   1_545 S
C249   H251    1.081   .     S
C249   C253    1.425   .     A
C249   N258    1.371   .     A
C250   H252    1.080   .     S
C250   C254    1.425   .     A
C250   N257    1.371   .     A
C253   H255    1.080   .     S
C253   N257    1.371   .     A
C254   N258    1.371   .     A
C254   H256    1.081   .     S
N259   H260    1.032   .     S
N259   C261    1.446   .     S
C261   H263    1.112   .     S
C261   H264    1.111   .     S
C261   H262    1.109   .     S
N265   H266    1.030   .     S
N265   C1185   1.448   .     S
C267   H269    1.112   .     S
C267   H270    1.110   .     S
C267   N1183   1.448   1_554 S
C267   H1186   1.110   1_554 S
H268   C1185   1.110   .     S
N271   H272    1.026   .     S
N271   C273    1.451   .     S
N271   C20     1.438   1_655 S
C273   H275    1.106   .     S
C273   H276    1.112   .     S
C273   H274    1.112   .     S
N277   H278    1.031   .     S
N277   C279    1.445   .     S
C279   H280    1.110   .     S
C279   H281    1.111   .     S
C279   H282    1.109   .     S
N283   C285    1.452   .     S
N283   H284    1.027   .     S
C285   H287    1.109   .     S
C285   H286    1.107   .     S
C285   H288    1.110   .     S
N289   H290    1.031   .     S
N289   C291    1.451   .     S
C291   H292    1.105   .     S
C291   H294    1.111   .     S
C291   H293    1.108   .     S
N295   H296    1.031   .     S
N295   C297    1.447   .     S
C297   H298    1.104   .     S
C297   H299    1.104   .     S
C297   H300    1.112   .     S
N301   H302    1.031   .     S
N301   C303    1.445   .     S
C303   H304    1.105   .     S
C303   H306    1.107   .     S
C303   H305    1.112   .     S
O307   C311    1.312   .     A
O307   Cu319   1.982   .     S
O308   Cu320   1.982   .     S
O308   C414    1.309   .     S
O309   Cu320   1.982   .     S
O309   C413    1.304   .     S
O310   Cu319   1.982   .     S
O310   C312    1.311   .     A
C311   C350    1.474   .     S
C311   O513    1.304   1_455 S
C312   C349    1.483   .     S
C312   O512    1.309   1_455 S
O313   Cu319   1.947   .     S
O313   C521    1.308   1_455 S
O314   Cu320   1.947   .     S
O314   C420    1.310   .     S
O315   Cu320   1.946   .     S
O315   C317    1.312   .     A
O316   C318    1.311   .     A
O316   Cu319   1.946   .     S
C317   C321    1.483   .     S
C317   O415    1.308   .     S
C318   C322    1.481   .     S
C318   O518    1.310   1_455 S
Cu319  N359    2.042   .     S
Cu319  Cu524   2.718   1_455 S
Cu320  N360    2.042   .     S
Cu320  Cu421   2.718   .     S
C321   C325    1.413   .     A
C321   C327    1.401   .     A
C322   C326    1.422   .     A
C322   C328    1.406   .     A
C323   C331    1.388   .     A
C323   C325    1.396   .     A
C323   H341    1.056   .     S
C324   C332    1.397   .     A
C324   C326    1.406   .     A
C324   H342    1.070   .     S
C325   N481    1.420   .     S
C326   N577    1.438   1_455 S
C327   H340    1.083   .     S
C327   C329    1.410   .     A
C328   C330    1.399   .     A
C328   H339    1.079   .     S
C329   C333    1.399   .     A
C329   C331    1.405   .     A
C330   C332    1.403   .     A
C330   C334    1.411   .     A
C331   C1255   1.415   .     S
C332   C1256   1.405   1_554 S
C333   C336    1.399   .     A
C333   C1252   1.417   .     S
C334   C335    1.402   .     A
C334   C1251   1.417   1_554 S
C335   C337    1.394   .     A
C335   H343    1.081   .     S
C336   H344    1.083   .     S
C336   C338    1.388   .     A
C337   N361    1.422   .     S
C337   C1249   1.415   1_554 S
C338   N367    1.422   .     S
C338   C1250   1.405   .     S
C345   N385    1.428   .     S
C345   C452    1.412   .     S
C346   C349    1.422   .     A
C346   N391    1.426   .     S
C346   C654    1.404   .     S
C347   N397    1.426   .     S
C347   C651    1.400   .     S
C347   C451    1.421   .     S
C348   C350    1.405   .     A
C348   N403    1.425   .     S
C349   C551    1.421   1_455 S
C350   C549    1.412   1_455 S
C351   H353    1.081   .     S
C351   C355    1.425   .     A
C351   N360    1.371   .     A
C352   H354    1.080   .     S
C352   C356    1.425   .     A
C352   N359    1.371   .     A
C355   H357    1.080   .     S
C355   N359    1.371   .     A
C356   N360    1.371   .     A
C356   H358    1.081   .     S
N361   H362    1.032   .     S
N361   C363    1.446   .     S
C363   H365    1.112   .     S
C363   H366    1.111   .     S
C363   H364    1.109   .     S
N367   H368    1.030   .     S
N367   C1287   1.448   .     S
C369   H371    1.112   .     S
C369   H372    1.110   .     S
C369   N1285   1.448   1_554 S
C369   H1288   1.110   1_554 S
H370   C1287   1.110   .     S
N373   H374    1.026   .     S
N373   C375    1.451   .     S
N373   C428    1.438   .     S
C375   H377    1.106   .     S
C375   H378    1.112   .     S
C375   H376    1.112   .     S
N379   H380    1.031   .     S
N379   C381    1.445   .     S
N379   C529    1.420   1_455 S
C381   H382    1.110   .     S
C381   H383    1.111   .     S
C381   H384    1.109   .     S
N385   C387    1.452   .     S
N385   H386    1.027   .     S
C387   H389    1.109   .     S
C387   H388    1.107   .     S
C387   H390    1.110   .     S
N391   H392    1.031   .     S
N391   C393    1.451   .     S
C393   H394    1.105   .     S
C393   H396    1.111   .     S
C393   H395    1.108   .     S
N397   H398    1.031   .     S
N397   C399    1.447   .     S
C399   H400    1.104   .     S
C399   H401    1.104   .     S
C399   H402    1.112   .     S
N403   H404    1.031   .     S
N403   C405    1.445   .     S
C405   H406    1.105   .     S
C405   H408    1.107   .     S
C405   H407    1.112   .     S
O409   C413    1.312   .     A
O409   Cu421   1.982   .     S
O410   Cu422   1.982   .     S
O410   C516    1.309   .     S
O411   Cu422   1.982   .     S
O411   C515    1.304   .     S
O412   Cu421   1.982   .     S
O412   C414    1.311   .     A
C413   C452    1.474   .     S
C414   C451    1.483   .     S
O415   Cu421   1.947   .     S
O416   Cu422   1.947   .     S
O416   C522    1.310   .     S
O417   Cu422   1.946   .     S
O417   C419    1.312   .     A
O418   C420    1.311   .     A
O418   Cu421   1.946   .     S
C419   C423    1.483   .     S
C419   O517    1.308   .     S
C420   C424    1.481   .     S
Cu421  N461    2.042   .     S
Cu422  N462    2.042   .     S
Cu422  Cu523   2.718   .     S
C423   C427    1.413   .     A
C423   C429    1.401   .     A
C424   C428    1.422   .     A
C424   C430    1.406   .     A
C425   C433    1.388   .     A
C425   C427    1.396   .     A
C425   H443    1.056   .     S
C426   C434    1.397   .     A
C426   C428    1.406   .     A
C426   H444    1.070   .     S
C427   N583    1.420   .     S
C429   H442    1.083   .     S
C429   C431    1.410   .     A
C430   C432    1.399   .     A
C430   H441    1.079   .     S
C431   C435    1.399   .     A
C431   C433    1.405   .     A
C432   C434    1.403   .     A
C432   C436    1.411   .     A
C433   C1357   1.415   .     S
C434   C1358   1.405   1_554 S
C435   C438    1.399   .     A
C435   C1354   1.417   .     S
C436   C437    1.402   .     A
C436   C1353   1.417   1_554 S
C437   C439    1.394   .     A
C437   H445    1.081   .     S
C438   H446    1.083   .     S
C438   C440    1.388   .     A
C439   N463    1.422   .     S
C439   C1351   1.415   1_554 S
C440   N469    1.422   .     S
C440   C1352   1.405   .     S
C447   N487    1.428   .     S
C447   C554    1.412   .     S
C448   C451    1.422   .     A
C448   N493    1.426   .     S
C448   C756    1.404   .     S
C449   N499    1.426   .     S
C449   C753    1.400   .     S
C449   C553    1.421   .     S
C450   C452    1.405   .     A
C450   N505    1.425   .     S
C453   H455    1.081   .     S
C453   C457    1.425   .     A
C453   N462    1.371   .     A
C454   H456    1.080   .     S
C454   C458    1.425   .     A
C454   N461    1.371   .     A
C457   H459    1.080   .     S
C457   N461    1.371   .     A
C458   N462    1.371   .     A
C458   H460    1.081   .     S
N463   H464    1.032   .     S
N463   C465    1.446   .     S
C465   H467    1.112   .     S
C465   H468    1.111   .     S
C465   H466    1.109   .     S
N469   H470    1.030   .     S
N469   C1389   1.448   .     S
C471   H473    1.112   .     S
C471   H474    1.110   .     S
C471   N1387   1.448   1_554 S
C471   H1390   1.110   1_554 S
H472   C1389   1.110   .     S
N475   H476    1.026   .     S
N475   C477    1.451   .     S
N475   C530    1.438   .     S
C477   H479    1.106   .     S
C477   H480    1.112   .     S
C477   H478    1.112   .     S
N481   H482    1.031   .     S
N481   C483    1.445   .     S
C483   H484    1.110   .     S
C483   H485    1.111   .     S
C483   H486    1.109   .     S
N487   C489    1.452   .     S
N487   H488    1.027   .     S
C489   H491    1.109   .     S
C489   H490    1.107   .     S
C489   H492    1.110   .     S
N493   H494    1.031   .     S
N493   C495    1.451   .     S
C495   H496    1.105   .     S
C495   H498    1.111   .     S
C495   H497    1.108   .     S
N499   H500    1.031   .     S
N499   C501    1.447   .     S
C501   H502    1.104   .     S
C501   H503    1.104   .     S
C501   H504    1.112   .     S
N505   H506    1.031   .     S
N505   C507    1.445   .     S
C507   H508    1.105   .     S
C507   H510    1.107   .     S
C507   H509    1.112   .     S
O511   C515    1.312   .     A
O511   Cu523   1.982   .     S
O512   Cu524   1.982   .     S
O512   C312    1.309   1_655 S
O513   Cu524   1.982   .     S
O513   C311    1.304   1_655 S
O514   Cu523   1.982   .     S
O514   C516    1.311   .     A
C515   C554    1.474   .     S
C516   C553    1.483   .     S
O517   Cu523   1.947   .     S
O518   Cu524   1.947   .     S
O518   C318    1.310   1_655 S
O519   Cu524   1.946   .     S
O519   C521    1.312   .     A
O520   C522    1.311   .     A
O520   Cu523   1.946   .     S
C521   C525    1.483   .     S
C521   O313    1.308   1_655 S
C522   C526    1.481   .     S
Cu523  N563    2.042   .     S
Cu524  N564    2.042   .     S
Cu524  Cu319   2.718   1_655 S
C525   C529    1.413   .     A
C525   C531    1.401   .     A
C526   C530    1.422   .     A
C526   C532    1.406   .     A
C527   C535    1.388   .     A
C527   C529    1.396   .     A
C527   H545    1.056   .     S
C528   C536    1.397   .     A
C528   C530    1.406   .     A
C528   H546    1.070   .     S
C529   N379    1.420   1_655 S
C531   H544    1.083   .     S
C531   C533    1.410   .     A
C532   C534    1.399   .     A
C532   H543    1.079   .     S
C533   C537    1.399   .     A
C533   C535    1.405   .     A
C534   C536    1.403   .     A
C534   C538    1.411   .     A
C535   C1459   1.415   .     S
C536   C1460   1.405   1_554 S
C537   C540    1.399   .     A
C537   C1456   1.417   .     S
C538   C539    1.402   .     A
C538   C1455   1.417   1_554 S
C539   C541    1.394   .     A
C539   H547    1.081   .     S
C540   H548    1.083   .     S
C540   C542    1.388   .     A
C541   N565    1.422   .     S
C541   C1453   1.415   1_554 S
C542   N571    1.422   .     S
C542   C1454   1.405   .     S
C549   N589    1.428   .     S
C549   C350    1.412   1_655 S
C550   C553    1.422   .     A
C550   N595    1.426   .     S
C550   C858    1.404   .     S
C551   N601    1.426   .     S
C551   C855    1.400   .     S
C551   C349    1.421   1_655 S
C552   C554    1.405   .     A
C552   N607    1.425   .     S
C555   H557    1.081   .     S
C555   C559    1.425   .     A
C555   N564    1.371   .     A
C556   H558    1.080   .     S
C556   C560    1.425   .     A
C556   N563    1.371   .     A
C559   H561    1.080   .     S
C559   N563    1.371   .     A
C560   N564    1.371   .     A
C560   H562    1.081   .     S
N565   H566    1.032   .     S
N565   C567    1.446   .     S
C567   H569    1.112   .     S
C567   H570    1.111   .     S
C567   H568    1.109   .     S
N571   H572    1.030   .     S
N571   C1491   1.448   .     S
C573   H575    1.112   .     S
C573   H576    1.110   .     S
C573   N1489   1.448   1_554 S
C573   H1492   1.110   1_554 S
H574   C1491   1.110   .     S
N577   H578    1.026   .     S
N577   C579    1.451   .     S
N577   C326    1.438   1_655 S
C579   H581    1.106   .     S
C579   H582    1.112   .     S
C579   H580    1.112   .     S
N583   H584    1.031   .     S
N583   C585    1.445   .     S
C585   H586    1.110   .     S
C585   H587    1.111   .     S
C585   H588    1.109   .     S
N589   C591    1.452   .     S
N589   H590    1.027   .     S
C591   H593    1.109   .     S
C591   H592    1.107   .     S
C591   H594    1.110   .     S
N595   H596    1.031   .     S
N595   C597    1.451   .     S
C597   H598    1.105   .     S
C597   H600    1.111   .     S
C597   H599    1.108   .     S
N601   H602    1.031   .     S
N601   C603    1.447   .     S
C603   H604    1.104   .     S
C603   H605    1.104   .     S
C603   H606    1.112   .     S
N607   H608    1.031   .     S
N607   C609    1.445   .     S
C609   H610    1.105   .     S
C609   H612    1.107   .     S
C609   H611    1.112   .     S
O613   C617    1.312   .     A
O613   Cu625   1.982   .     S
O614   Cu626   1.982   .     S
O614   C720    1.309   .     S
O615   Cu626   1.982   .     S
O615   C719    1.304   .     S
O616   Cu625   1.982   .     S
O616   C618    1.311   .     A
C617   C656    1.474   .     S
C617   O819    1.304   1_455 S
C618   C655    1.483   .     S
C618   O818    1.309   1_455 S
O619   Cu625   1.947   .     S
O619   C827    1.308   1_455 S
O620   Cu626   1.947   .     S
O620   C726    1.310   .     S
O621   Cu626   1.946   .     S
O621   C623    1.312   .     A
O622   C624    1.311   .     A
O622   Cu625   1.946   .     S
C623   C627    1.483   .     S
C623   O721    1.308   .     S
C624   C628    1.481   .     S
C624   O824    1.310   1_455 S
Cu625  N665    2.042   .     S
Cu625  Cu830   2.718   1_455 S
Cu626  N666    2.042   .     S
Cu626  Cu727   2.718   .     S
C627   C631    1.413   .     A
C627   C633    1.401   .     A
C628   C632    1.422   .     A
C628   C634    1.406   .     A
C629   C637    1.388   .     A
C629   C631    1.396   .     A
C629   H647    1.056   .     S
C630   C638    1.397   .     A
C630   C632    1.406   .     A
C630   H648    1.070   .     S
C631   N787    1.420   .     S
C632   N883    1.438   1_455 S
C633   H646    1.083   .     S
C633   C635    1.410   .     A
C634   C636    1.399   .     A
C634   H645    1.079   .     S
C635   C639    1.399   .     A
C635   C637    1.405   .     A
C636   C638    1.403   .     A
C636   C640    1.411   .     A
C637   C1561   1.415   .     S
C638   C1562   1.405   1_554 S
C639   C642    1.399   .     A
C639   C1558   1.417   .     S
C640   C641    1.402   .     A
C640   C1557   1.417   1_554 S
C641   C643    1.394   .     A
C641   H649    1.081   .     S
C642   H650    1.083   .     S
C642   C644    1.388   .     A
C643   N667    1.422   .     S
C643   C1555   1.415   1_554 S
C644   N673    1.422   .     S
C644   C1556   1.405   .     S
C651   N691    1.428   .     S
C651   C758    1.412   .     S
C652   C655    1.422   .     A
C652   N697    1.426   .     S
C652   C42     1.404   1_565 S
C653   N703    1.426   .     S
C653   C39     1.400   1_565 S
C653   C757    1.421   .     S
C654   C656    1.405   .     A
C654   N709    1.425   .     S
C655   C857    1.421   1_455 S
C656   C855    1.412   1_455 S
C657   H659    1.081   .     S
C657   C661    1.425   .     A
C657   N666    1.371   .     A
C658   H660    1.080   .     S
C658   C662    1.425   .     A
C658   N665    1.371   .     A
C661   H663    1.080   .     S
C661   N665    1.371   .     A
C662   N666    1.371   .     A
C662   H664    1.081   .     S
N667   H668    1.032   .     S
N667   C669    1.446   .     S
C669   H671    1.112   .     S
C669   H672    1.111   .     S
C669   H670    1.109   .     S
N673   H674    1.030   .     S
N673   C1593   1.448   .     S
C675   H677    1.112   .     S
C675   H678    1.110   .     S
C675   N1591   1.448   1_554 S
C675   H1594   1.110   1_554 S
H676   C1593   1.110   .     S
N679   H680    1.026   .     S
N679   C681    1.451   .     S
N679   C734    1.438   .     S
C681   H683    1.106   .     S
C681   H684    1.112   .     S
C681   H682    1.112   .     S
N685   H686    1.031   .     S
N685   C687    1.445   .     S
N685   C835    1.420   1_455 S
C687   H688    1.110   .     S
C687   H689    1.111   .     S
C687   H690    1.109   .     S
N691   C693    1.452   .     S
N691   H692    1.027   .     S
C693   H695    1.109   .     S
C693   H694    1.107   .     S
C693   H696    1.110   .     S
N697   H698    1.031   .     S
N697   C699    1.451   .     S
C699   H700    1.105   .     S
C699   H702    1.111   .     S
C699   H701    1.108   .     S
N703   H704    1.031   .     S
N703   C705    1.447   .     S
C705   H706    1.104   .     S
C705   H707    1.104   .     S
C705   H708    1.112   .     S
N709   H710    1.031   .     S
N709   C711    1.445   .     S
C711   H712    1.105   .     S
C711   H714    1.107   .     S
C711   H713    1.112   .     S
O715   C719    1.312   .     A
O715   Cu727   1.982   .     S
O716   Cu728   1.982   .     S
O716   C822    1.309   .     S
O717   Cu728   1.982   .     S
O717   C821    1.304   .     S
O718   Cu727   1.982   .     S
O718   C720    1.311   .     A
C719   C758    1.474   .     S
C720   C757    1.483   .     S
O721   Cu727   1.947   .     S
O722   Cu728   1.947   .     S
O722   C828    1.310   .     S
O723   Cu728   1.946   .     S
O723   C725    1.312   .     A
O724   C726    1.311   .     A
O724   Cu727   1.946   .     S
C725   C729    1.483   .     S
C725   O823    1.308   .     S
C726   C730    1.481   .     S
Cu727  N767    2.042   .     S
Cu728  N768    2.042   .     S
Cu728  Cu829   2.718   .     S
C729   C733    1.413   .     A
C729   C735    1.401   .     A
C730   C734    1.422   .     A
C730   C736    1.406   .     A
C731   C739    1.388   .     A
C731   C733    1.396   .     A
C731   H749    1.056   .     S
C732   C740    1.397   .     A
C732   C734    1.406   .     A
C732   H750    1.070   .     S
C733   N889    1.420   .     S
C735   H748    1.083   .     S
C735   C737    1.410   .     A
C736   C738    1.399   .     A
C736   H747    1.079   .     S
C737   C741    1.399   .     A
C737   C739    1.405   .     A
C738   C740    1.403   .     A
C738   C742    1.411   .     A
C739   C1663   1.415   .     S
C740   C1664   1.405   1_554 S
C741   C744    1.399   .     A
C741   C1660   1.417   .     S
C742   C743    1.402   .     A
C742   C1659   1.417   1_554 S
C743   C745    1.394   .     A
C743   H751    1.081   .     S
C744   H752    1.083   .     S
C744   C746    1.388   .     A
C745   N769    1.422   .     S
C745   C1657   1.415   1_554 S
C746   N775    1.422   .     S
C746   C1658   1.405   .     S
C753   N793    1.428   .     S
C753   C860    1.412   .     S
C754   C757    1.422   .     A
C754   N799    1.426   .     S
C754   C144    1.404   1_565 S
C755   N805    1.426   .     S
C755   C141    1.400   1_565 S
C755   C859    1.421   .     S
C756   C758    1.405   .     A
C756   N811    1.425   .     S
C759   H761    1.081   .     S
C759   C763    1.425   .     A
C759   N768    1.371   .     A
C760   H762    1.080   .     S
C760   C764    1.425   .     A
C760   N767    1.371   .     A
C763   H765    1.080   .     S
C763   N767    1.371   .     A
C764   N768    1.371   .     A
C764   H766    1.081   .     S
N769   H770    1.032   .     S
N769   C771    1.446   .     S
C771   H773    1.112   .     S
C771   H774    1.111   .     S
C771   H772    1.109   .     S
N775   H776    1.030   .     S
N775   C1695   1.448   .     S
C777   H779    1.112   .     S
C777   H780    1.110   .     S
C777   N1693   1.448   1_554 S
C777   H1696   1.110   1_554 S
H778   C1695   1.110   .     S
N781   H782    1.026   .     S
N781   C783    1.451   .     S
N781   C836    1.438   .     S
C783   H785    1.106   .     S
C783   H786    1.112   .     S
C783   H784    1.112   .     S
N787   H788    1.031   .     S
N787   C789    1.445   .     S
C789   H790    1.110   .     S
C789   H791    1.111   .     S
C789   H792    1.109   .     S
N793   C795    1.452   .     S
N793   H794    1.027   .     S
C795   H797    1.109   .     S
C795   H796    1.107   .     S
C795   H798    1.110   .     S
N799   H800    1.031   .     S
N799   C801    1.451   .     S
C801   H802    1.105   .     S
C801   H804    1.111   .     S
C801   H803    1.108   .     S
N805   H806    1.031   .     S
N805   C807    1.447   .     S
C807   H808    1.104   .     S
C807   H809    1.104   .     S
C807   H810    1.112   .     S
N811   H812    1.031   .     S
N811   C813    1.445   .     S
C813   H814    1.105   .     S
C813   H816    1.107   .     S
C813   H815    1.112   .     S
O817   C821    1.312   .     A
O817   Cu829   1.982   .     S
O818   Cu830   1.982   .     S
O818   C618    1.309   1_655 S
O819   Cu830   1.982   .     S
O819   C617    1.304   1_655 S
O820   Cu829   1.982   .     S
O820   C822    1.311   .     A
C821   C860    1.474   .     S
C822   C859    1.483   .     S
O823   Cu829   1.947   .     S
O824   Cu830   1.947   .     S
O824   C624    1.310   1_655 S
O825   Cu830   1.946   .     S
O825   C827    1.312   .     A
O826   C828    1.311   .     A
O826   Cu829   1.946   .     S
C827   C831    1.483   .     S
C827   O619    1.308   1_655 S
C828   C832    1.481   .     S
Cu829  N869    2.042   .     S
Cu830  N870    2.042   .     S
Cu830  Cu625   2.718   1_655 S
C831   C835    1.413   .     A
C831   C837    1.401   .     A
C832   C836    1.422   .     A
C832   C838    1.406   .     A
C833   C841    1.388   .     A
C833   C835    1.396   .     A
C833   H851    1.056   .     S
C834   C842    1.397   .     A
C834   C836    1.406   .     A
C834   H852    1.070   .     S
C835   N685    1.420   1_655 S
C837   H850    1.083   .     S
C837   C839    1.410   .     A
C838   C840    1.399   .     A
C838   H849    1.079   .     S
C839   C843    1.399   .     A
C839   C841    1.405   .     A
C840   C842    1.403   .     A
C840   C844    1.411   .     A
C841   C1765   1.415   .     S
C842   C1766   1.405   1_554 S
C843   C846    1.399   .     A
C843   C1762   1.417   .     S
C844   C845    1.402   .     A
C844   C1761   1.417   1_554 S
C845   C847    1.394   .     A
C845   H853    1.081   .     S
C846   H854    1.083   .     S
C846   C848    1.388   .     A
C847   N871    1.422   .     S
C847   C1759   1.415   1_554 S
C848   N877    1.422   .     S
C848   C1760   1.405   .     S
C855   N895    1.428   .     S
C855   C656    1.412   1_655 S
C856   C859    1.422   .     A
C856   N901    1.426   .     S
C856   C246    1.404   1_565 S
C857   N907    1.426   .     S
C857   C243    1.400   1_565 S
C857   C655    1.421   1_655 S
C858   C860    1.405   .     A
C858   N913    1.425   .     S
C861   H863    1.081   .     S
C861   C865    1.425   .     A
C861   N870    1.371   .     A
C862   H864    1.080   .     S
C862   C866    1.425   .     A
C862   N869    1.371   .     A
C865   H867    1.080   .     S
C865   N869    1.371   .     A
C866   N870    1.371   .     A
C866   H868    1.081   .     S
N871   H872    1.032   .     S
N871   C873    1.446   .     S
C873   H875    1.112   .     S
C873   H876    1.111   .     S
C873   H874    1.109   .     S
N877   H878    1.030   .     S
N877   C1797   1.448   .     S
C879   H881    1.112   .     S
C879   H882    1.110   .     S
C879   N1795   1.448   1_554 S
C879   H1798   1.110   1_554 S
H880   C1797   1.110   .     S
N883   H884    1.026   .     S
N883   C885    1.451   .     S
N883   C632    1.438   1_655 S
C885   H887    1.106   .     S
C885   H888    1.112   .     S
C885   H886    1.112   .     S
N889   H890    1.031   .     S
N889   C891    1.445   .     S
C891   H892    1.110   .     S
C891   H893    1.111   .     S
C891   H894    1.109   .     S
N895   C897    1.452   .     S
N895   H896    1.027   .     S
C897   H899    1.109   .     S
C897   H898    1.107   .     S
C897   H900    1.110   .     S
N901   H902    1.031   .     S
N901   C903    1.451   .     S
C903   H904    1.105   .     S
C903   H906    1.111   .     S
C903   H905    1.108   .     S
N907   H908    1.031   .     S
N907   C909    1.447   .     S
C909   H910    1.104   .     S
C909   H911    1.104   .     S
C909   H912    1.112   .     S
N913   H914    1.031   .     S
N913   C915    1.445   .     S
C915   H916    1.105   .     S
C915   H918    1.107   .     S
C915   H917    1.112   .     S
O919   C923    1.312   .     A
O919   Cu931   1.982   .     S
O920   Cu932   1.982   .     S
O920   C1026   1.309   .     S
O921   Cu932   1.982   .     S
O921   C1025   1.304   .     S
O922   Cu931   1.982   .     S
O922   C924    1.311   .     A
C923   C962    1.474   .     S
C923   O1125   1.304   1_455 S
C924   C961    1.483   .     S
C924   O1124   1.309   1_455 S
O925   Cu931   1.947   .     S
O925   C1133   1.308   1_455 S
O926   Cu932   1.947   .     S
O926   C1032   1.310   .     S
O927   Cu932   1.946   .     S
O927   C929    1.312   .     A
O928   C930    1.311   .     A
O928   Cu931   1.946   .     S
C929   C933    1.483   .     S
C929   O1027   1.308   .     S
C930   C934    1.481   .     S
C930   O1130   1.310   1_455 S
Cu931  N971    2.042   .     S
Cu931  Cu1136  2.718   1_455 S
Cu932  N972    2.042   .     S
Cu932  Cu1033  2.718   .     S
C933   C937    1.413   .     A
C933   C939    1.401   .     A
C934   C938    1.422   .     A
C934   C940    1.406   .     A
C935   C943    1.388   .     A
C935   C937    1.396   .     A
C935   H953    1.056   .     S
C936   C944    1.397   .     A
C936   C938    1.406   .     A
C936   H954    1.070   .     S
C937   N1093   1.420   .     S
C938   N1189   1.438   1_455 S
C939   H952    1.083   .     S
C939   C941    1.410   .     A
C940   C942    1.399   .     A
C940   H951    1.079   .     S
C941   C945    1.399   .     A
C941   C943    1.405   .     A
C942   C944    1.403   .     A
C942   C946    1.411   .     A
C943   C31     1.415   1_556 S
C945   C948    1.399   .     A
C945   C28     1.417   1_556 S
C946   C947    1.402   .     A
C947   C949    1.394   .     A
C947   H955    1.081   .     S
C948   H956    1.083   .     S
C948   C950    1.388   .     A
C949   N973    1.422   .     S
C950   N979    1.422   .     S
C950   C26     1.405   1_556 S
C957   N997    1.428   .     S
C957   C1571   1.400   1_545 S
C957   C1064   1.412   .     S
C958   C961    1.422   .     A
C958   N1003   1.426   .     S
C958   C1266   1.404   .     S
C959   N1009   1.426   .     S
C959   C1263   1.400   .     S
C959   C1063   1.421   .     S
C960   C962    1.405   .     A
C960   N1015   1.425   .     S
C960   C1570   1.404   1_545 S
C961   C1163   1.421   1_455 S
C962   C1161   1.412   1_455 S
C963   H965    1.081   .     S
C963   C967    1.425   .     A
C963   N972    1.371   .     A
C964   H966    1.080   .     S
C964   C968    1.425   .     A
C964   N971    1.371   .     A
C967   H969    1.080   .     S
C967   N971    1.371   .     A
C968   N972    1.371   .     A
C968   H970    1.081   .     S
N973   H974    1.032   .     S
N973   C975    1.446   .     S
C975   H977    1.112   .     S
C975   H978    1.111   .     S
C975   H976    1.109   .     S
N979   H980    1.030   .     S
N979   C63     1.448   1_556 S
C981   H983    1.112   .     S
C981   H984    1.110   .     S
H982   C63     1.110   1_556 S
N985   H986    1.026   .     S
N985   C987    1.451   .     S
N985   C1040   1.438   .     S
C987   H989    1.106   .     S
C987   H990    1.112   .     S
C987   H988    1.112   .     S
N991   H992    1.031   .     S
N991   C993    1.445   .     S
N991   C1141   1.420   1_455 S
C993   H994    1.110   .     S
C993   H995    1.111   .     S
C993   H996    1.109   .     S
N997   C999    1.452   .     S
N997   H998    1.027   .     S
C999   H1001   1.109   .     S
C999   H1000   1.107   .     S
C999   H1002   1.110   .     S
N1003  H1004   1.031   .     S
N1003  C1005   1.451   .     S
C1005  H1006   1.105   .     S
C1005  H1008   1.111   .     S
C1005  H1007   1.108   .     S
N1009  H1010   1.031   .     S
N1009  C1011   1.447   .     S
C1011  H1012   1.104   .     S
C1011  H1013   1.104   .     S
C1011  H1014   1.112   .     S
N1015  H1016   1.031   .     S
N1015  C1017   1.445   .     S
C1017  H1018   1.105   .     S
C1017  H1020   1.107   .     S
C1017  H1019   1.112   .     S
O1021  C1025   1.312   .     A
O1021  Cu1033  1.982   .     S
O1022  Cu1034  1.982   .     S
O1022  C1128   1.309   .     S
O1023  Cu1034  1.982   .     S
O1023  C1127   1.304   .     S
O1024  Cu1033  1.982   .     S
O1024  C1026   1.311   .     A
C1025  C1064   1.474   .     S
C1026  C1063   1.483   .     S
O1027  Cu1033  1.947   .     S
O1028  Cu1034  1.947   .     S
O1028  C1134   1.310   .     S
O1029  Cu1034  1.946   .     S
O1029  C1031   1.312   .     A
O1030  C1032   1.311   .     A
O1030  Cu1033  1.946   .     S
C1031  C1035   1.483   .     S
C1031  O1129   1.308   .     S
C1032  C1036   1.481   .     S
Cu1033 N1073   2.042   .     S
Cu1034 N1074   2.042   .     S
Cu1034 Cu1135  2.718   .     S
C1035  C1039   1.413   .     A
C1035  C1041   1.401   .     A
C1036  C1040   1.422   .     A
C1036  C1042   1.406   .     A
C1037  C1045   1.388   .     A
C1037  C1039   1.396   .     A
C1037  H1055   1.056   .     S
C1038  C1046   1.397   .     A
C1038  C1040   1.406   .     A
C1038  H1056   1.070   .     S
C1039  N1195   1.420   .     S
C1041  H1054   1.083   .     S
C1041  C1043   1.410   .     A
C1042  C1044   1.399   .     A
C1042  H1053   1.079   .     S
C1043  C1047   1.399   .     A
C1043  C1045   1.405   .     A
C1044  C1046   1.403   .     A
C1044  C1048   1.411   .     A
C1045  C133    1.415   1_556 S
C1047  C1050   1.399   .     A
C1047  C130    1.417   1_556 S
C1048  C1049   1.402   .     A
C1049  C1051   1.394   .     A
C1049  H1057   1.081   .     S
C1050  H1058   1.083   .     S
C1050  C1052   1.388   .     A
C1051  N1075   1.422   .     S
C1052  N1081   1.422   .     S
C1052  C128    1.405   1_556 S
C1059  N1099   1.428   .     S
C1059  C1673   1.400   1_545 S
C1059  C1166   1.412   .     S
C1060  C1063   1.422   .     A
C1060  N1105   1.426   .     S
C1060  C1368   1.404   .     S
C1061  N1111   1.426   .     S
C1061  C1365   1.400   .     S
C1061  C1165   1.421   .     S
C1062  C1064   1.405   .     A
C1062  N1117   1.425   .     S
C1062  C1672   1.404   1_545 S
C1065  H1067   1.081   .     S
C1065  C1069   1.425   .     A
C1065  N1074   1.371   .     A
C1066  H1068   1.080   .     S
C1066  C1070   1.425   .     A
C1066  N1073   1.371   .     A
C1069  H1071   1.080   .     S
C1069  N1073   1.371   .     A
C1070  N1074   1.371   .     A
C1070  H1072   1.081   .     S
N1075  H1076   1.032   .     S
N1075  C1077   1.446   .     S
C1077  H1079   1.112   .     S
C1077  H1080   1.111   .     S
C1077  H1078   1.109   .     S
N1081  H1082   1.030   .     S
N1081  C165    1.448   1_556 S
C1083  H1085   1.112   .     S
C1083  H1086   1.110   .     S
H1084  C165    1.110   1_556 S
N1087  H1088   1.026   .     S
N1087  C1089   1.451   .     S
N1087  C1142   1.438   .     S
C1089  H1091   1.106   .     S
C1089  H1092   1.112   .     S
C1089  H1090   1.112   .     S
N1093  H1094   1.031   .     S
N1093  C1095   1.445   .     S
C1095  H1096   1.110   .     S
C1095  H1097   1.111   .     S
C1095  H1098   1.109   .     S
N1099  C1101   1.452   .     S
N1099  H1100   1.027   .     S
C1101  H1103   1.109   .     S
C1101  H1102   1.107   .     S
C1101  H1104   1.110   .     S
N1105  H1106   1.031   .     S
N1105  C1107   1.451   .     S
C1107  H1108   1.105   .     S
C1107  H1110   1.111   .     S
C1107  H1109   1.108   .     S
N1111  H1112   1.031   .     S
N1111  C1113   1.447   .     S
C1113  H1114   1.104   .     S
C1113  H1115   1.104   .     S
C1113  H1116   1.112   .     S
N1117  H1118   1.031   .     S
N1117  C1119   1.445   .     S
C1119  H1120   1.105   .     S
C1119  H1122   1.107   .     S
C1119  H1121   1.112   .     S
O1123  C1127   1.312   .     A
O1123  Cu1135  1.982   .     S
O1124  Cu1136  1.982   .     S
O1124  C924    1.309   1_655 S
O1125  Cu1136  1.982   .     S
O1125  C923    1.304   1_655 S
O1126  Cu1135  1.982   .     S
O1126  C1128   1.311   .     A
C1127  C1166   1.474   .     S
C1128  C1165   1.483   .     S
O1129  Cu1135  1.947   .     S
O1130  Cu1136  1.947   .     S
O1130  C930    1.310   1_655 S
O1131  Cu1136  1.946   .     S
O1131  C1133   1.312   .     A
O1132  C1134   1.311   .     A
O1132  Cu1135  1.946   .     S
C1133  C1137   1.483   .     S
C1133  O925    1.308   1_655 S
C1134  C1138   1.481   .     S
Cu1135 N1175   2.042   .     S
Cu1136 N1176   2.042   .     S
Cu1136 Cu931   2.718   1_655 S
C1137  C1141   1.413   .     A
C1137  C1143   1.401   .     A
C1138  C1142   1.422   .     A
C1138  C1144   1.406   .     A
C1139  C1147   1.388   .     A
C1139  C1141   1.396   .     A
C1139  H1157   1.056   .     S
C1140  C1148   1.397   .     A
C1140  C1142   1.406   .     A
C1140  H1158   1.070   .     S
C1141  N991    1.420   1_655 S
C1143  H1156   1.083   .     S
C1143  C1145   1.410   .     A
C1144  C1146   1.399   .     A
C1144  H1155   1.079   .     S
C1145  C1149   1.399   .     A
C1145  C1147   1.405   .     A
C1146  C1148   1.403   .     A
C1146  C1150   1.411   .     A
C1147  C235    1.415   1_556 S
C1149  C1152   1.399   .     A
C1149  C232    1.417   1_556 S
C1150  C1151   1.402   .     A
C1151  C1153   1.394   .     A
C1151  H1159   1.081   .     S
C1152  H1160   1.083   .     S
C1152  C1154   1.388   .     A
C1153  N1177   1.422   .     S
C1154  N1183   1.422   .     S
C1154  C230    1.405   1_556 S
C1161  N1201   1.428   .     S
C1161  C1775   1.400   1_545 S
C1161  C962    1.412   1_655 S
C1162  C1165   1.422   .     A
C1162  N1207   1.426   .     S
C1162  C1470   1.404   .     S
C1163  N1213   1.426   .     S
C1163  C1467   1.400   .     S
C1163  C961    1.421   1_655 S
C1164  C1166   1.405   .     A
C1164  N1219   1.425   .     S
C1164  C1774   1.404   1_545 S
C1167  H1169   1.081   .     S
C1167  C1171   1.425   .     A
C1167  N1176   1.371   .     A
C1168  H1170   1.080   .     S
C1168  C1172   1.425   .     A
C1168  N1175   1.371   .     A
C1171  H1173   1.080   .     S
C1171  N1175   1.371   .     A
C1172  N1176   1.371   .     A
C1172  H1174   1.081   .     S
N1177  H1178   1.032   .     S
N1177  C1179   1.446   .     S
C1179  H1181   1.112   .     S
C1179  H1182   1.111   .     S
C1179  H1180   1.109   .     S
N1183  H1184   1.030   .     S
N1183  C267    1.448   1_556 S
C1185  H1187   1.112   .     S
C1185  H1188   1.110   .     S
H1186  C267    1.110   1_556 S
N1189  H1190   1.026   .     S
N1189  C1191   1.451   .     S
N1189  C938    1.438   1_655 S
C1191  H1193   1.106   .     S
C1191  H1194   1.112   .     S
C1191  H1192   1.112   .     S
N1195  H1196   1.031   .     S
N1195  C1197   1.445   .     S
C1197  H1198   1.110   .     S
C1197  H1199   1.111   .     S
C1197  H1200   1.109   .     S
N1201  C1203   1.452   .     S
N1201  H1202   1.027   .     S
C1203  H1205   1.109   .     S
C1203  H1204   1.107   .     S
C1203  H1206   1.110   .     S
N1207  H1208   1.031   .     S
N1207  C1209   1.451   .     S
C1209  H1210   1.105   .     S
C1209  H1212   1.111   .     S
C1209  H1211   1.108   .     S
N1213  H1214   1.031   .     S
N1213  C1215   1.447   .     S
C1215  H1216   1.104   .     S
C1215  H1217   1.104   .     S
C1215  H1218   1.112   .     S
N1219  H1220   1.031   .     S
N1219  C1221   1.445   .     S
C1221  H1222   1.105   .     S
C1221  H1224   1.107   .     S
C1221  H1223   1.112   .     S
O1225  C1229   1.312   .     A
O1225  Cu1237  1.982   .     S
O1226  Cu1238  1.982   .     S
O1226  C1332   1.309   .     S
O1227  Cu1238  1.982   .     S
O1227  C1331   1.304   .     S
O1228  Cu1237  1.982   .     S
O1228  C1230   1.311   .     A
C1229  C1268   1.474   .     S
C1229  O1431   1.304   1_455 S
C1230  C1267   1.483   .     S
C1230  O1430   1.309   1_455 S
O1231  Cu1237  1.947   .     S
O1231  C1439   1.308   1_455 S
O1232  Cu1238  1.947   .     S
O1232  C1338   1.310   .     S
O1233  Cu1238  1.946   .     S
O1233  C1235   1.312   .     A
O1234  C1236   1.311   .     A
O1234  Cu1237  1.946   .     S
C1235  C1239   1.483   .     S
C1235  O1333   1.308   .     S
C1236  C1240   1.481   .     S
C1236  O1436   1.310   1_455 S
Cu1237 N1277   2.042   .     S
Cu1237 Cu1442  2.718   1_455 S
Cu1238 N1278   2.042   .     S
Cu1238 Cu1339  2.718   .     S
C1239  C1243   1.413   .     A
C1239  C1245   1.401   .     A
C1240  C1244   1.422   .     A
C1240  C1246   1.406   .     A
C1241  C1249   1.388   .     A
C1241  C1243   1.396   .     A
C1241  H1259   1.056   .     S
C1242  C1250   1.397   .     A
C1242  C1244   1.406   .     A
C1242  H1260   1.070   .     S
C1243  N1399   1.420   .     S
C1244  N1495   1.438   1_455 S
C1245  H1258   1.083   .     S
C1245  C1247   1.410   .     A
C1246  C1248   1.399   .     A
C1246  H1257   1.079   .     S
C1247  C1251   1.399   .     A
C1247  C1249   1.405   .     A
C1248  C1250   1.403   .     A
C1248  C1252   1.411   .     A
C1249  C337    1.415   1_556 S
C1251  C1254   1.399   .     A
C1251  C334    1.417   1_556 S
C1252  C1253   1.402   .     A
C1253  C1255   1.394   .     A
C1253  H1261   1.081   .     S
C1254  H1262   1.083   .     S
C1254  C1256   1.388   .     A
C1255  N1279   1.422   .     S
C1256  N1285   1.422   .     S
C1256  C332    1.405   1_556 S
C1263  N1303   1.428   .     S
C1263  C1370   1.412   .     S
C1264  C1267   1.422   .     A
C1264  N1309   1.426   .     S
C1264  C1572   1.404   .     S
C1265  N1315   1.426   .     S
C1265  C1569   1.400   .     S
C1265  C1369   1.421   .     S
C1266  C1268   1.405   .     A
C1266  N1321   1.425   .     S
C1267  C1469   1.421   1_455 S
C1268  C1467   1.412   1_455 S
C1269  H1271   1.081   .     S
C1269  C1273   1.425   .     A
C1269  N1278   1.371   .     A
C1270  H1272   1.080   .     S
C1270  C1274   1.425   .     A
C1270  N1277   1.371   .     A
C1273  H1275   1.080   .     S
C1273  N1277   1.371   .     A
C1274  N1278   1.371   .     A
C1274  H1276   1.081   .     S
N1279  H1280   1.032   .     S
N1279  C1281   1.446   .     S
C1281  H1283   1.112   .     S
C1281  H1284   1.111   .     S
C1281  H1282   1.109   .     S
N1285  H1286   1.030   .     S
N1285  C369    1.448   1_556 S
C1287  H1289   1.112   .     S
C1287  H1290   1.110   .     S
H1288  C369    1.110   1_556 S
N1291  H1292   1.026   .     S
N1291  C1293   1.451   .     S
N1291  C1346   1.438   .     S
C1293  H1295   1.106   .     S
C1293  H1296   1.112   .     S
C1293  H1294   1.112   .     S
N1297  H1298   1.031   .     S
N1297  C1299   1.445   .     S
N1297  C1447   1.420   1_455 S
C1299  H1300   1.110   .     S
C1299  H1301   1.111   .     S
C1299  H1302   1.109   .     S
N1303  C1305   1.452   .     S
N1303  H1304   1.027   .     S
C1305  H1307   1.109   .     S
C1305  H1306   1.107   .     S
C1305  H1308   1.110   .     S
N1309  H1310   1.031   .     S
N1309  C1311   1.451   .     S
C1311  H1312   1.105   .     S
C1311  H1314   1.111   .     S
C1311  H1313   1.108   .     S
N1315  H1316   1.031   .     S
N1315  C1317   1.447   .     S
C1317  H1318   1.104   .     S
C1317  H1319   1.104   .     S
C1317  H1320   1.112   .     S
N1321  H1322   1.031   .     S
N1321  C1323   1.445   .     S
C1323  H1324   1.105   .     S
C1323  H1326   1.107   .     S
C1323  H1325   1.112   .     S
O1327  C1331   1.312   .     A
O1327  Cu1339  1.982   .     S
O1328  Cu1340  1.982   .     S
O1328  C1434   1.309   .     S
O1329  Cu1340  1.982   .     S
O1329  C1433   1.304   .     S
O1330  Cu1339  1.982   .     S
O1330  C1332   1.311   .     A
C1331  C1370   1.474   .     S
C1332  C1369   1.483   .     S
O1333  Cu1339  1.947   .     S
O1334  Cu1340  1.947   .     S
O1334  C1440   1.310   .     S
O1335  Cu1340  1.946   .     S
O1335  C1337   1.312   .     A
O1336  C1338   1.311   .     A
O1336  Cu1339  1.946   .     S
C1337  C1341   1.483   .     S
C1337  O1435   1.308   .     S
C1338  C1342   1.481   .     S
Cu1339 N1379   2.042   .     S
Cu1340 N1380   2.042   .     S
Cu1340 Cu1441  2.718   .     S
C1341  C1345   1.413   .     A
C1341  C1347   1.401   .     A
C1342  C1346   1.422   .     A
C1342  C1348   1.406   .     A
C1343  C1351   1.388   .     A
C1343  C1345   1.396   .     A
C1343  H1361   1.056   .     S
C1344  C1352   1.397   .     A
C1344  C1346   1.406   .     A
C1344  H1362   1.070   .     S
C1345  N1501   1.420   .     S
C1347  H1360   1.083   .     S
C1347  C1349   1.410   .     A
C1348  C1350   1.399   .     A
C1348  H1359   1.079   .     S
C1349  C1353   1.399   .     A
C1349  C1351   1.405   .     A
C1350  C1352   1.403   .     A
C1350  C1354   1.411   .     A
C1351  C439    1.415   1_556 S
C1353  C1356   1.399   .     A
C1353  C436    1.417   1_556 S
C1354  C1355   1.402   .     A
C1355  C1357   1.394   .     A
C1355  H1363   1.081   .     S
C1356  H1364   1.083   .     S
C1356  C1358   1.388   .     A
C1357  N1381   1.422   .     S
C1358  N1387   1.422   .     S
C1358  C434    1.405   1_556 S
C1365  N1405   1.428   .     S
C1365  C1472   1.412   .     S
C1366  C1369   1.422   .     A
C1366  N1411   1.426   .     S
C1366  C1674   1.404   .     S
C1367  N1417   1.426   .     S
C1367  C1671   1.400   .     S
C1367  C1471   1.421   .     S
C1368  C1370   1.405   .     A
C1368  N1423   1.425   .     S
C1371  H1373   1.081   .     S
C1371  C1375   1.425   .     A
C1371  N1380   1.371   .     A
C1372  H1374   1.080   .     S
C1372  C1376   1.425   .     A
C1372  N1379   1.371   .     A
C1375  H1377   1.080   .     S
C1375  N1379   1.371   .     A
C1376  N1380   1.371   .     A
C1376  H1378   1.081   .     S
N1381  H1382   1.032   .     S
N1381  C1383   1.446   .     S
C1383  H1385   1.112   .     S
C1383  H1386   1.111   .     S
C1383  H1384   1.109   .     S
N1387  H1388   1.030   .     S
N1387  C471    1.448   1_556 S
C1389  H1391   1.112   .     S
C1389  H1392   1.110   .     S
H1390  C471    1.110   1_556 S
N1393  H1394   1.026   .     S
N1393  C1395   1.451   .     S
N1393  C1448   1.438   .     S
C1395  H1397   1.106   .     S
C1395  H1398   1.112   .     S
C1395  H1396   1.112   .     S
N1399  H1400   1.031   .     S
N1399  C1401   1.445   .     S
C1401  H1402   1.110   .     S
C1401  H1403   1.111   .     S
C1401  H1404   1.109   .     S
N1405  C1407   1.452   .     S
N1405  H1406   1.027   .     S
C1407  H1409   1.109   .     S
C1407  H1408   1.107   .     S
C1407  H1410   1.110   .     S
N1411  H1412   1.031   .     S
N1411  C1413   1.451   .     S
C1413  H1414   1.105   .     S
C1413  H1416   1.111   .     S
C1413  H1415   1.108   .     S
N1417  H1418   1.031   .     S
N1417  C1419   1.447   .     S
C1419  H1420   1.104   .     S
C1419  H1421   1.104   .     S
C1419  H1422   1.112   .     S
N1423  H1424   1.031   .     S
N1423  C1425   1.445   .     S
C1425  H1426   1.105   .     S
C1425  H1428   1.107   .     S
C1425  H1427   1.112   .     S
O1429  C1433   1.312   .     A
O1429  Cu1441  1.982   .     S
O1430  Cu1442  1.982   .     S
O1430  C1230   1.309   1_655 S
O1431  Cu1442  1.982   .     S
O1431  C1229   1.304   1_655 S
O1432  Cu1441  1.982   .     S
O1432  C1434   1.311   .     A
C1433  C1472   1.474   .     S
C1434  C1471   1.483   .     S
O1435  Cu1441  1.947   .     S
O1436  Cu1442  1.947   .     S
O1436  C1236   1.310   1_655 S
O1437  Cu1442  1.946   .     S
O1437  C1439   1.312   .     A
O1438  C1440   1.311   .     A
O1438  Cu1441  1.946   .     S
C1439  C1443   1.483   .     S
C1439  O1231   1.308   1_655 S
C1440  C1444   1.481   .     S
Cu1441 N1481   2.042   .     S
Cu1442 N1482   2.042   .     S
Cu1442 Cu1237  2.718   1_655 S
C1443  C1447   1.413   .     A
C1443  C1449   1.401   .     A
C1444  C1448   1.422   .     A
C1444  C1450   1.406   .     A
C1445  C1453   1.388   .     A
C1445  C1447   1.396   .     A
C1445  H1463   1.056   .     S
C1446  C1454   1.397   .     A
C1446  C1448   1.406   .     A
C1446  H1464   1.070   .     S
C1447  N1297   1.420   1_655 S
C1449  H1462   1.083   .     S
C1449  C1451   1.410   .     A
C1450  C1452   1.399   .     A
C1450  H1461   1.079   .     S
C1451  C1455   1.399   .     A
C1451  C1453   1.405   .     A
C1452  C1454   1.403   .     A
C1452  C1456   1.411   .     A
C1453  C541    1.415   1_556 S
C1455  C1458   1.399   .     A
C1455  C538    1.417   1_556 S
C1456  C1457   1.402   .     A
C1457  C1459   1.394   .     A
C1457  H1465   1.081   .     S
C1458  H1466   1.083   .     S
C1458  C1460   1.388   .     A
C1459  N1483   1.422   .     S
C1460  N1489   1.422   .     S
C1460  C536    1.405   1_556 S
C1467  N1507   1.428   .     S
C1467  C1268   1.412   1_655 S
C1468  C1471   1.422   .     A
C1468  N1513   1.426   .     S
C1468  C1776   1.404   .     S
C1469  N1519   1.426   .     S
C1469  C1773   1.400   .     S
C1469  C1267   1.421   1_655 S
C1470  C1472   1.405   .     A
C1470  N1525   1.425   .     S
C1473  H1475   1.081   .     S
C1473  C1477   1.425   .     A
C1473  N1482   1.371   .     A
C1474  H1476   1.080   .     S
C1474  C1478   1.425   .     A
C1474  N1481   1.371   .     A
C1477  H1479   1.080   .     S
C1477  N1481   1.371   .     A
C1478  N1482   1.371   .     A
C1478  H1480   1.081   .     S
N1483  H1484   1.032   .     S
N1483  C1485   1.446   .     S
C1485  H1487   1.112   .     S
C1485  H1488   1.111   .     S
C1485  H1486   1.109   .     S
N1489  H1490   1.030   .     S
N1489  C573    1.448   1_556 S
C1491  H1493   1.112   .     S
C1491  H1494   1.110   .     S
H1492  C573    1.110   1_556 S
N1495  H1496   1.026   .     S
N1495  C1497   1.451   .     S
N1495  C1244   1.438   1_655 S
C1497  H1499   1.106   .     S
C1497  H1500   1.112   .     S
C1497  H1498   1.112   .     S
N1501  H1502   1.031   .     S
N1501  C1503   1.445   .     S
C1503  H1504   1.110   .     S
C1503  H1505   1.111   .     S
C1503  H1506   1.109   .     S
N1507  C1509   1.452   .     S
N1507  H1508   1.027   .     S
C1509  H1511   1.109   .     S
C1509  H1510   1.107   .     S
C1509  H1512   1.110   .     S
N1513  H1514   1.031   .     S
N1513  C1515   1.451   .     S
C1515  H1516   1.105   .     S
C1515  H1518   1.111   .     S
C1515  H1517   1.108   .     S
N1519  H1520   1.031   .     S
N1519  C1521   1.447   .     S
C1521  H1522   1.104   .     S
C1521  H1523   1.104   .     S
C1521  H1524   1.112   .     S
N1525  H1526   1.031   .     S
N1525  C1527   1.445   .     S
C1527  H1528   1.105   .     S
C1527  H1530   1.107   .     S
C1527  H1529   1.112   .     S
O1531  C1535   1.312   .     A
O1531  Cu1543  1.982   .     S
O1532  Cu1544  1.982   .     S
O1532  C1638   1.309   .     S
O1533  Cu1544  1.982   .     S
O1533  C1637   1.304   .     S
O1534  Cu1543  1.982   .     S
O1534  C1536   1.311   .     A
C1535  C1574   1.474   .     S
C1535  O1737   1.304   1_455 S
C1536  C1573   1.483   .     S
C1536  O1736   1.309   1_455 S
O1537  Cu1543  1.947   .     S
O1537  C1745   1.308   1_455 S
O1538  Cu1544  1.947   .     S
O1538  C1644   1.310   .     S
O1539  Cu1544  1.946   .     S
O1539  C1541   1.312   .     A
O1540  C1542   1.311   .     A
O1540  Cu1543  1.946   .     S
C1541  C1545   1.483   .     S
C1541  O1639   1.308   .     S
C1542  C1546   1.481   .     S
C1542  O1742   1.310   1_455 S
Cu1543 N1583   2.042   .     S
Cu1543 Cu1748  2.718   1_455 S
Cu1544 N1584   2.042   .     S
Cu1544 Cu1645  2.718   .     S
C1545  C1549   1.413   .     A
C1545  C1551   1.401   .     A
C1546  C1550   1.422   .     A
C1546  C1552   1.406   .     A
C1547  C1555   1.388   .     A
C1547  C1549   1.396   .     A
C1547  H1565   1.056   .     S
C1548  C1556   1.397   .     A
C1548  C1550   1.406   .     A
C1548  H1566   1.070   .     S
C1549  N1705   1.420   .     S
C1550  N1801   1.438   1_455 S
C1551  H1564   1.083   .     S
C1551  C1553   1.410   .     A
C1552  C1554   1.399   .     A
C1552  H1563   1.079   .     S
C1553  C1557   1.399   .     A
C1553  C1555   1.405   .     A
C1554  C1556   1.403   .     A
C1554  C1558   1.411   .     A
C1555  C643    1.415   1_556 S
C1557  C1560   1.399   .     A
C1557  C640    1.417   1_556 S
C1558  C1559   1.402   .     A
C1559  C1561   1.394   .     A
C1559  H1567   1.081   .     S
C1560  H1568   1.083   .     S
C1560  C1562   1.388   .     A
C1561  N1585   1.422   .     S
C1562  N1591   1.422   .     S
C1562  C638    1.405   1_556 S
C1569  N1609   1.428   .     S
C1569  C1676   1.412   .     S
C1570  C1573   1.422   .     A
C1570  N1615   1.426   .     S
C1570  C960    1.404   1_565 S
C1571  N1621   1.426   .     S
C1571  C957    1.400   1_565 S
C1571  C1675   1.421   .     S
C1572  C1574   1.405   .     A
C1572  N1627   1.425   .     S
C1573  C1775   1.421   1_455 S
C1574  C1773   1.412   1_455 S
C1575  H1577   1.081   .     S
C1575  C1579   1.425   .     A
C1575  N1584   1.371   .     A
C1576  H1578   1.080   .     S
C1576  C1580   1.425   .     A
C1576  N1583   1.371   .     A
C1579  H1581   1.080   .     S
C1579  N1583   1.371   .     A
C1580  N1584   1.371   .     A
C1580  H1582   1.081   .     S
N1585  H1586   1.032   .     S
N1585  C1587   1.446   .     S
C1587  H1589   1.112   .     S
C1587  H1590   1.111   .     S
C1587  H1588   1.109   .     S
N1591  H1592   1.030   .     S
N1591  C675    1.448   1_556 S
C1593  H1595   1.112   .     S
C1593  H1596   1.110   .     S
H1594  C675    1.110   1_556 S
N1597  H1598   1.026   .     S
N1597  C1599   1.451   .     S
N1597  C1652   1.438   .     S
C1599  H1601   1.106   .     S
C1599  H1602   1.112   .     S
C1599  H1600   1.112   .     S
N1603  H1604   1.031   .     S
N1603  C1605   1.445   .     S
N1603  C1753   1.420   1_455 S
C1605  H1606   1.110   .     S
C1605  H1607   1.111   .     S
C1605  H1608   1.109   .     S
N1609  C1611   1.452   .     S
N1609  H1610   1.027   .     S
C1611  H1613   1.109   .     S
C1611  H1612   1.107   .     S
C1611  H1614   1.110   .     S
N1615  H1616   1.031   .     S
N1615  C1617   1.451   .     S
C1617  H1618   1.105   .     S
C1617  H1620   1.111   .     S
C1617  H1619   1.108   .     S
N1621  H1622   1.031   .     S
N1621  C1623   1.447   .     S
C1623  H1624   1.104   .     S
C1623  H1625   1.104   .     S
C1623  H1626   1.112   .     S
N1627  H1628   1.031   .     S
N1627  C1629   1.445   .     S
C1629  H1630   1.105   .     S
C1629  H1632   1.107   .     S
C1629  H1631   1.112   .     S
O1633  C1637   1.312   .     A
O1633  Cu1645  1.982   .     S
O1634  Cu1646  1.982   .     S
O1634  C1740   1.309   .     S
O1635  Cu1646  1.982   .     S
O1635  C1739   1.304   .     S
O1636  Cu1645  1.982   .     S
O1636  C1638   1.311   .     A
C1637  C1676   1.474   .     S
C1638  C1675   1.483   .     S
O1639  Cu1645  1.947   .     S
O1640  Cu1646  1.947   .     S
O1640  C1746   1.310   .     S
O1641  Cu1646  1.946   .     S
O1641  C1643   1.312   .     A
O1642  C1644   1.311   .     A
O1642  Cu1645  1.946   .     S
C1643  C1647   1.483   .     S
C1643  O1741   1.308   .     S
C1644  C1648   1.481   .     S
Cu1645 N1685   2.042   .     S
Cu1646 N1686   2.042   .     S
Cu1646 Cu1747  2.718   .     S
C1647  C1651   1.413   .     A
C1647  C1653   1.401   .     A
C1648  C1652   1.422   .     A
C1648  C1654   1.406   .     A
C1649  C1657   1.388   .     A
C1649  C1651   1.396   .     A
C1649  H1667   1.056   .     S
C1650  C1658   1.397   .     A
C1650  C1652   1.406   .     A
C1650  H1668   1.070   .     S
C1651  N1807   1.420   .     S
C1653  H1666   1.083   .     S
C1653  C1655   1.410   .     A
C1654  C1656   1.399   .     A
C1654  H1665   1.079   .     S
C1655  C1659   1.399   .     A
C1655  C1657   1.405   .     A
C1656  C1658   1.403   .     A
C1656  C1660   1.411   .     A
C1657  C745    1.415   1_556 S
C1659  C1662   1.399   .     A
C1659  C742    1.417   1_556 S
C1660  C1661   1.402   .     A
C1661  C1663   1.394   .     A
C1661  H1669   1.081   .     S
C1662  H1670   1.083   .     S
C1662  C1664   1.388   .     A
C1663  N1687   1.422   .     S
C1664  N1693   1.422   .     S
C1664  C740    1.405   1_556 S
C1671  N1711   1.428   .     S
C1671  C1778   1.412   .     S
C1672  C1675   1.422   .     A
C1672  N1717   1.426   .     S
C1672  C1062   1.404   1_565 S
C1673  N1723   1.426   .     S
C1673  C1059   1.400   1_565 S
C1673  C1777   1.421   .     S
C1674  C1676   1.405   .     A
C1674  N1729   1.425   .     S
C1677  H1679   1.081   .     S
C1677  C1681   1.425   .     A
C1677  N1686   1.371   .     A
C1678  H1680   1.080   .     S
C1678  C1682   1.425   .     A
C1678  N1685   1.371   .     A
C1681  H1683   1.080   .     S
C1681  N1685   1.371   .     A
C1682  N1686   1.371   .     A
C1682  H1684   1.081   .     S
N1687  H1688   1.032   .     S
N1687  C1689   1.446   .     S
C1689  H1691   1.112   .     S
C1689  H1692   1.111   .     S
C1689  H1690   1.109   .     S
N1693  H1694   1.030   .     S
N1693  C777    1.448   1_556 S
C1695  H1697   1.112   .     S
C1695  H1698   1.110   .     S
H1696  C777    1.110   1_556 S
N1699  H1700   1.026   .     S
N1699  C1701   1.451   .     S
N1699  C1754   1.438   .     S
C1701  H1703   1.106   .     S
C1701  H1704   1.112   .     S
C1701  H1702   1.112   .     S
N1705  H1706   1.031   .     S
N1705  C1707   1.445   .     S
C1707  H1708   1.110   .     S
C1707  H1709   1.111   .     S
C1707  H1710   1.109   .     S
N1711  C1713   1.452   .     S
N1711  H1712   1.027   .     S
C1713  H1715   1.109   .     S
C1713  H1714   1.107   .     S
C1713  H1716   1.110   .     S
N1717  H1718   1.031   .     S
N1717  C1719   1.451   .     S
C1719  H1720   1.105   .     S
C1719  H1722   1.111   .     S
C1719  H1721   1.108   .     S
N1723  H1724   1.031   .     S
N1723  C1725   1.447   .     S
C1725  H1726   1.104   .     S
C1725  H1727   1.104   .     S
C1725  H1728   1.112   .     S
N1729  H1730   1.031   .     S
N1729  C1731   1.445   .     S
C1731  H1732   1.105   .     S
C1731  H1734   1.107   .     S
C1731  H1733   1.112   .     S
O1735  C1739   1.312   .     A
O1735  Cu1747  1.982   .     S
O1736  Cu1748  1.982   .     S
O1736  C1536   1.309   1_655 S
O1737  Cu1748  1.982   .     S
O1737  C1535   1.304   1_655 S
O1738  Cu1747  1.982   .     S
O1738  C1740   1.311   .     A
C1739  C1778   1.474   .     S
C1740  C1777   1.483   .     S
O1741  Cu1747  1.947   .     S
O1742  Cu1748  1.947   .     S
O1742  C1542   1.310   1_655 S
O1743  Cu1748  1.946   .     S
O1743  C1745   1.312   .     A
O1744  C1746   1.311   .     A
O1744  Cu1747  1.946   .     S
C1745  C1749   1.483   .     S
C1745  O1537   1.308   1_655 S
C1746  C1750   1.481   .     S
Cu1747 N1787   2.042   .     S
Cu1748 N1788   2.042   .     S
Cu1748 Cu1543  2.718   1_655 S
C1749  C1753   1.413   .     A
C1749  C1755   1.401   .     A
C1750  C1754   1.422   .     A
C1750  C1756   1.406   .     A
C1751  C1759   1.388   .     A
C1751  C1753   1.396   .     A
C1751  H1769   1.056   .     S
C1752  C1760   1.397   .     A
C1752  C1754   1.406   .     A
C1752  H1770   1.070   .     S
C1753  N1603   1.420   1_655 S
C1755  H1768   1.083   .     S
C1755  C1757   1.410   .     A
C1756  C1758   1.399   .     A
C1756  H1767   1.079   .     S
C1757  C1761   1.399   .     A
C1757  C1759   1.405   .     A
C1758  C1760   1.403   .     A
C1758  C1762   1.411   .     A
C1759  C847    1.415   1_556 S
C1761  C1764   1.399   .     A
C1761  C844    1.417   1_556 S
C1762  C1763   1.402   .     A
C1763  C1765   1.394   .     A
C1763  H1771   1.081   .     S
C1764  H1772   1.083   .     S
C1764  C1766   1.388   .     A
C1765  N1789   1.422   .     S
C1766  N1795   1.422   .     S
C1766  C842    1.405   1_556 S
C1773  N1813   1.428   .     S
C1773  C1574   1.412   1_655 S
C1774  C1777   1.422   .     A
C1774  N1819   1.426   .     S
C1774  C1164   1.404   1_565 S
C1775  N1825   1.426   .     S
C1775  C1161   1.400   1_565 S
C1775  C1573   1.421   1_655 S
C1776  C1778   1.405   .     A
C1776  N1831   1.425   .     S
C1779  H1781   1.081   .     S
C1779  C1783   1.425   .     A
C1779  N1788   1.371   .     A
C1780  H1782   1.080   .     S
C1780  C1784   1.425   .     A
C1780  N1787   1.371   .     A
C1783  H1785   1.080   .     S
C1783  N1787   1.371   .     A
C1784  N1788   1.371   .     A
C1784  H1786   1.081   .     S
N1789  H1790   1.032   .     S
N1789  C1791   1.446   .     S
C1791  H1793   1.112   .     S
C1791  H1794   1.111   .     S
C1791  H1792   1.109   .     S
N1795  H1796   1.030   .     S
N1795  C879    1.448   1_556 S
C1797  H1799   1.112   .     S
C1797  H1800   1.110   .     S
H1798  C879    1.110   1_556 S
N1801  H1802   1.026   .     S
N1801  C1803   1.451   .     S
N1801  C1550   1.438   1_655 S
C1803  H1805   1.106   .     S
C1803  H1806   1.112   .     S
C1803  H1804   1.112   .     S
N1807  H1808   1.031   .     S
N1807  C1809   1.445   .     S
C1809  H1810   1.110   .     S
C1809  H1811   1.111   .     S
C1809  H1812   1.109   .     S
N1813  C1815   1.452   .     S
N1813  H1814   1.027   .     S
C1815  H1817   1.109   .     S
C1815  H1816   1.107   .     S
C1815  H1818   1.110   .     S
N1819  H1820   1.031   .     S
N1819  C1821   1.451   .     S
C1821  H1822   1.105   .     S
C1821  H1824   1.111   .     S
C1821  H1823   1.108   .     S
N1825  H1826   1.031   .     S
N1825  C1827   1.447   .     S
C1827  H1828   1.104   .     S
C1827  H1829   1.104   .     S
C1827  H1830   1.112   .     S
N1831  H1832   1.031   .     S
N1831  C1833   1.445   .     S
C1833  H1834   1.105   .     S
C1833  H1836   1.107   .     S
C1833  H1835   1.112   .     S
