data_str_m2_o1_o1_pcu_sym.81
_audit_creation_date              2020-01-03
_audit_creation_method            'Materials Studio'
_symmetry_space_group_name_H-M    'P1'
_symmetry_Int_Tables_number       1
_symmetry_cell_setting            triclinic
loop_
_symmetry_equiv_pos_as_xyz
  x,y,z
_cell_length_a                    33.6199
_cell_length_b                    27.6124
_cell_length_c                    28.8440
_cell_angle_alpha                 90.0041
_cell_angle_beta                  90.0008
_cell_angle_gamma                 89.9996
loop_
_atom_site_label
_atom_site_type_symbol
_atom_site_fract_x
_atom_site_fract_y
_atom_site_fract_z
_atom_site_U_iso_or_equiv
_atom_site_adp_type
_atom_site_occupancy
C1     C     0.06192   0.19417   0.16677   0.00000  Uiso   1.00
C2     C     0.00030   0.29395   0.30807   0.00000  Uiso   1.00
C3     C     0.49970   0.29395   0.02527   0.00000  Uiso   1.00
C4     C     0.49970   0.20605   0.30807   0.00000  Uiso   1.00
C5     C     0.25030   0.45605   0.02526   0.00000  Uiso   1.00
C6     C     0.25030   0.04395   0.30807   0.00000  Uiso   1.00
C7     C     0.24970   0.04395   0.02527   0.00000  Uiso   1.00
C8     C     0.24970   0.45605   0.30807   0.00000  Uiso   1.00
C9     C     0.38673   0.14598   0.12332   0.00000  Uiso   1.00
C10    C     0.11463   0.35304   0.20792   0.00000  Uiso   1.00
C11    C     0.11329   0.35399   0.12332   0.00000  Uiso   1.00
C12    C     0.43808   0.30583   0.16677   0.00000  Uiso   1.00
C13    C     0.38537   0.14697   0.20791   0.00000  Uiso   1.00
C14    C     0.11328   0.14600   0.21001   0.00000  Uiso   1.00
C15    C     0.38538   0.35304   0.12542   0.00000  Uiso   1.00
C16    C     0.38673   0.35402   0.21001   0.00000  Uiso   1.00
C17    C     0.11462   0.14695   0.12541   0.00000  Uiso   1.00
C18    C     0.13672   0.39599   0.12332   0.00000  Uiso   1.00
C19    C     0.36461   0.10307   0.20793   0.00000  Uiso   1.00
C20    C     0.36329   0.10397   0.12333   0.00000  Uiso   1.00
C21    C     0.13539   0.39694   0.20792   0.00000  Uiso   1.00
C22    C     0.36329   0.39603   0.21001   0.00000  Uiso   1.00
C23    C     0.43808   0.19417   0.16656   0.00000  Uiso   1.00
C24    C     0.13538   0.10305   0.12541   0.00000  Uiso   1.00
C25    C     0.13671   0.10399   0.21001   0.00000  Uiso   1.00
C26    C     0.36462   0.39694   0.12541   0.00000  Uiso   1.00
C27    C     0.09834   0.33594   0.16590   0.00000  Uiso   1.00
C28    C     0.40167   0.16405   0.16589   0.00000  Uiso   1.00
C29    C     0.40167   0.33595   0.16744   0.00000  Uiso   1.00
C30    C     0.09833   0.16405   0.16743   0.00000  Uiso   1.00
C31    C     0.34833   0.08594   0.16591   0.00000  Uiso   1.00
C32    C     0.15167   0.41405   0.16590   0.00000  Uiso   1.00
C33    C     0.15167   0.08594   0.16743   0.00000  Uiso   1.00
C34    C     0.06192   0.30583   0.16657   0.00000  Uiso   1.00
C35    C     0.34834   0.41406   0.16743   0.00000  Uiso   1.00
C36    C     0.39075   0.17421   0.07842   0.00000  Uiso   1.00
C37    C     0.11942   0.31950   0.24918   0.00000  Uiso   1.00
C38    C     0.10926   0.32574   0.07843   0.00000  Uiso   1.00
C39    C     0.38057   0.18054   0.24915   0.00000  Uiso   1.00
C40    C     0.10926   0.17424   0.25491   0.00000  Uiso   1.00
C41    C     0.38058   0.31949   0.08417   0.00000  Uiso   1.00
C42    C     0.39075   0.32579   0.25492   0.00000  Uiso   1.00
C43    C     0.11942   0.18049   0.08416   0.00000  Uiso   1.00
C44    C     0.14075   0.42423   0.07843   0.00000  Uiso   1.00
C45    C     0.31192   0.44417   0.16677   0.00000  Uiso   1.00
C46    C     0.36939   0.06956   0.24921   0.00000  Uiso   1.00
C47    C     0.35927   0.07572   0.07844   0.00000  Uiso   1.00
C48    C     0.13059   0.43048   0.24918   0.00000  Uiso   1.00
C49    C     0.35927   0.42428   0.25490   0.00000  Uiso   1.00
C50    C     0.13059   0.06950   0.08415   0.00000  Uiso   1.00
C51    C     0.14073   0.07575   0.25490   0.00000  Uiso   1.00
C52    C     0.36941   0.43047   0.08414   0.00000  Uiso   1.00
C53    C     0.18808   0.05583   0.16677   0.00000  Uiso   1.00
C54    C     0.18808   0.44417   0.16656   0.00000  Uiso   1.00
C55    C     0.31192   0.05583   0.16657   0.00000  Uiso   1.00
C56    C     0.00030   0.20605   0.02526   0.00000  Uiso   1.00
Cu57   Cu    0.00000   0.25000   0.21355   0.00000  Uiso   1.00
Cu58   Cu   -0.00000   0.25000   0.11978   0.00000  Uiso   1.00
Cu59   Cu    0.25000  -0.00000   0.21355   0.00000  Uiso   1.00
Cu60   Cu    0.25000  -0.00000   0.11978   0.00000  Uiso   1.00
H61    H     0.00800   0.10619   0.11918   0.00000  Uiso   1.00
H62    H     0.39408   0.21343   0.08501   0.00000  Uiso   1.00
H63    H     0.41631   0.16100   0.05798   0.00000  Uiso   1.00
H64    H     0.09112   0.30812   0.26503   0.00000  Uiso   1.00
H65    H     0.13583   0.28685   0.23762   0.00000  Uiso   1.00
H66    H     0.13743   0.33601   0.27717   0.00000  Uiso   1.00
H67    H     0.13661   0.32912   0.05706   0.00000  Uiso   1.00
H68    H     0.10593   0.28652   0.08503   0.00000  Uiso   1.00
H69    H     0.08371   0.33895   0.05798   0.00000  Uiso   1.00
H70    H     0.40888   0.19187   0.26504   0.00000  Uiso   1.00
H71    H     0.36422   0.21323   0.23756   0.00000  Uiso   1.00
H72    H     0.00795   0.39383   0.21416   0.00000  Uiso   1.00
H73    H     0.36250   0.16408   0.27712   0.00000  Uiso   1.00
H74    H     0.13661   0.17087   0.27627   0.00000  Uiso   1.00
H75    H     0.10592   0.21346   0.24831   0.00000  Uiso   1.00
H76    H     0.08372   0.16102   0.27536   0.00000  Uiso   1.00
H77    H     0.40889   0.30814   0.06829   0.00000  Uiso   1.00
H78    H     0.36420   0.28681   0.09573   0.00000  Uiso   1.00
H79    H     0.36254   0.33597   0.05619   0.00000  Uiso   1.00
H80    H     0.36341   0.32918   0.27628   0.00000  Uiso   1.00
H81    H     0.39410   0.28657   0.24833   0.00000  Uiso   1.00
H82    H     0.41630   0.33902   0.27536   0.00000  Uiso   1.00
H83    H     0.49201   0.39381   0.11920   0.00000  Uiso   1.00
H84    H     0.09112   0.19188   0.06831   0.00000  Uiso   1.00
H85    H     0.13585   0.21313   0.09571   0.00000  Uiso   1.00
H86    H     0.13741   0.16397   0.05615   0.00000  Uiso   1.00
H87    H     0.11341   0.42083   0.05705   0.00000  Uiso   1.00
H88    H     0.14407   0.46345   0.08503   0.00000  Uiso   1.00
H89    H     0.16631   0.41102   0.05799   0.00000  Uiso   1.00
H90    H     0.34108   0.05815   0.26502   0.00000  Uiso   1.00
H91    H     0.38585   0.03692   0.23771   0.00000  Uiso   1.00
H92    H     0.38734   0.08612   0.27724   0.00000  Uiso   1.00
H93    H     0.38660   0.07912   0.05705   0.00000  Uiso   1.00
H94    H     0.49201   0.10619   0.21413   0.00000  Uiso   1.00
H95    H     0.35595   0.03650   0.08505   0.00000  Uiso   1.00
H96    H     0.33370   0.08892   0.05800   0.00000  Uiso   1.00
H97    H     0.11417   0.46313   0.23764   0.00000  Uiso   1.00
H98    H     0.11259   0.41397   0.27718   0.00000  Uiso   1.00
H99    H     0.15889   0.44187   0.26503   0.00000  Uiso   1.00
H100   H     0.38661   0.42090   0.27627   0.00000  Uiso   1.00
H101   H     0.35594   0.46350   0.24829   0.00000  Uiso   1.00
H102   H     0.33372   0.41108   0.27534   0.00000  Uiso   1.00
H103   H     0.11417   0.03685   0.09570   0.00000  Uiso   1.00
H104   H     0.11258   0.08601   0.05615   0.00000  Uiso   1.00
H105   H     0.25826   0.35631   0.11923   0.00000  Uiso   1.00
H106   H     0.15889   0.05812   0.06830   0.00000  Uiso   1.00
H107   H     0.11339   0.07913   0.27626   0.00000  Uiso   1.00
H108   H     0.14406   0.03653   0.24829   0.00000  Uiso   1.00
H109   H     0.16628   0.08895   0.27535   0.00000  Uiso   1.00
H110   H     0.38588   0.46310   0.09568   0.00000  Uiso   1.00
H111   H     0.38738   0.41393   0.05613   0.00000  Uiso   1.00
H112   H     0.34112   0.44190   0.06832   0.00000  Uiso   1.00
H113   H     0.25790   0.14384   0.21416   0.00000  Uiso   1.00
H114   H     0.24193   0.14378   0.11922   0.00000  Uiso   1.00
H115   H     0.24199   0.35620   0.21413   0.00000  Uiso   1.00
H116   H     0.36342   0.17081   0.05704   0.00000  Uiso   1.00
N117   N    -0.00000   0.25000   0.28402   0.00000  Uiso   1.00
N118   N     0.00000   0.25000   0.04931   0.00000  Uiso   1.00
N119   N     0.25000  -0.00000   0.28402   0.00000  Uiso   1.00
N120   N     0.25000  -0.00000   0.04931   0.00000  Uiso   1.00
O121   O     0.04508   0.20491   0.20625   0.00000  Uiso   1.00
O122   O     0.20491   0.04509   0.12709   0.00000  Uiso   1.00
O123   O     0.20491   0.04509   0.20625   0.00000  Uiso   1.00
O124   O     0.29508   0.45491   0.12709   0.00000  Uiso   1.00
O125   O     0.20491   0.45491   0.12709   0.00000  Uiso   1.00
O126   O     0.29508   0.04509   0.20625   0.00000  Uiso   1.00
O127   O     0.29508   0.04509   0.12709   0.00000  Uiso   1.00
O128   O     0.20491   0.45491   0.20625   0.00000  Uiso   1.00
O129   O     0.47530   0.11149   0.03636   0.00000  Uiso   1.00
O130   O     0.04579   0.12834   0.04488   0.00000  Uiso   1.00
O131   O     0.49953   0.13987   0.11258   0.00000  Uiso   1.00
O132   O     0.45491   0.29509   0.12709   0.00000  Uiso   1.00
O133   O     0.47530   0.38851   0.29697   0.00000  Uiso   1.00
O134   O     0.04579   0.37166   0.28846   0.00000  Uiso   1.00
O135   O     0.49953   0.36013   0.22075   0.00000  Uiso   1.00
O136   O     0.02472   0.38850   0.03639   0.00000  Uiso   1.00
O137   O     0.45422   0.37167   0.04489   0.00000  Uiso   1.00
O138   O     0.00048   0.36013   0.11260   0.00000  Uiso   1.00
O139   O     0.02471   0.11149   0.29695   0.00000  Uiso   1.00
O140   O     0.45422   0.12833   0.28844   0.00000  Uiso   1.00
O141   O     0.00048   0.13987   0.22073   0.00000  Uiso   1.00
O142   O     0.22531   0.36148   0.03637   0.00000  Uiso   1.00
O143   O     0.45491   0.29509   0.20625   0.00000  Uiso   1.00
O144   O     0.29580   0.37835   0.04487   0.00000  Uiso   1.00
O145   O     0.24952   0.38987   0.11258   0.00000  Uiso   1.00
O146   O     0.22526   0.13849   0.29696   0.00000  Uiso   1.00
O147   O     0.29576   0.12169   0.28847   0.00000  Uiso   1.00
O148   O     0.24952   0.11013   0.22075   0.00000  Uiso   1.00
O149   O     0.27471   0.13851   0.03639   0.00000  Uiso   1.00
O150   O     0.20422   0.12167   0.04489   0.00000  Uiso   1.00
O151   O     0.25048   0.11013   0.11260   0.00000  Uiso   1.00
O152   O     0.27473   0.36150   0.29694   0.00000  Uiso   1.00
O153   O     0.20423   0.37832   0.28845   0.00000  Uiso   1.00
O154   O     0.04508   0.20491   0.12709   0.00000  Uiso   1.00
O155   O     0.25048   0.38987   0.22073   0.00000  Uiso   1.00
O156   O     0.45491   0.20491   0.12709   0.00000  Uiso   1.00
O157   O     0.04508   0.29509   0.20625   0.00000  Uiso   1.00
O158   O     0.04508   0.29509   0.12709   0.00000  Uiso   1.00
O159   O     0.45491   0.20491   0.20625   0.00000  Uiso   1.00
O160   O     0.29508   0.45491   0.20625   0.00000  Uiso   1.00
S161   S     0.00485   0.14700   0.05526   0.00000  Uiso   1.00
S162   S     0.00486   0.35300   0.27807   0.00000  Uiso   1.00
S163   S     0.49515   0.35300   0.05528   0.00000  Uiso   1.00
S164   S     0.49515   0.14700   0.27805   0.00000  Uiso   1.00
S165   S     0.25486   0.39700   0.05526   0.00000  Uiso   1.00
S166   S     0.25484   0.10300   0.27807   0.00000  Uiso   1.00
S167   S     0.24515   0.10300   0.05528   0.00000  Uiso   1.00
S168   S     0.24516   0.39700   0.27805   0.00000  Uiso   1.00
C169   C     0.56192   0.19417   0.16677   0.00000  Uiso   1.00
C170   C     0.50030   0.29395   0.30807   0.00000  Uiso   1.00
C171   C     0.99970   0.29395   0.02527   0.00000  Uiso   1.00
C172   C     0.99970   0.20605   0.30807   0.00000  Uiso   1.00
C173   C     0.75030   0.45605   0.02526   0.00000  Uiso   1.00
C174   C     0.75030   0.04395   0.30807   0.00000  Uiso   1.00
C175   C     0.74970   0.04395   0.02527   0.00000  Uiso   1.00
C176   C     0.74970   0.45605   0.30807   0.00000  Uiso   1.00
C177   C     0.88673   0.14598   0.12332   0.00000  Uiso   1.00
C178   C     0.61463   0.35304   0.20792   0.00000  Uiso   1.00
C179   C     0.61329   0.35399   0.12332   0.00000  Uiso   1.00
C180   C     0.93808   0.30583   0.16677   0.00000  Uiso   1.00
C181   C     0.88537   0.14697   0.20791   0.00000  Uiso   1.00
C182   C     0.61328   0.14600   0.21001   0.00000  Uiso   1.00
C183   C     0.88538   0.35304   0.12542   0.00000  Uiso   1.00
C184   C     0.88673   0.35402   0.21001   0.00000  Uiso   1.00
C185   C     0.61462   0.14695   0.12541   0.00000  Uiso   1.00
C186   C     0.63672   0.39599   0.12332   0.00000  Uiso   1.00
C187   C     0.86461   0.10307   0.20793   0.00000  Uiso   1.00
C188   C     0.86329   0.10397   0.12333   0.00000  Uiso   1.00
C189   C     0.63539   0.39694   0.20792   0.00000  Uiso   1.00
C190   C     0.86329   0.39603   0.21001   0.00000  Uiso   1.00
C191   C     0.93808   0.19417   0.16656   0.00000  Uiso   1.00
C192   C     0.63538   0.10305   0.12541   0.00000  Uiso   1.00
C193   C     0.63671   0.10399   0.21001   0.00000  Uiso   1.00
C194   C     0.86462   0.39694   0.12541   0.00000  Uiso   1.00
C195   C     0.59834   0.33594   0.16590   0.00000  Uiso   1.00
C196   C     0.90167   0.16405   0.16589   0.00000  Uiso   1.00
C197   C     0.90167   0.33595   0.16744   0.00000  Uiso   1.00
C198   C     0.59833   0.16405   0.16743   0.00000  Uiso   1.00
C199   C     0.84833   0.08594   0.16591   0.00000  Uiso   1.00
C200   C     0.65167   0.41405   0.16590   0.00000  Uiso   1.00
C201   C     0.65167   0.08594   0.16743   0.00000  Uiso   1.00
C202   C     0.56192   0.30583   0.16657   0.00000  Uiso   1.00
C203   C     0.84834   0.41406   0.16743   0.00000  Uiso   1.00
C204   C     0.89075   0.17421   0.07842   0.00000  Uiso   1.00
C205   C     0.61942   0.31950   0.24918   0.00000  Uiso   1.00
C206   C     0.60926   0.32574   0.07843   0.00000  Uiso   1.00
C207   C     0.88057   0.18054   0.24915   0.00000  Uiso   1.00
C208   C     0.60926   0.17424   0.25491   0.00000  Uiso   1.00
C209   C     0.88058   0.31949   0.08417   0.00000  Uiso   1.00
C210   C     0.89075   0.32579   0.25492   0.00000  Uiso   1.00
C211   C     0.61942   0.18049   0.08416   0.00000  Uiso   1.00
C212   C     0.64075   0.42423   0.07843   0.00000  Uiso   1.00
C213   C     0.81192   0.44417   0.16677   0.00000  Uiso   1.00
C214   C     0.86939   0.06956   0.24921   0.00000  Uiso   1.00
C215   C     0.85927   0.07572   0.07844   0.00000  Uiso   1.00
C216   C     0.63059   0.43048   0.24918   0.00000  Uiso   1.00
C217   C     0.85927   0.42428   0.25490   0.00000  Uiso   1.00
C218   C     0.63059   0.06950   0.08415   0.00000  Uiso   1.00
C219   C     0.64073   0.07575   0.25490   0.00000  Uiso   1.00
C220   C     0.86941   0.43047   0.08414   0.00000  Uiso   1.00
C221   C     0.68808   0.05583   0.16677   0.00000  Uiso   1.00
C222   C     0.68808   0.44417   0.16656   0.00000  Uiso   1.00
C223   C     0.81192   0.05583   0.16657   0.00000  Uiso   1.00
C224   C     0.50030   0.20605   0.02526   0.00000  Uiso   1.00
Cu225  Cu    0.50000   0.25000   0.21355   0.00000  Uiso   1.00
Cu226  Cu    0.50000   0.25000   0.11978   0.00000  Uiso   1.00
Cu227  Cu    0.75000  -0.00000   0.21355   0.00000  Uiso   1.00
Cu228  Cu    0.75000  -0.00000   0.11978   0.00000  Uiso   1.00
H229   H     0.50800   0.10619   0.11918   0.00000  Uiso   1.00
H230   H     0.89408   0.21343   0.08501   0.00000  Uiso   1.00
H231   H     0.91631   0.16100   0.05798   0.00000  Uiso   1.00
H232   H     0.59112   0.30812   0.26503   0.00000  Uiso   1.00
H233   H     0.63583   0.28685   0.23762   0.00000  Uiso   1.00
H234   H     0.63743   0.33601   0.27717   0.00000  Uiso   1.00
H235   H     0.63661   0.32912   0.05706   0.00000  Uiso   1.00
H236   H     0.60593   0.28652   0.08503   0.00000  Uiso   1.00
H237   H     0.58371   0.33895   0.05798   0.00000  Uiso   1.00
H238   H     0.90888   0.19187   0.26504   0.00000  Uiso   1.00
H239   H     0.86422   0.21323   0.23756   0.00000  Uiso   1.00
H240   H     0.50795   0.39383   0.21416   0.00000  Uiso   1.00
H241   H     0.86250   0.16408   0.27712   0.00000  Uiso   1.00
H242   H     0.63661   0.17087   0.27627   0.00000  Uiso   1.00
H243   H     0.60592   0.21346   0.24831   0.00000  Uiso   1.00
H244   H     0.58372   0.16102   0.27536   0.00000  Uiso   1.00
H245   H     0.90889   0.30814   0.06829   0.00000  Uiso   1.00
H246   H     0.86420   0.28681   0.09573   0.00000  Uiso   1.00
H247   H     0.86254   0.33597   0.05619   0.00000  Uiso   1.00
H248   H     0.86341   0.32918   0.27628   0.00000  Uiso   1.00
H249   H     0.89410   0.28657   0.24833   0.00000  Uiso   1.00
H250   H     0.91630   0.33902   0.27536   0.00000  Uiso   1.00
H251   H     0.99201   0.39381   0.11920   0.00000  Uiso   1.00
H252   H     0.59112   0.19188   0.06831   0.00000  Uiso   1.00
H253   H     0.63585   0.21313   0.09571   0.00000  Uiso   1.00
H254   H     0.63741   0.16397   0.05615   0.00000  Uiso   1.00
H255   H     0.61341   0.42083   0.05705   0.00000  Uiso   1.00
H256   H     0.64407   0.46345   0.08503   0.00000  Uiso   1.00
H257   H     0.66631   0.41102   0.05799   0.00000  Uiso   1.00
H258   H     0.84108   0.05815   0.26502   0.00000  Uiso   1.00
H259   H     0.88585   0.03692   0.23771   0.00000  Uiso   1.00
H260   H     0.88734   0.08612   0.27724   0.00000  Uiso   1.00
H261   H     0.88660   0.07912   0.05705   0.00000  Uiso   1.00
H262   H     0.99201   0.10619   0.21413   0.00000  Uiso   1.00
H263   H     0.85595   0.03650   0.08505   0.00000  Uiso   1.00
H264   H     0.83370   0.08892   0.05800   0.00000  Uiso   1.00
H265   H     0.61417   0.46313   0.23764   0.00000  Uiso   1.00
H266   H     0.61259   0.41397   0.27718   0.00000  Uiso   1.00
H267   H     0.65889   0.44187   0.26503   0.00000  Uiso   1.00
H268   H     0.88661   0.42090   0.27627   0.00000  Uiso   1.00
H269   H     0.85594   0.46350   0.24829   0.00000  Uiso   1.00
H270   H     0.83372   0.41108   0.27534   0.00000  Uiso   1.00
H271   H     0.61417   0.03685   0.09570   0.00000  Uiso   1.00
H272   H     0.61258   0.08601   0.05615   0.00000  Uiso   1.00
H273   H     0.75826   0.35631   0.11923   0.00000  Uiso   1.00
H274   H     0.65889   0.05812   0.06830   0.00000  Uiso   1.00
H275   H     0.61339   0.07913   0.27626   0.00000  Uiso   1.00
H276   H     0.64406   0.03653   0.24829   0.00000  Uiso   1.00
H277   H     0.66628   0.08895   0.27535   0.00000  Uiso   1.00
H278   H     0.88588   0.46310   0.09568   0.00000  Uiso   1.00
H279   H     0.88738   0.41393   0.05613   0.00000  Uiso   1.00
H280   H     0.84112   0.44190   0.06832   0.00000  Uiso   1.00
H281   H     0.75790   0.14384   0.21416   0.00000  Uiso   1.00
H282   H     0.74193   0.14378   0.11922   0.00000  Uiso   1.00
H283   H     0.74199   0.35620   0.21413   0.00000  Uiso   1.00
H284   H     0.86342   0.17081   0.05704   0.00000  Uiso   1.00
N285   N     0.50000   0.25000   0.28402   0.00000  Uiso   1.00
N286   N     0.50000   0.25000   0.04931   0.00000  Uiso   1.00
N287   N     0.75000  -0.00000   0.28402   0.00000  Uiso   1.00
N288   N     0.75000  -0.00000   0.04931   0.00000  Uiso   1.00
O289   O     0.54508   0.20491   0.20625   0.00000  Uiso   1.00
O290   O     0.70491   0.04509   0.12709   0.00000  Uiso   1.00
O291   O     0.70491   0.04509   0.20625   0.00000  Uiso   1.00
O292   O     0.79508   0.45491   0.12709   0.00000  Uiso   1.00
O293   O     0.70491   0.45491   0.12709   0.00000  Uiso   1.00
O294   O     0.79508   0.04509   0.20625   0.00000  Uiso   1.00
O295   O     0.79508   0.04509   0.12709   0.00000  Uiso   1.00
O296   O     0.70491   0.45491   0.20625   0.00000  Uiso   1.00
O297   O     0.97530   0.11149   0.03636   0.00000  Uiso   1.00
O298   O     0.54579   0.12834   0.04488   0.00000  Uiso   1.00
O299   O     0.99953   0.13987   0.11258   0.00000  Uiso   1.00
O300   O     0.95491   0.29509   0.12709   0.00000  Uiso   1.00
O301   O     0.97530   0.38851   0.29697   0.00000  Uiso   1.00
O302   O     0.54579   0.37166   0.28846   0.00000  Uiso   1.00
O303   O     0.99953   0.36013   0.22075   0.00000  Uiso   1.00
O304   O     0.52472   0.38850   0.03639   0.00000  Uiso   1.00
O305   O     0.95422   0.37167   0.04489   0.00000  Uiso   1.00
O306   O     0.50048   0.36013   0.11260   0.00000  Uiso   1.00
O307   O     0.52471   0.11149   0.29695   0.00000  Uiso   1.00
O308   O     0.95422   0.12833   0.28844   0.00000  Uiso   1.00
O309   O     0.50048   0.13987   0.22073   0.00000  Uiso   1.00
O310   O     0.72531   0.36148   0.03637   0.00000  Uiso   1.00
O311   O     0.95491   0.29509   0.20625   0.00000  Uiso   1.00
O312   O     0.79580   0.37835   0.04487   0.00000  Uiso   1.00
O313   O     0.74952   0.38987   0.11258   0.00000  Uiso   1.00
O314   O     0.72526   0.13849   0.29696   0.00000  Uiso   1.00
O315   O     0.79576   0.12169   0.28847   0.00000  Uiso   1.00
O316   O     0.74952   0.11013   0.22075   0.00000  Uiso   1.00
O317   O     0.77471   0.13851   0.03639   0.00000  Uiso   1.00
O318   O     0.70422   0.12167   0.04489   0.00000  Uiso   1.00
O319   O     0.75048   0.11013   0.11260   0.00000  Uiso   1.00
O320   O     0.77473   0.36150   0.29694   0.00000  Uiso   1.00
O321   O     0.70423   0.37832   0.28845   0.00000  Uiso   1.00
O322   O     0.54508   0.20491   0.12709   0.00000  Uiso   1.00
O323   O     0.75048   0.38987   0.22073   0.00000  Uiso   1.00
O324   O     0.95491   0.20491   0.12709   0.00000  Uiso   1.00
O325   O     0.54508   0.29509   0.20625   0.00000  Uiso   1.00
O326   O     0.54508   0.29509   0.12709   0.00000  Uiso   1.00
O327   O     0.95491   0.20491   0.20625   0.00000  Uiso   1.00
O328   O     0.79508   0.45491   0.20625   0.00000  Uiso   1.00
S329   S     0.50485   0.14700   0.05526   0.00000  Uiso   1.00
S330   S     0.50486   0.35300   0.27807   0.00000  Uiso   1.00
S331   S     0.99515   0.35300   0.05528   0.00000  Uiso   1.00
S332   S     0.99515   0.14700   0.27805   0.00000  Uiso   1.00
S333   S     0.75486   0.39700   0.05526   0.00000  Uiso   1.00
S334   S     0.75484   0.10300   0.27807   0.00000  Uiso   1.00
S335   S     0.74515   0.10300   0.05528   0.00000  Uiso   1.00
S336   S     0.74516   0.39700   0.27805   0.00000  Uiso   1.00
C337   C     0.06192   0.69417   0.16677   0.00000  Uiso   1.00
C338   C     0.00030   0.79395   0.30807   0.00000  Uiso   1.00
C339   C     0.49970   0.79395   0.02527   0.00000  Uiso   1.00
C340   C     0.49970   0.70605   0.30807   0.00000  Uiso   1.00
C341   C     0.25030   0.95605   0.02526   0.00000  Uiso   1.00
C342   C     0.25030   0.54395   0.30807   0.00000  Uiso   1.00
C343   C     0.24970   0.54395   0.02527   0.00000  Uiso   1.00
C344   C     0.24970   0.95605   0.30807   0.00000  Uiso   1.00
C345   C     0.38673   0.64598   0.12332   0.00000  Uiso   1.00
C346   C     0.11463   0.85304   0.20792   0.00000  Uiso   1.00
C347   C     0.11329   0.85399   0.12332   0.00000  Uiso   1.00
C348   C     0.43808   0.80583   0.16677   0.00000  Uiso   1.00
C349   C     0.38537   0.64697   0.20791   0.00000  Uiso   1.00
C350   C     0.11328   0.64600   0.21001   0.00000  Uiso   1.00
C351   C     0.38538   0.85304   0.12542   0.00000  Uiso   1.00
C352   C     0.38673   0.85402   0.21001   0.00000  Uiso   1.00
C353   C     0.11462   0.64695   0.12541   0.00000  Uiso   1.00
C354   C     0.13672   0.89599   0.12332   0.00000  Uiso   1.00
C355   C     0.36461   0.60307   0.20793   0.00000  Uiso   1.00
C356   C     0.36329   0.60397   0.12333   0.00000  Uiso   1.00
C357   C     0.13539   0.89694   0.20792   0.00000  Uiso   1.00
C358   C     0.36329   0.89603   0.21001   0.00000  Uiso   1.00
C359   C     0.43808   0.69417   0.16656   0.00000  Uiso   1.00
C360   C     0.13538   0.60305   0.12541   0.00000  Uiso   1.00
C361   C     0.13671   0.60399   0.21001   0.00000  Uiso   1.00
C362   C     0.36462   0.89694   0.12541   0.00000  Uiso   1.00
C363   C     0.09834   0.83594   0.16590   0.00000  Uiso   1.00
C364   C     0.40167   0.66405   0.16589   0.00000  Uiso   1.00
C365   C     0.40167   0.83595   0.16744   0.00000  Uiso   1.00
C366   C     0.09833   0.66405   0.16743   0.00000  Uiso   1.00
C367   C     0.34833   0.58594   0.16591   0.00000  Uiso   1.00
C368   C     0.15167   0.91405   0.16590   0.00000  Uiso   1.00
C369   C     0.15167   0.58594   0.16743   0.00000  Uiso   1.00
C370   C     0.06192   0.80583   0.16657   0.00000  Uiso   1.00
C371   C     0.34834   0.91406   0.16743   0.00000  Uiso   1.00
C372   C     0.39075   0.67421   0.07842   0.00000  Uiso   1.00
C373   C     0.11942   0.81950   0.24918   0.00000  Uiso   1.00
C374   C     0.10926   0.82574   0.07843   0.00000  Uiso   1.00
C375   C     0.38057   0.68054   0.24915   0.00000  Uiso   1.00
C376   C     0.10926   0.67424   0.25491   0.00000  Uiso   1.00
C377   C     0.38058   0.81949   0.08417   0.00000  Uiso   1.00
C378   C     0.39075   0.82579   0.25492   0.00000  Uiso   1.00
C379   C     0.11942   0.68049   0.08416   0.00000  Uiso   1.00
C380   C     0.14075   0.92423   0.07843   0.00000  Uiso   1.00
C381   C     0.31192   0.94417   0.16677   0.00000  Uiso   1.00
C382   C     0.36939   0.56956   0.24921   0.00000  Uiso   1.00
C383   C     0.35927   0.57572   0.07844   0.00000  Uiso   1.00
C384   C     0.13059   0.93048   0.24918   0.00000  Uiso   1.00
C385   C     0.35927   0.92428   0.25490   0.00000  Uiso   1.00
C386   C     0.13059   0.56950   0.08415   0.00000  Uiso   1.00
C387   C     0.14073   0.57575   0.25490   0.00000  Uiso   1.00
C388   C     0.36941   0.93047   0.08414   0.00000  Uiso   1.00
C389   C     0.18808   0.55583   0.16677   0.00000  Uiso   1.00
C390   C     0.18808   0.94417   0.16656   0.00000  Uiso   1.00
C391   C     0.31192   0.55583   0.16657   0.00000  Uiso   1.00
C392   C     0.00030   0.70605   0.02526   0.00000  Uiso   1.00
Cu393  Cu    0.00000   0.75000   0.21355   0.00000  Uiso   1.00
Cu394  Cu   -0.00000   0.75000   0.11978   0.00000  Uiso   1.00
Cu395  Cu    0.25000   0.50000   0.21355   0.00000  Uiso   1.00
Cu396  Cu    0.25000   0.50000   0.11978   0.00000  Uiso   1.00
H397   H     0.00800   0.60619   0.11918   0.00000  Uiso   1.00
H398   H     0.39408   0.71343   0.08501   0.00000  Uiso   1.00
H399   H     0.41631   0.66100   0.05798   0.00000  Uiso   1.00
H400   H     0.09112   0.80812   0.26503   0.00000  Uiso   1.00
H401   H     0.13583   0.78685   0.23762   0.00000  Uiso   1.00
H402   H     0.13743   0.83601   0.27717   0.00000  Uiso   1.00
H403   H     0.13661   0.82912   0.05706   0.00000  Uiso   1.00
H404   H     0.10593   0.78652   0.08503   0.00000  Uiso   1.00
H405   H     0.08371   0.83895   0.05798   0.00000  Uiso   1.00
H406   H     0.40888   0.69187   0.26504   0.00000  Uiso   1.00
H407   H     0.36422   0.71323   0.23756   0.00000  Uiso   1.00
H408   H     0.00795   0.89383   0.21416   0.00000  Uiso   1.00
H409   H     0.36250   0.66408   0.27712   0.00000  Uiso   1.00
H410   H     0.13661   0.67087   0.27627   0.00000  Uiso   1.00
H411   H     0.10592   0.71346   0.24831   0.00000  Uiso   1.00
H412   H     0.08372   0.66102   0.27536   0.00000  Uiso   1.00
H413   H     0.40889   0.80814   0.06829   0.00000  Uiso   1.00
H414   H     0.36420   0.78681   0.09573   0.00000  Uiso   1.00
H415   H     0.36254   0.83597   0.05619   0.00000  Uiso   1.00
H416   H     0.36341   0.82918   0.27628   0.00000  Uiso   1.00
H417   H     0.39410   0.78657   0.24833   0.00000  Uiso   1.00
H418   H     0.41630   0.83902   0.27536   0.00000  Uiso   1.00
H419   H     0.49201   0.89381   0.11920   0.00000  Uiso   1.00
H420   H     0.09112   0.69188   0.06831   0.00000  Uiso   1.00
H421   H     0.13585   0.71313   0.09571   0.00000  Uiso   1.00
H422   H     0.13741   0.66397   0.05615   0.00000  Uiso   1.00
H423   H     0.11341   0.92083   0.05705   0.00000  Uiso   1.00
H424   H     0.14407   0.96345   0.08503   0.00000  Uiso   1.00
H425   H     0.16631   0.91102   0.05799   0.00000  Uiso   1.00
H426   H     0.34108   0.55815   0.26502   0.00000  Uiso   1.00
H427   H     0.38585   0.53692   0.23771   0.00000  Uiso   1.00
H428   H     0.38734   0.58612   0.27724   0.00000  Uiso   1.00
H429   H     0.38660   0.57912   0.05705   0.00000  Uiso   1.00
H430   H     0.49201   0.60619   0.21413   0.00000  Uiso   1.00
H431   H     0.35595   0.53650   0.08505   0.00000  Uiso   1.00
H432   H     0.33370   0.58892   0.05800   0.00000  Uiso   1.00
H433   H     0.11417   0.96313   0.23764   0.00000  Uiso   1.00
H434   H     0.11259   0.91397   0.27718   0.00000  Uiso   1.00
H435   H     0.15889   0.94187   0.26503   0.00000  Uiso   1.00
H436   H     0.38661   0.92090   0.27627   0.00000  Uiso   1.00
H437   H     0.35594   0.96350   0.24829   0.00000  Uiso   1.00
H438   H     0.33372   0.91108   0.27534   0.00000  Uiso   1.00
H439   H     0.11417   0.53685   0.09570   0.00000  Uiso   1.00
H440   H     0.11258   0.58601   0.05615   0.00000  Uiso   1.00
H441   H     0.25826   0.85631   0.11923   0.00000  Uiso   1.00
H442   H     0.15889   0.55812   0.06830   0.00000  Uiso   1.00
H443   H     0.11339   0.57913   0.27626   0.00000  Uiso   1.00
H444   H     0.14406   0.53653   0.24829   0.00000  Uiso   1.00
H445   H     0.16628   0.58895   0.27535   0.00000  Uiso   1.00
H446   H     0.38588   0.96310   0.09568   0.00000  Uiso   1.00
H447   H     0.38738   0.91393   0.05613   0.00000  Uiso   1.00
H448   H     0.34112   0.94190   0.06832   0.00000  Uiso   1.00
H449   H     0.25790   0.64384   0.21416   0.00000  Uiso   1.00
H450   H     0.24193   0.64378   0.11922   0.00000  Uiso   1.00
H451   H     0.24199   0.85620   0.21413   0.00000  Uiso   1.00
H452   H     0.36342   0.67081   0.05704   0.00000  Uiso   1.00
N453   N    -0.00000   0.75000   0.28402   0.00000  Uiso   1.00
N454   N     0.00000   0.75000   0.04931   0.00000  Uiso   1.00
N455   N     0.25000   0.50000   0.28402   0.00000  Uiso   1.00
N456   N     0.25000   0.50000   0.04931   0.00000  Uiso   1.00
O457   O     0.04508   0.70491   0.20625   0.00000  Uiso   1.00
O458   O     0.20491   0.54509   0.12709   0.00000  Uiso   1.00
O459   O     0.20491   0.54509   0.20625   0.00000  Uiso   1.00
O460   O     0.29508   0.95491   0.12709   0.00000  Uiso   1.00
O461   O     0.20491   0.95491   0.12709   0.00000  Uiso   1.00
O462   O     0.29508   0.54509   0.20625   0.00000  Uiso   1.00
O463   O     0.29508   0.54509   0.12709   0.00000  Uiso   1.00
O464   O     0.20491   0.95491   0.20625   0.00000  Uiso   1.00
O465   O     0.47530   0.61149   0.03636   0.00000  Uiso   1.00
O466   O     0.04579   0.62834   0.04488   0.00000  Uiso   1.00
O467   O     0.49953   0.63987   0.11258   0.00000  Uiso   1.00
O468   O     0.45491   0.79509   0.12709   0.00000  Uiso   1.00
O469   O     0.47530   0.88851   0.29697   0.00000  Uiso   1.00
O470   O     0.04579   0.87166   0.28846   0.00000  Uiso   1.00
O471   O     0.49953   0.86013   0.22075   0.00000  Uiso   1.00
O472   O     0.02472   0.88850   0.03639   0.00000  Uiso   1.00
O473   O     0.45422   0.87167   0.04489   0.00000  Uiso   1.00
O474   O     0.00048   0.86013   0.11260   0.00000  Uiso   1.00
O475   O     0.02471   0.61149   0.29695   0.00000  Uiso   1.00
O476   O     0.45422   0.62833   0.28844   0.00000  Uiso   1.00
O477   O     0.00048   0.63987   0.22073   0.00000  Uiso   1.00
O478   O     0.22531   0.86148   0.03637   0.00000  Uiso   1.00
O479   O     0.45491   0.79509   0.20625   0.00000  Uiso   1.00
O480   O     0.29580   0.87835   0.04487   0.00000  Uiso   1.00
O481   O     0.24952   0.88987   0.11258   0.00000  Uiso   1.00
O482   O     0.22526   0.63849   0.29696   0.00000  Uiso   1.00
O483   O     0.29576   0.62169   0.28847   0.00000  Uiso   1.00
O484   O     0.24952   0.61013   0.22075   0.00000  Uiso   1.00
O485   O     0.27471   0.63851   0.03639   0.00000  Uiso   1.00
O486   O     0.20422   0.62167   0.04489   0.00000  Uiso   1.00
O487   O     0.25048   0.61013   0.11260   0.00000  Uiso   1.00
O488   O     0.27473   0.86150   0.29694   0.00000  Uiso   1.00
O489   O     0.20423   0.87832   0.28845   0.00000  Uiso   1.00
O490   O     0.04508   0.70491   0.12709   0.00000  Uiso   1.00
O491   O     0.25048   0.88987   0.22073   0.00000  Uiso   1.00
O492   O     0.45491   0.70491   0.12709   0.00000  Uiso   1.00
O493   O     0.04508   0.79509   0.20625   0.00000  Uiso   1.00
O494   O     0.04508   0.79509   0.12709   0.00000  Uiso   1.00
O495   O     0.45491   0.70491   0.20625   0.00000  Uiso   1.00
O496   O     0.29508   0.95491   0.20625   0.00000  Uiso   1.00
S497   S     0.00485   0.64700   0.05526   0.00000  Uiso   1.00
S498   S     0.00486   0.85300   0.27807   0.00000  Uiso   1.00
S499   S     0.49515   0.85300   0.05528   0.00000  Uiso   1.00
S500   S     0.49515   0.64700   0.27805   0.00000  Uiso   1.00
S501   S     0.25486   0.89700   0.05526   0.00000  Uiso   1.00
S502   S     0.25484   0.60300   0.27807   0.00000  Uiso   1.00
S503   S     0.24515   0.60300   0.05528   0.00000  Uiso   1.00
S504   S     0.24516   0.89700   0.27805   0.00000  Uiso   1.00
C505   C     0.56192   0.69417   0.16677   0.00000  Uiso   1.00
C506   C     0.50030   0.79395   0.30807   0.00000  Uiso   1.00
C507   C     0.99970   0.79395   0.02527   0.00000  Uiso   1.00
C508   C     0.99970   0.70605   0.30807   0.00000  Uiso   1.00
C509   C     0.75030   0.95605   0.02526   0.00000  Uiso   1.00
C510   C     0.75030   0.54395   0.30807   0.00000  Uiso   1.00
C511   C     0.74970   0.54395   0.02527   0.00000  Uiso   1.00
C512   C     0.74970   0.95605   0.30807   0.00000  Uiso   1.00
C513   C     0.88673   0.64598   0.12332   0.00000  Uiso   1.00
C514   C     0.61463   0.85304   0.20792   0.00000  Uiso   1.00
C515   C     0.61329   0.85399   0.12332   0.00000  Uiso   1.00
C516   C     0.93808   0.80583   0.16677   0.00000  Uiso   1.00
C517   C     0.88537   0.64697   0.20791   0.00000  Uiso   1.00
C518   C     0.61328   0.64600   0.21001   0.00000  Uiso   1.00
C519   C     0.88538   0.85304   0.12542   0.00000  Uiso   1.00
C520   C     0.88673   0.85402   0.21001   0.00000  Uiso   1.00
C521   C     0.61462   0.64695   0.12541   0.00000  Uiso   1.00
C522   C     0.63672   0.89599   0.12332   0.00000  Uiso   1.00
C523   C     0.86461   0.60307   0.20793   0.00000  Uiso   1.00
C524   C     0.86329   0.60397   0.12333   0.00000  Uiso   1.00
C525   C     0.63539   0.89694   0.20792   0.00000  Uiso   1.00
C526   C     0.86329   0.89603   0.21001   0.00000  Uiso   1.00
C527   C     0.93808   0.69417   0.16656   0.00000  Uiso   1.00
C528   C     0.63538   0.60305   0.12541   0.00000  Uiso   1.00
C529   C     0.63671   0.60399   0.21001   0.00000  Uiso   1.00
C530   C     0.86462   0.89694   0.12541   0.00000  Uiso   1.00
C531   C     0.59834   0.83594   0.16590   0.00000  Uiso   1.00
C532   C     0.90167   0.66405   0.16589   0.00000  Uiso   1.00
C533   C     0.90167   0.83595   0.16744   0.00000  Uiso   1.00
C534   C     0.59833   0.66405   0.16743   0.00000  Uiso   1.00
C535   C     0.84833   0.58594   0.16591   0.00000  Uiso   1.00
C536   C     0.65167   0.91405   0.16590   0.00000  Uiso   1.00
C537   C     0.65167   0.58594   0.16743   0.00000  Uiso   1.00
C538   C     0.56192   0.80583   0.16657   0.00000  Uiso   1.00
C539   C     0.84834   0.91406   0.16743   0.00000  Uiso   1.00
C540   C     0.89075   0.67421   0.07842   0.00000  Uiso   1.00
C541   C     0.61942   0.81950   0.24918   0.00000  Uiso   1.00
C542   C     0.60926   0.82574   0.07843   0.00000  Uiso   1.00
C543   C     0.88057   0.68054   0.24915   0.00000  Uiso   1.00
C544   C     0.60926   0.67424   0.25491   0.00000  Uiso   1.00
C545   C     0.88058   0.81949   0.08417   0.00000  Uiso   1.00
C546   C     0.89075   0.82579   0.25492   0.00000  Uiso   1.00
C547   C     0.61942   0.68049   0.08416   0.00000  Uiso   1.00
C548   C     0.64075   0.92423   0.07843   0.00000  Uiso   1.00
C549   C     0.81192   0.94417   0.16677   0.00000  Uiso   1.00
C550   C     0.86939   0.56956   0.24921   0.00000  Uiso   1.00
C551   C     0.85927   0.57572   0.07844   0.00000  Uiso   1.00
C552   C     0.63059   0.93048   0.24918   0.00000  Uiso   1.00
C553   C     0.85927   0.92428   0.25490   0.00000  Uiso   1.00
C554   C     0.63059   0.56950   0.08415   0.00000  Uiso   1.00
C555   C     0.64073   0.57575   0.25490   0.00000  Uiso   1.00
C556   C     0.86941   0.93047   0.08414   0.00000  Uiso   1.00
C557   C     0.68808   0.55583   0.16677   0.00000  Uiso   1.00
C558   C     0.68808   0.94417   0.16656   0.00000  Uiso   1.00
C559   C     0.81192   0.55583   0.16657   0.00000  Uiso   1.00
C560   C     0.50030   0.70605   0.02526   0.00000  Uiso   1.00
Cu561  Cu    0.50000   0.75000   0.21355   0.00000  Uiso   1.00
Cu562  Cu    0.50000   0.75000   0.11978   0.00000  Uiso   1.00
Cu563  Cu    0.75000   0.50000   0.21355   0.00000  Uiso   1.00
Cu564  Cu    0.75000   0.50000   0.11978   0.00000  Uiso   1.00
H565   H     0.50800   0.60619   0.11918   0.00000  Uiso   1.00
H566   H     0.89408   0.71343   0.08501   0.00000  Uiso   1.00
H567   H     0.91631   0.66100   0.05798   0.00000  Uiso   1.00
H568   H     0.59112   0.80812   0.26503   0.00000  Uiso   1.00
H569   H     0.63583   0.78685   0.23762   0.00000  Uiso   1.00
H570   H     0.63743   0.83601   0.27717   0.00000  Uiso   1.00
H571   H     0.63661   0.82912   0.05706   0.00000  Uiso   1.00
H572   H     0.60593   0.78652   0.08503   0.00000  Uiso   1.00
H573   H     0.58371   0.83895   0.05798   0.00000  Uiso   1.00
H574   H     0.90888   0.69187   0.26504   0.00000  Uiso   1.00
H575   H     0.86422   0.71323   0.23756   0.00000  Uiso   1.00
H576   H     0.50795   0.89383   0.21416   0.00000  Uiso   1.00
H577   H     0.86250   0.66408   0.27712   0.00000  Uiso   1.00
H578   H     0.63661   0.67087   0.27627   0.00000  Uiso   1.00
H579   H     0.60592   0.71346   0.24831   0.00000  Uiso   1.00
H580   H     0.58372   0.66102   0.27536   0.00000  Uiso   1.00
H581   H     0.90889   0.80814   0.06829   0.00000  Uiso   1.00
H582   H     0.86420   0.78681   0.09573   0.00000  Uiso   1.00
H583   H     0.86254   0.83597   0.05619   0.00000  Uiso   1.00
H584   H     0.86341   0.82918   0.27628   0.00000  Uiso   1.00
H585   H     0.89410   0.78657   0.24833   0.00000  Uiso   1.00
H586   H     0.91630   0.83902   0.27536   0.00000  Uiso   1.00
H587   H     0.99201   0.89381   0.11920   0.00000  Uiso   1.00
H588   H     0.59112   0.69188   0.06831   0.00000  Uiso   1.00
H589   H     0.63585   0.71313   0.09571   0.00000  Uiso   1.00
H590   H     0.63741   0.66397   0.05615   0.00000  Uiso   1.00
H591   H     0.61341   0.92083   0.05705   0.00000  Uiso   1.00
H592   H     0.64407   0.96345   0.08503   0.00000  Uiso   1.00
H593   H     0.66631   0.91102   0.05799   0.00000  Uiso   1.00
H594   H     0.84108   0.55815   0.26502   0.00000  Uiso   1.00
H595   H     0.88585   0.53692   0.23771   0.00000  Uiso   1.00
H596   H     0.88734   0.58612   0.27724   0.00000  Uiso   1.00
H597   H     0.88660   0.57912   0.05705   0.00000  Uiso   1.00
H598   H     0.99201   0.60619   0.21413   0.00000  Uiso   1.00
H599   H     0.85595   0.53650   0.08505   0.00000  Uiso   1.00
H600   H     0.83370   0.58892   0.05800   0.00000  Uiso   1.00
H601   H     0.61417   0.96313   0.23764   0.00000  Uiso   1.00
H602   H     0.61259   0.91397   0.27718   0.00000  Uiso   1.00
H603   H     0.65889   0.94187   0.26503   0.00000  Uiso   1.00
H604   H     0.88661   0.92090   0.27627   0.00000  Uiso   1.00
H605   H     0.85594   0.96350   0.24829   0.00000  Uiso   1.00
H606   H     0.83372   0.91108   0.27534   0.00000  Uiso   1.00
H607   H     0.61417   0.53685   0.09570   0.00000  Uiso   1.00
H608   H     0.61258   0.58601   0.05615   0.00000  Uiso   1.00
H609   H     0.75826   0.85631   0.11923   0.00000  Uiso   1.00
H610   H     0.65889   0.55812   0.06830   0.00000  Uiso   1.00
H611   H     0.61339   0.57913   0.27626   0.00000  Uiso   1.00
H612   H     0.64406   0.53653   0.24829   0.00000  Uiso   1.00
H613   H     0.66628   0.58895   0.27535   0.00000  Uiso   1.00
H614   H     0.88588   0.96310   0.09568   0.00000  Uiso   1.00
H615   H     0.88738   0.91393   0.05613   0.00000  Uiso   1.00
H616   H     0.84112   0.94190   0.06832   0.00000  Uiso   1.00
H617   H     0.75790   0.64384   0.21416   0.00000  Uiso   1.00
H618   H     0.74193   0.64378   0.11922   0.00000  Uiso   1.00
H619   H     0.74199   0.85620   0.21413   0.00000  Uiso   1.00
H620   H     0.86342   0.67081   0.05704   0.00000  Uiso   1.00
N621   N     0.50000   0.75000   0.28402   0.00000  Uiso   1.00
N622   N     0.50000   0.75000   0.04931   0.00000  Uiso   1.00
N623   N     0.75000   0.50000   0.28402   0.00000  Uiso   1.00
N624   N     0.75000   0.50000   0.04931   0.00000  Uiso   1.00
O625   O     0.54508   0.70491   0.20625   0.00000  Uiso   1.00
O626   O     0.70491   0.54509   0.12709   0.00000  Uiso   1.00
O627   O     0.70491   0.54509   0.20625   0.00000  Uiso   1.00
O628   O     0.79508   0.95491   0.12709   0.00000  Uiso   1.00
O629   O     0.70491   0.95491   0.12709   0.00000  Uiso   1.00
O630   O     0.79508   0.54509   0.20625   0.00000  Uiso   1.00
O631   O     0.79508   0.54509   0.12709   0.00000  Uiso   1.00
O632   O     0.70491   0.95491   0.20625   0.00000  Uiso   1.00
O633   O     0.97530   0.61149   0.03636   0.00000  Uiso   1.00
O634   O     0.54579   0.62834   0.04488   0.00000  Uiso   1.00
O635   O     0.99953   0.63987   0.11258   0.00000  Uiso   1.00
O636   O     0.95491   0.79509   0.12709   0.00000  Uiso   1.00
O637   O     0.97530   0.88851   0.29697   0.00000  Uiso   1.00
O638   O     0.54579   0.87166   0.28846   0.00000  Uiso   1.00
O639   O     0.99953   0.86013   0.22075   0.00000  Uiso   1.00
O640   O     0.52472   0.88850   0.03639   0.00000  Uiso   1.00
O641   O     0.95422   0.87167   0.04489   0.00000  Uiso   1.00
O642   O     0.50048   0.86013   0.11260   0.00000  Uiso   1.00
O643   O     0.52471   0.61149   0.29695   0.00000  Uiso   1.00
O644   O     0.95422   0.62833   0.28844   0.00000  Uiso   1.00
O645   O     0.50048   0.63987   0.22073   0.00000  Uiso   1.00
O646   O     0.72531   0.86148   0.03637   0.00000  Uiso   1.00
O647   O     0.95491   0.79509   0.20625   0.00000  Uiso   1.00
O648   O     0.79580   0.87835   0.04487   0.00000  Uiso   1.00
O649   O     0.74952   0.88987   0.11258   0.00000  Uiso   1.00
O650   O     0.72526   0.63849   0.29696   0.00000  Uiso   1.00
O651   O     0.79576   0.62169   0.28847   0.00000  Uiso   1.00
O652   O     0.74952   0.61013   0.22075   0.00000  Uiso   1.00
O653   O     0.77471   0.63851   0.03639   0.00000  Uiso   1.00
O654   O     0.70422   0.62167   0.04489   0.00000  Uiso   1.00
O655   O     0.75048   0.61013   0.11260   0.00000  Uiso   1.00
O656   O     0.77473   0.86150   0.29694   0.00000  Uiso   1.00
O657   O     0.70423   0.87832   0.28845   0.00000  Uiso   1.00
O658   O     0.54508   0.70491   0.12709   0.00000  Uiso   1.00
O659   O     0.75048   0.88987   0.22073   0.00000  Uiso   1.00
O660   O     0.95491   0.70491   0.12709   0.00000  Uiso   1.00
O661   O     0.54508   0.79509   0.20625   0.00000  Uiso   1.00
O662   O     0.54508   0.79509   0.12709   0.00000  Uiso   1.00
O663   O     0.95491   0.70491   0.20625   0.00000  Uiso   1.00
O664   O     0.79508   0.95491   0.20625   0.00000  Uiso   1.00
S665   S     0.50485   0.64700   0.05526   0.00000  Uiso   1.00
S666   S     0.50486   0.85300   0.27807   0.00000  Uiso   1.00
S667   S     0.99515   0.85300   0.05528   0.00000  Uiso   1.00
S668   S     0.99515   0.64700   0.27805   0.00000  Uiso   1.00
S669   S     0.75486   0.89700   0.05526   0.00000  Uiso   1.00
S670   S     0.75484   0.60300   0.27807   0.00000  Uiso   1.00
S671   S     0.74515   0.60300   0.05528   0.00000  Uiso   1.00
S672   S     0.74516   0.89700   0.27805   0.00000  Uiso   1.00
C673   C     0.06192   0.19417   0.50010   0.00000  Uiso   1.00
C674   C     0.00030   0.29395   0.64141   0.00000  Uiso   1.00
C675   C     0.49970   0.29395   0.35860   0.00000  Uiso   1.00
C676   C     0.49970   0.20605   0.64140   0.00000  Uiso   1.00
C677   C     0.25030   0.45605   0.35859   0.00000  Uiso   1.00
C678   C     0.25030   0.04395   0.64141   0.00000  Uiso   1.00
C679   C     0.24970   0.04395   0.35860   0.00000  Uiso   1.00
C680   C     0.24970   0.45605   0.64140   0.00000  Uiso   1.00
C681   C     0.38673   0.14598   0.45665   0.00000  Uiso   1.00
C682   C     0.11463   0.35304   0.54125   0.00000  Uiso   1.00
C683   C     0.11329   0.35399   0.45666   0.00000  Uiso   1.00
C684   C     0.43808   0.30583   0.50010   0.00000  Uiso   1.00
C685   C     0.38537   0.14697   0.54125   0.00000  Uiso   1.00
C686   C     0.11328   0.14600   0.54334   0.00000  Uiso   1.00
C687   C     0.38538   0.35304   0.45875   0.00000  Uiso   1.00
C688   C     0.38673   0.35402   0.54335   0.00000  Uiso   1.00
C689   C     0.11462   0.14695   0.45875   0.00000  Uiso   1.00
C690   C     0.13672   0.39599   0.45666   0.00000  Uiso   1.00
C691   C     0.36461   0.10307   0.54126   0.00000  Uiso   1.00
C692   C     0.36329   0.10397   0.45666   0.00000  Uiso   1.00
C693   C     0.13539   0.39694   0.54125   0.00000  Uiso   1.00
C694   C     0.36329   0.39603   0.54334   0.00000  Uiso   1.00
C695   C     0.43808   0.19417   0.49990   0.00000  Uiso   1.00
C696   C     0.13538   0.10305   0.45875   0.00000  Uiso   1.00
C697   C     0.13671   0.10399   0.54334   0.00000  Uiso   1.00
C698   C     0.36462   0.39694   0.45874   0.00000  Uiso   1.00
C699   C     0.09834   0.33594   0.49924   0.00000  Uiso   1.00
C700   C     0.40167   0.16405   0.49923   0.00000  Uiso   1.00
C701   C     0.40167   0.33595   0.50077   0.00000  Uiso   1.00
C702   C     0.09833   0.16405   0.50076   0.00000  Uiso   1.00
C703   C     0.34833   0.08594   0.49924   0.00000  Uiso   1.00
C704   C     0.15167   0.41405   0.49923   0.00000  Uiso   1.00
C705   C     0.15167   0.08594   0.50076   0.00000  Uiso   1.00
C706   C     0.06192   0.30583   0.49990   0.00000  Uiso   1.00
C707   C     0.34834   0.41406   0.50076   0.00000  Uiso   1.00
C708   C     0.39075   0.17421   0.41175   0.00000  Uiso   1.00
C709   C     0.11942   0.31950   0.58251   0.00000  Uiso   1.00
C710   C     0.10926   0.32574   0.41176   0.00000  Uiso   1.00
C711   C     0.38057   0.18054   0.58248   0.00000  Uiso   1.00
C712   C     0.10926   0.17424   0.58824   0.00000  Uiso   1.00
C713   C     0.38058   0.31949   0.41750   0.00000  Uiso   1.00
C714   C     0.39075   0.32579   0.58825   0.00000  Uiso   1.00
C715   C     0.11942   0.18049   0.41749   0.00000  Uiso   1.00
C716   C     0.14075   0.42423   0.41176   0.00000  Uiso   1.00
C717   C     0.31192   0.44417   0.50010   0.00000  Uiso   1.00
C718   C     0.36939   0.06956   0.58254   0.00000  Uiso   1.00
C719   C     0.35927   0.07572   0.41177   0.00000  Uiso   1.00
C720   C     0.13059   0.43048   0.58252   0.00000  Uiso   1.00
C721   C     0.35927   0.42428   0.58823   0.00000  Uiso   1.00
C722   C     0.13059   0.06950   0.41749   0.00000  Uiso   1.00
C723   C     0.14073   0.07575   0.58823   0.00000  Uiso   1.00
C724   C     0.36941   0.43047   0.41748   0.00000  Uiso   1.00
C725   C     0.18808   0.05583   0.50010   0.00000  Uiso   1.00
C726   C     0.18808   0.44417   0.49990   0.00000  Uiso   1.00
C727   C     0.31192   0.05583   0.49990   0.00000  Uiso   1.00
C728   C     0.00030   0.20605   0.35859   0.00000  Uiso   1.00
Cu729  Cu    0.00000   0.25000   0.54689   0.00000  Uiso   1.00
Cu730  Cu   -0.00000   0.25000   0.45311   0.00000  Uiso   1.00
Cu731  Cu    0.25000  -0.00000   0.54689   0.00000  Uiso   1.00
Cu732  Cu    0.25000  -0.00000   0.45311   0.00000  Uiso   1.00
H733   H     0.00800   0.10619   0.45252   0.00000  Uiso   1.00
H734   H     0.39408   0.21343   0.41834   0.00000  Uiso   1.00
H735   H     0.41631   0.16100   0.39131   0.00000  Uiso   1.00
H736   H     0.09112   0.30812   0.59836   0.00000  Uiso   1.00
H737   H     0.13583   0.28685   0.57096   0.00000  Uiso   1.00
H738   H     0.13743   0.33601   0.61050   0.00000  Uiso   1.00
H739   H     0.13661   0.32912   0.39040   0.00000  Uiso   1.00
H740   H     0.10593   0.28652   0.41836   0.00000  Uiso   1.00
H741   H     0.08371   0.33895   0.39131   0.00000  Uiso   1.00
H742   H     0.40888   0.19187   0.59837   0.00000  Uiso   1.00
H743   H     0.36422   0.21323   0.57089   0.00000  Uiso   1.00
H744   H     0.00795   0.39383   0.54749   0.00000  Uiso   1.00
H745   H     0.36250   0.16408   0.61045   0.00000  Uiso   1.00
H746   H     0.13661   0.17087   0.60960   0.00000  Uiso   1.00
H747   H     0.10592   0.21346   0.58165   0.00000  Uiso   1.00
H748   H     0.08372   0.16102   0.60869   0.00000  Uiso   1.00
H749   H     0.40889   0.30814   0.40163   0.00000  Uiso   1.00
H750   H     0.36420   0.28681   0.42907   0.00000  Uiso   1.00
H751   H     0.36254   0.33597   0.38952   0.00000  Uiso   1.00
H752   H     0.36341   0.32918   0.60961   0.00000  Uiso   1.00
H753   H     0.39410   0.28657   0.58166   0.00000  Uiso   1.00
H754   H     0.41630   0.33902   0.60869   0.00000  Uiso   1.00
H755   H     0.49201   0.39381   0.45254   0.00000  Uiso   1.00
H756   H     0.09112   0.19188   0.40165   0.00000  Uiso   1.00
H757   H     0.13585   0.21313   0.42904   0.00000  Uiso   1.00
H758   H     0.13741   0.16397   0.38949   0.00000  Uiso   1.00
H759   H     0.11341   0.42083   0.39038   0.00000  Uiso   1.00
H760   H     0.14407   0.46345   0.41836   0.00000  Uiso   1.00
H761   H     0.16631   0.41102   0.39133   0.00000  Uiso   1.00
H762   H     0.34108   0.05815   0.59836   0.00000  Uiso   1.00
H763   H     0.38585   0.03692   0.57104   0.00000  Uiso   1.00
H764   H     0.38734   0.08612   0.61057   0.00000  Uiso   1.00
H765   H     0.38660   0.07912   0.39038   0.00000  Uiso   1.00
H766   H     0.49201   0.10619   0.54746   0.00000  Uiso   1.00
H767   H     0.35595   0.03650   0.41838   0.00000  Uiso   1.00
H768   H     0.33370   0.08892   0.39134   0.00000  Uiso   1.00
H769   H     0.11417   0.46313   0.57097   0.00000  Uiso   1.00
H770   H     0.11259   0.41397   0.61051   0.00000  Uiso   1.00
H771   H     0.15889   0.44187   0.59836   0.00000  Uiso   1.00
H772   H     0.38661   0.42090   0.60960   0.00000  Uiso   1.00
H773   H     0.35594   0.46350   0.58162   0.00000  Uiso   1.00
H774   H     0.33372   0.41108   0.60868   0.00000  Uiso   1.00
H775   H     0.11417   0.03685   0.42903   0.00000  Uiso   1.00
H776   H     0.11258   0.08601   0.38949   0.00000  Uiso   1.00
H777   H     0.25826   0.35631   0.45256   0.00000  Uiso   1.00
H778   H     0.15889   0.05812   0.40164   0.00000  Uiso   1.00
H779   H     0.11339   0.07913   0.60960   0.00000  Uiso   1.00
H780   H     0.14406   0.03653   0.58163   0.00000  Uiso   1.00
H781   H     0.16628   0.08895   0.60868   0.00000  Uiso   1.00
H782   H     0.38588   0.46310   0.42901   0.00000  Uiso   1.00
H783   H     0.38738   0.41393   0.38946   0.00000  Uiso   1.00
H784   H     0.34112   0.44190   0.40166   0.00000  Uiso   1.00
H785   H     0.25790   0.14384   0.54750   0.00000  Uiso   1.00
H786   H     0.24193   0.14378   0.45255   0.00000  Uiso   1.00
H787   H     0.24199   0.35620   0.54746   0.00000  Uiso   1.00
H788   H     0.36342   0.17081   0.39038   0.00000  Uiso   1.00
N789   N    -0.00000   0.25000   0.61736   0.00000  Uiso   1.00
N790   N     0.00000   0.25000   0.38264   0.00000  Uiso   1.00
N791   N     0.25000  -0.00000   0.61736   0.00000  Uiso   1.00
N792   N     0.25000  -0.00000   0.38264   0.00000  Uiso   1.00
O793   O     0.04508   0.20491   0.53958   0.00000  Uiso   1.00
O794   O     0.20491   0.04509   0.46042   0.00000  Uiso   1.00
O795   O     0.20491   0.04509   0.53958   0.00000  Uiso   1.00
O796   O     0.29508   0.45491   0.46042   0.00000  Uiso   1.00
O797   O     0.20491   0.45491   0.46042   0.00000  Uiso   1.00
O798   O     0.29508   0.04509   0.53958   0.00000  Uiso   1.00
O799   O     0.29508   0.04509   0.46042   0.00000  Uiso   1.00
O800   O     0.20491   0.45491   0.53958   0.00000  Uiso   1.00
O801   O     0.47530   0.11149   0.36970   0.00000  Uiso   1.00
O802   O     0.04579   0.12834   0.37821   0.00000  Uiso   1.00
O803   O     0.49953   0.13987   0.44592   0.00000  Uiso   1.00
O804   O     0.45491   0.29509   0.46042   0.00000  Uiso   1.00
O805   O     0.47530   0.38851   0.63030   0.00000  Uiso   1.00
O806   O     0.04579   0.37166   0.62179   0.00000  Uiso   1.00
O807   O     0.49953   0.36013   0.55408   0.00000  Uiso   1.00
O808   O     0.02472   0.38850   0.36972   0.00000  Uiso   1.00
O809   O     0.45422   0.37167   0.37822   0.00000  Uiso   1.00
O810   O     0.00048   0.36013   0.44593   0.00000  Uiso   1.00
O811   O     0.02471   0.11149   0.63028   0.00000  Uiso   1.00
O812   O     0.45422   0.12833   0.62177   0.00000  Uiso   1.00
O813   O     0.00048   0.13987   0.55407   0.00000  Uiso   1.00
O814   O     0.22531   0.36148   0.36970   0.00000  Uiso   1.00
O815   O     0.45491   0.29509   0.53958   0.00000  Uiso   1.00
O816   O     0.29580   0.37835   0.37821   0.00000  Uiso   1.00
O817   O     0.24952   0.38987   0.44592   0.00000  Uiso   1.00
O818   O     0.22526   0.13849   0.63029   0.00000  Uiso   1.00
O819   O     0.29576   0.12169   0.62180   0.00000  Uiso   1.00
O820   O     0.24952   0.11013   0.55408   0.00000  Uiso   1.00
O821   O     0.27471   0.13851   0.36972   0.00000  Uiso   1.00
O822   O     0.20422   0.12167   0.37823   0.00000  Uiso   1.00
O823   O     0.25048   0.11013   0.44593   0.00000  Uiso   1.00
O824   O     0.27473   0.36150   0.63028   0.00000  Uiso   1.00
O825   O     0.20423   0.37832   0.62178   0.00000  Uiso   1.00
O826   O     0.04508   0.20491   0.46042   0.00000  Uiso   1.00
O827   O     0.25048   0.38987   0.55407   0.00000  Uiso   1.00
O828   O     0.45491   0.20491   0.46042   0.00000  Uiso   1.00
O829   O     0.04508   0.29509   0.53958   0.00000  Uiso   1.00
O830   O     0.04508   0.29509   0.46042   0.00000  Uiso   1.00
O831   O     0.45491   0.20491   0.53958   0.00000  Uiso   1.00
O832   O     0.29508   0.45491   0.53958   0.00000  Uiso   1.00
S833   S     0.00485   0.14700   0.38860   0.00000  Uiso   1.00
S834   S     0.00486   0.35300   0.61140   0.00000  Uiso   1.00
S835   S     0.49515   0.35300   0.38861   0.00000  Uiso   1.00
S836   S     0.49515   0.14700   0.61139   0.00000  Uiso   1.00
S837   S     0.25486   0.39700   0.38860   0.00000  Uiso   1.00
S838   S     0.25484   0.10300   0.61140   0.00000  Uiso   1.00
S839   S     0.24515   0.10300   0.38861   0.00000  Uiso   1.00
S840   S     0.24516   0.39700   0.61139   0.00000  Uiso   1.00
C841   C     0.56192   0.19417   0.50010   0.00000  Uiso   1.00
C842   C     0.50030   0.29395   0.64141   0.00000  Uiso   1.00
C843   C     0.99970   0.29395   0.35860   0.00000  Uiso   1.00
C844   C     0.99970   0.20605   0.64140   0.00000  Uiso   1.00
C845   C     0.75030   0.45605   0.35859   0.00000  Uiso   1.00
C846   C     0.75030   0.04395   0.64141   0.00000  Uiso   1.00
C847   C     0.74970   0.04395   0.35860   0.00000  Uiso   1.00
C848   C     0.74970   0.45605   0.64140   0.00000  Uiso   1.00
C849   C     0.88673   0.14598   0.45665   0.00000  Uiso   1.00
C850   C     0.61463   0.35304   0.54125   0.00000  Uiso   1.00
C851   C     0.61329   0.35399   0.45666   0.00000  Uiso   1.00
C852   C     0.93808   0.30583   0.50010   0.00000  Uiso   1.00
C853   C     0.88537   0.14697   0.54125   0.00000  Uiso   1.00
C854   C     0.61328   0.14600   0.54334   0.00000  Uiso   1.00
C855   C     0.88538   0.35304   0.45875   0.00000  Uiso   1.00
C856   C     0.88673   0.35402   0.54335   0.00000  Uiso   1.00
C857   C     0.61462   0.14695   0.45875   0.00000  Uiso   1.00
C858   C     0.63672   0.39599   0.45666   0.00000  Uiso   1.00
C859   C     0.86461   0.10307   0.54126   0.00000  Uiso   1.00
C860   C     0.86329   0.10397   0.45666   0.00000  Uiso   1.00
C861   C     0.63539   0.39694   0.54125   0.00000  Uiso   1.00
C862   C     0.86329   0.39603   0.54334   0.00000  Uiso   1.00
C863   C     0.93808   0.19417   0.49990   0.00000  Uiso   1.00
C864   C     0.63538   0.10305   0.45875   0.00000  Uiso   1.00
C865   C     0.63671   0.10399   0.54334   0.00000  Uiso   1.00
C866   C     0.86462   0.39694   0.45874   0.00000  Uiso   1.00
C867   C     0.59834   0.33594   0.49924   0.00000  Uiso   1.00
C868   C     0.90167   0.16405   0.49923   0.00000  Uiso   1.00
C869   C     0.90167   0.33595   0.50077   0.00000  Uiso   1.00
C870   C     0.59833   0.16405   0.50076   0.00000  Uiso   1.00
C871   C     0.84833   0.08594   0.49924   0.00000  Uiso   1.00
C872   C     0.65167   0.41405   0.49923   0.00000  Uiso   1.00
C873   C     0.65167   0.08594   0.50076   0.00000  Uiso   1.00
C874   C     0.56192   0.30583   0.49990   0.00000  Uiso   1.00
C875   C     0.84834   0.41406   0.50076   0.00000  Uiso   1.00
C876   C     0.89075   0.17421   0.41175   0.00000  Uiso   1.00
C877   C     0.61942   0.31950   0.58251   0.00000  Uiso   1.00
C878   C     0.60926   0.32574   0.41176   0.00000  Uiso   1.00
C879   C     0.88057   0.18054   0.58248   0.00000  Uiso   1.00
C880   C     0.60926   0.17424   0.58824   0.00000  Uiso   1.00
C881   C     0.88058   0.31949   0.41750   0.00000  Uiso   1.00
C882   C     0.89075   0.32579   0.58825   0.00000  Uiso   1.00
C883   C     0.61942   0.18049   0.41749   0.00000  Uiso   1.00
C884   C     0.64075   0.42423   0.41176   0.00000  Uiso   1.00
C885   C     0.81192   0.44417   0.50010   0.00000  Uiso   1.00
C886   C     0.86939   0.06956   0.58254   0.00000  Uiso   1.00
C887   C     0.85927   0.07572   0.41177   0.00000  Uiso   1.00
C888   C     0.63059   0.43048   0.58252   0.00000  Uiso   1.00
C889   C     0.85927   0.42428   0.58823   0.00000  Uiso   1.00
C890   C     0.63059   0.06950   0.41749   0.00000  Uiso   1.00
C891   C     0.64073   0.07575   0.58823   0.00000  Uiso   1.00
C892   C     0.86941   0.43047   0.41748   0.00000  Uiso   1.00
C893   C     0.68808   0.05583   0.50010   0.00000  Uiso   1.00
C894   C     0.68808   0.44417   0.49990   0.00000  Uiso   1.00
C895   C     0.81192   0.05583   0.49990   0.00000  Uiso   1.00
C896   C     0.50030   0.20605   0.35859   0.00000  Uiso   1.00
Cu897  Cu    0.50000   0.25000   0.54689   0.00000  Uiso   1.00
Cu898  Cu    0.50000   0.25000   0.45311   0.00000  Uiso   1.00
Cu899  Cu    0.75000  -0.00000   0.54689   0.00000  Uiso   1.00
Cu900  Cu    0.75000  -0.00000   0.45311   0.00000  Uiso   1.00
H901   H     0.50800   0.10619   0.45252   0.00000  Uiso   1.00
H902   H     0.89408   0.21343   0.41834   0.00000  Uiso   1.00
H903   H     0.91631   0.16100   0.39131   0.00000  Uiso   1.00
H904   H     0.59112   0.30812   0.59836   0.00000  Uiso   1.00
H905   H     0.63583   0.28685   0.57096   0.00000  Uiso   1.00
H906   H     0.63743   0.33601   0.61050   0.00000  Uiso   1.00
H907   H     0.63661   0.32912   0.39040   0.00000  Uiso   1.00
H908   H     0.60593   0.28652   0.41836   0.00000  Uiso   1.00
H909   H     0.58371   0.33895   0.39131   0.00000  Uiso   1.00
H910   H     0.90888   0.19187   0.59837   0.00000  Uiso   1.00
H911   H     0.86422   0.21323   0.57089   0.00000  Uiso   1.00
H912   H     0.50795   0.39383   0.54749   0.00000  Uiso   1.00
H913   H     0.86250   0.16408   0.61045   0.00000  Uiso   1.00
H914   H     0.63661   0.17087   0.60960   0.00000  Uiso   1.00
H915   H     0.60592   0.21346   0.58165   0.00000  Uiso   1.00
H916   H     0.58372   0.16102   0.60869   0.00000  Uiso   1.00
H917   H     0.90889   0.30814   0.40163   0.00000  Uiso   1.00
H918   H     0.86420   0.28681   0.42907   0.00000  Uiso   1.00
H919   H     0.86254   0.33597   0.38952   0.00000  Uiso   1.00
H920   H     0.86341   0.32918   0.60961   0.00000  Uiso   1.00
H921   H     0.89410   0.28657   0.58166   0.00000  Uiso   1.00
H922   H     0.91630   0.33902   0.60869   0.00000  Uiso   1.00
H923   H     0.99201   0.39381   0.45254   0.00000  Uiso   1.00
H924   H     0.59112   0.19188   0.40165   0.00000  Uiso   1.00
H925   H     0.63585   0.21313   0.42904   0.00000  Uiso   1.00
H926   H     0.63741   0.16397   0.38949   0.00000  Uiso   1.00
H927   H     0.61341   0.42083   0.39038   0.00000  Uiso   1.00
H928   H     0.64407   0.46345   0.41836   0.00000  Uiso   1.00
H929   H     0.66631   0.41102   0.39133   0.00000  Uiso   1.00
H930   H     0.84108   0.05815   0.59836   0.00000  Uiso   1.00
H931   H     0.88585   0.03692   0.57104   0.00000  Uiso   1.00
H932   H     0.88734   0.08612   0.61057   0.00000  Uiso   1.00
H933   H     0.88660   0.07912   0.39038   0.00000  Uiso   1.00
H934   H     0.99201   0.10619   0.54746   0.00000  Uiso   1.00
H935   H     0.85595   0.03650   0.41838   0.00000  Uiso   1.00
H936   H     0.83370   0.08892   0.39134   0.00000  Uiso   1.00
H937   H     0.61417   0.46313   0.57097   0.00000  Uiso   1.00
H938   H     0.61259   0.41397   0.61051   0.00000  Uiso   1.00
H939   H     0.65889   0.44187   0.59836   0.00000  Uiso   1.00
H940   H     0.88661   0.42090   0.60960   0.00000  Uiso   1.00
H941   H     0.85594   0.46350   0.58162   0.00000  Uiso   1.00
H942   H     0.83372   0.41108   0.60868   0.00000  Uiso   1.00
H943   H     0.61417   0.03685   0.42903   0.00000  Uiso   1.00
H944   H     0.61258   0.08601   0.38949   0.00000  Uiso   1.00
H945   H     0.75826   0.35631   0.45256   0.00000  Uiso   1.00
H946   H     0.65889   0.05812   0.40164   0.00000  Uiso   1.00
H947   H     0.61339   0.07913   0.60960   0.00000  Uiso   1.00
H948   H     0.64406   0.03653   0.58163   0.00000  Uiso   1.00
H949   H     0.66628   0.08895   0.60868   0.00000  Uiso   1.00
H950   H     0.88588   0.46310   0.42901   0.00000  Uiso   1.00
H951   H     0.88738   0.41393   0.38946   0.00000  Uiso   1.00
H952   H     0.84112   0.44190   0.40166   0.00000  Uiso   1.00
H953   H     0.75790   0.14384   0.54750   0.00000  Uiso   1.00
H954   H     0.74193   0.14378   0.45255   0.00000  Uiso   1.00
H955   H     0.74199   0.35620   0.54746   0.00000  Uiso   1.00
H956   H     0.86342   0.17081   0.39038   0.00000  Uiso   1.00
N957   N     0.50000   0.25000   0.61736   0.00000  Uiso   1.00
N958   N     0.50000   0.25000   0.38264   0.00000  Uiso   1.00
N959   N     0.75000  -0.00000   0.61736   0.00000  Uiso   1.00
N960   N     0.75000  -0.00000   0.38264   0.00000  Uiso   1.00
O961   O     0.54508   0.20491   0.53958   0.00000  Uiso   1.00
O962   O     0.70491   0.04509   0.46042   0.00000  Uiso   1.00
O963   O     0.70491   0.04509   0.53958   0.00000  Uiso   1.00
O964   O     0.79508   0.45491   0.46042   0.00000  Uiso   1.00
O965   O     0.70491   0.45491   0.46042   0.00000  Uiso   1.00
O966   O     0.79508   0.04509   0.53958   0.00000  Uiso   1.00
O967   O     0.79508   0.04509   0.46042   0.00000  Uiso   1.00
O968   O     0.70491   0.45491   0.53958   0.00000  Uiso   1.00
O969   O     0.97530   0.11149   0.36970   0.00000  Uiso   1.00
O970   O     0.54579   0.12834   0.37821   0.00000  Uiso   1.00
O971   O     0.99953   0.13987   0.44592   0.00000  Uiso   1.00
O972   O     0.95491   0.29509   0.46042   0.00000  Uiso   1.00
O973   O     0.97530   0.38851   0.63030   0.00000  Uiso   1.00
O974   O     0.54579   0.37166   0.62179   0.00000  Uiso   1.00
O975   O     0.99953   0.36013   0.55408   0.00000  Uiso   1.00
O976   O     0.52472   0.38850   0.36972   0.00000  Uiso   1.00
O977   O     0.95422   0.37167   0.37822   0.00000  Uiso   1.00
O978   O     0.50048   0.36013   0.44593   0.00000  Uiso   1.00
O979   O     0.52471   0.11149   0.63028   0.00000  Uiso   1.00
O980   O     0.95422   0.12833   0.62177   0.00000  Uiso   1.00
O981   O     0.50048   0.13987   0.55407   0.00000  Uiso   1.00
O982   O     0.72531   0.36148   0.36970   0.00000  Uiso   1.00
O983   O     0.95491   0.29509   0.53958   0.00000  Uiso   1.00
O984   O     0.79580   0.37835   0.37821   0.00000  Uiso   1.00
O985   O     0.74952   0.38987   0.44592   0.00000  Uiso   1.00
O986   O     0.72526   0.13849   0.63029   0.00000  Uiso   1.00
O987   O     0.79576   0.12169   0.62180   0.00000  Uiso   1.00
O988   O     0.74952   0.11013   0.55408   0.00000  Uiso   1.00
O989   O     0.77471   0.13851   0.36972   0.00000  Uiso   1.00
O990   O     0.70422   0.12167   0.37823   0.00000  Uiso   1.00
O991   O     0.75048   0.11013   0.44593   0.00000  Uiso   1.00
O992   O     0.77473   0.36150   0.63028   0.00000  Uiso   1.00
O993   O     0.70423   0.37832   0.62178   0.00000  Uiso   1.00
O994   O     0.54508   0.20491   0.46042   0.00000  Uiso   1.00
O995   O     0.75048   0.38987   0.55407   0.00000  Uiso   1.00
O996   O     0.95491   0.20491   0.46042   0.00000  Uiso   1.00
O997   O     0.54508   0.29509   0.53958   0.00000  Uiso   1.00
O998   O     0.54508   0.29509   0.46042   0.00000  Uiso   1.00
O999   O     0.95491   0.20491   0.53958   0.00000  Uiso   1.00
O1000  O     0.79508   0.45491   0.53958   0.00000  Uiso   1.00
S1001  S     0.50485   0.14700   0.38860   0.00000  Uiso   1.00
S1002  S     0.50486   0.35300   0.61140   0.00000  Uiso   1.00
S1003  S     0.99515   0.35300   0.38861   0.00000  Uiso   1.00
S1004  S     0.99515   0.14700   0.61139   0.00000  Uiso   1.00
S1005  S     0.75486   0.39700   0.38860   0.00000  Uiso   1.00
S1006  S     0.75484   0.10300   0.61140   0.00000  Uiso   1.00
S1007  S     0.74515   0.10300   0.38861   0.00000  Uiso   1.00
S1008  S     0.74516   0.39700   0.61139   0.00000  Uiso   1.00
C1009  C     0.06192   0.69417   0.50010   0.00000  Uiso   1.00
C1010  C     0.00030   0.79395   0.64141   0.00000  Uiso   1.00
C1011  C     0.49970   0.79395   0.35860   0.00000  Uiso   1.00
C1012  C     0.49970   0.70605   0.64140   0.00000  Uiso   1.00
C1013  C     0.25030   0.95605   0.35859   0.00000  Uiso   1.00
C1014  C     0.25030   0.54395   0.64141   0.00000  Uiso   1.00
C1015  C     0.24970   0.54395   0.35860   0.00000  Uiso   1.00
C1016  C     0.24970   0.95605   0.64140   0.00000  Uiso   1.00
C1017  C     0.38673   0.64598   0.45665   0.00000  Uiso   1.00
C1018  C     0.11463   0.85304   0.54125   0.00000  Uiso   1.00
C1019  C     0.11329   0.85399   0.45666   0.00000  Uiso   1.00
C1020  C     0.43808   0.80583   0.50010   0.00000  Uiso   1.00
C1021  C     0.38537   0.64697   0.54125   0.00000  Uiso   1.00
C1022  C     0.11328   0.64600   0.54334   0.00000  Uiso   1.00
C1023  C     0.38538   0.85304   0.45875   0.00000  Uiso   1.00
C1024  C     0.38673   0.85402   0.54335   0.00000  Uiso   1.00
C1025  C     0.11462   0.64695   0.45875   0.00000  Uiso   1.00
C1026  C     0.13672   0.89599   0.45666   0.00000  Uiso   1.00
C1027  C     0.36461   0.60307   0.54126   0.00000  Uiso   1.00
C1028  C     0.36329   0.60397   0.45666   0.00000  Uiso   1.00
C1029  C     0.13539   0.89694   0.54125   0.00000  Uiso   1.00
C1030  C     0.36329   0.89603   0.54334   0.00000  Uiso   1.00
C1031  C     0.43808   0.69417   0.49990   0.00000  Uiso   1.00
C1032  C     0.13538   0.60305   0.45875   0.00000  Uiso   1.00
C1033  C     0.13671   0.60399   0.54334   0.00000  Uiso   1.00
C1034  C     0.36462   0.89694   0.45874   0.00000  Uiso   1.00
C1035  C     0.09834   0.83594   0.49924   0.00000  Uiso   1.00
C1036  C     0.40167   0.66405   0.49923   0.00000  Uiso   1.00
C1037  C     0.40167   0.83595   0.50077   0.00000  Uiso   1.00
C1038  C     0.09833   0.66405   0.50076   0.00000  Uiso   1.00
C1039  C     0.34833   0.58594   0.49924   0.00000  Uiso   1.00
C1040  C     0.15167   0.91405   0.49923   0.00000  Uiso   1.00
C1041  C     0.15167   0.58594   0.50076   0.00000  Uiso   1.00
C1042  C     0.06192   0.80583   0.49990   0.00000  Uiso   1.00
C1043  C     0.34834   0.91406   0.50076   0.00000  Uiso   1.00
C1044  C     0.39075   0.67421   0.41175   0.00000  Uiso   1.00
C1045  C     0.11942   0.81950   0.58251   0.00000  Uiso   1.00
C1046  C     0.10926   0.82574   0.41176   0.00000  Uiso   1.00
C1047  C     0.38057   0.68054   0.58248   0.00000  Uiso   1.00
C1048  C     0.10926   0.67424   0.58824   0.00000  Uiso   1.00
C1049  C     0.38058   0.81949   0.41750   0.00000  Uiso   1.00
C1050  C     0.39075   0.82579   0.58825   0.00000  Uiso   1.00
C1051  C     0.11942   0.68049   0.41749   0.00000  Uiso   1.00
C1052  C     0.14075   0.92423   0.41176   0.00000  Uiso   1.00
C1053  C     0.31192   0.94417   0.50010   0.00000  Uiso   1.00
C1054  C     0.36939   0.56956   0.58254   0.00000  Uiso   1.00
C1055  C     0.35927   0.57572   0.41177   0.00000  Uiso   1.00
C1056  C     0.13059   0.93048   0.58252   0.00000  Uiso   1.00
C1057  C     0.35927   0.92428   0.58823   0.00000  Uiso   1.00
C1058  C     0.13059   0.56950   0.41749   0.00000  Uiso   1.00
C1059  C     0.14073   0.57575   0.58823   0.00000  Uiso   1.00
C1060  C     0.36941   0.93047   0.41748   0.00000  Uiso   1.00
C1061  C     0.18808   0.55583   0.50010   0.00000  Uiso   1.00
C1062  C     0.18808   0.94417   0.49990   0.00000  Uiso   1.00
C1063  C     0.31192   0.55583   0.49990   0.00000  Uiso   1.00
C1064  C     0.00030   0.70605   0.35859   0.00000  Uiso   1.00
Cu1065 Cu    0.00000   0.75000   0.54689   0.00000  Uiso   1.00
Cu1066 Cu   -0.00000   0.75000   0.45311   0.00000  Uiso   1.00
Cu1067 Cu    0.25000   0.50000   0.54689   0.00000  Uiso   1.00
Cu1068 Cu    0.25000   0.50000   0.45311   0.00000  Uiso   1.00
H1069  H     0.00800   0.60619   0.45252   0.00000  Uiso   1.00
H1070  H     0.39408   0.71343   0.41834   0.00000  Uiso   1.00
H1071  H     0.41631   0.66100   0.39131   0.00000  Uiso   1.00
H1072  H     0.09112   0.80812   0.59836   0.00000  Uiso   1.00
H1073  H     0.13583   0.78685   0.57096   0.00000  Uiso   1.00
H1074  H     0.13743   0.83601   0.61050   0.00000  Uiso   1.00
H1075  H     0.13661   0.82912   0.39040   0.00000  Uiso   1.00
H1076  H     0.10593   0.78652   0.41836   0.00000  Uiso   1.00
H1077  H     0.08371   0.83895   0.39131   0.00000  Uiso   1.00
H1078  H     0.40888   0.69187   0.59837   0.00000  Uiso   1.00
H1079  H     0.36422   0.71323   0.57089   0.00000  Uiso   1.00
H1080  H     0.00795   0.89383   0.54749   0.00000  Uiso   1.00
H1081  H     0.36250   0.66408   0.61045   0.00000  Uiso   1.00
H1082  H     0.13661   0.67087   0.60960   0.00000  Uiso   1.00
H1083  H     0.10592   0.71346   0.58165   0.00000  Uiso   1.00
H1084  H     0.08372   0.66102   0.60869   0.00000  Uiso   1.00
H1085  H     0.40889   0.80814   0.40163   0.00000  Uiso   1.00
H1086  H     0.36420   0.78681   0.42907   0.00000  Uiso   1.00
H1087  H     0.36254   0.83597   0.38952   0.00000  Uiso   1.00
H1088  H     0.36341   0.82918   0.60961   0.00000  Uiso   1.00
H1089  H     0.39410   0.78657   0.58166   0.00000  Uiso   1.00
H1090  H     0.41630   0.83902   0.60869   0.00000  Uiso   1.00
H1091  H     0.49201   0.89381   0.45254   0.00000  Uiso   1.00
H1092  H     0.09112   0.69188   0.40165   0.00000  Uiso   1.00
H1093  H     0.13585   0.71313   0.42904   0.00000  Uiso   1.00
H1094  H     0.13741   0.66397   0.38949   0.00000  Uiso   1.00
H1095  H     0.11341   0.92083   0.39038   0.00000  Uiso   1.00
H1096  H     0.14407   0.96345   0.41836   0.00000  Uiso   1.00
H1097  H     0.16631   0.91102   0.39133   0.00000  Uiso   1.00
H1098  H     0.34108   0.55815   0.59836   0.00000  Uiso   1.00
H1099  H     0.38585   0.53692   0.57104   0.00000  Uiso   1.00
H1100  H     0.38734   0.58612   0.61057   0.00000  Uiso   1.00
H1101  H     0.38660   0.57912   0.39038   0.00000  Uiso   1.00
H1102  H     0.49201   0.60619   0.54746   0.00000  Uiso   1.00
H1103  H     0.35595   0.53650   0.41838   0.00000  Uiso   1.00
H1104  H     0.33370   0.58892   0.39134   0.00000  Uiso   1.00
H1105  H     0.11417   0.96313   0.57097   0.00000  Uiso   1.00
H1106  H     0.11259   0.91397   0.61051   0.00000  Uiso   1.00
H1107  H     0.15889   0.94187   0.59836   0.00000  Uiso   1.00
H1108  H     0.38661   0.92090   0.60960   0.00000  Uiso   1.00
H1109  H     0.35594   0.96350   0.58162   0.00000  Uiso   1.00
H1110  H     0.33372   0.91108   0.60868   0.00000  Uiso   1.00
H1111  H     0.11417   0.53685   0.42903   0.00000  Uiso   1.00
H1112  H     0.11258   0.58601   0.38949   0.00000  Uiso   1.00
H1113  H     0.25826   0.85631   0.45256   0.00000  Uiso   1.00
H1114  H     0.15889   0.55812   0.40164   0.00000  Uiso   1.00
H1115  H     0.11339   0.57913   0.60960   0.00000  Uiso   1.00
H1116  H     0.14406   0.53653   0.58163   0.00000  Uiso   1.00
H1117  H     0.16628   0.58895   0.60868   0.00000  Uiso   1.00
H1118  H     0.38588   0.96310   0.42901   0.00000  Uiso   1.00
H1119  H     0.38738   0.91393   0.38946   0.00000  Uiso   1.00
H1120  H     0.34112   0.94190   0.40166   0.00000  Uiso   1.00
H1121  H     0.25790   0.64384   0.54750   0.00000  Uiso   1.00
H1122  H     0.24193   0.64378   0.45255   0.00000  Uiso   1.00
H1123  H     0.24199   0.85620   0.54746   0.00000  Uiso   1.00
H1124  H     0.36342   0.67081   0.39038   0.00000  Uiso   1.00
N1125  N    -0.00000   0.75000   0.61736   0.00000  Uiso   1.00
N1126  N     0.00000   0.75000   0.38264   0.00000  Uiso   1.00
N1127  N     0.25000   0.50000   0.61736   0.00000  Uiso   1.00
N1128  N     0.25000   0.50000   0.38264   0.00000  Uiso   1.00
O1129  O     0.04508   0.70491   0.53958   0.00000  Uiso   1.00
O1130  O     0.20491   0.54509   0.46042   0.00000  Uiso   1.00
O1131  O     0.20491   0.54509   0.53958   0.00000  Uiso   1.00
O1132  O     0.29508   0.95491   0.46042   0.00000  Uiso   1.00
O1133  O     0.20491   0.95491   0.46042   0.00000  Uiso   1.00
O1134  O     0.29508   0.54509   0.53958   0.00000  Uiso   1.00
O1135  O     0.29508   0.54509   0.46042   0.00000  Uiso   1.00
O1136  O     0.20491   0.95491   0.53958   0.00000  Uiso   1.00
O1137  O     0.47530   0.61149   0.36970   0.00000  Uiso   1.00
O1138  O     0.04579   0.62834   0.37821   0.00000  Uiso   1.00
O1139  O     0.49953   0.63987   0.44592   0.00000  Uiso   1.00
O1140  O     0.45491   0.79509   0.46042   0.00000  Uiso   1.00
O1141  O     0.47530   0.88851   0.63030   0.00000  Uiso   1.00
O1142  O     0.04579   0.87166   0.62179   0.00000  Uiso   1.00
O1143  O     0.49953   0.86013   0.55408   0.00000  Uiso   1.00
O1144  O     0.02472   0.88850   0.36972   0.00000  Uiso   1.00
O1145  O     0.45422   0.87167   0.37822   0.00000  Uiso   1.00
O1146  O     0.00048   0.86013   0.44593   0.00000  Uiso   1.00
O1147  O     0.02471   0.61149   0.63028   0.00000  Uiso   1.00
O1148  O     0.45422   0.62833   0.62177   0.00000  Uiso   1.00
O1149  O     0.00048   0.63987   0.55407   0.00000  Uiso   1.00
O1150  O     0.22531   0.86148   0.36970   0.00000  Uiso   1.00
O1151  O     0.45491   0.79509   0.53958   0.00000  Uiso   1.00
O1152  O     0.29580   0.87835   0.37821   0.00000  Uiso   1.00
O1153  O     0.24952   0.88987   0.44592   0.00000  Uiso   1.00
O1154  O     0.22526   0.63849   0.63029   0.00000  Uiso   1.00
O1155  O     0.29576   0.62169   0.62180   0.00000  Uiso   1.00
O1156  O     0.24952   0.61013   0.55408   0.00000  Uiso   1.00
O1157  O     0.27471   0.63851   0.36972   0.00000  Uiso   1.00
O1158  O     0.20422   0.62167   0.37823   0.00000  Uiso   1.00
O1159  O     0.25048   0.61013   0.44593   0.00000  Uiso   1.00
O1160  O     0.27473   0.86150   0.63028   0.00000  Uiso   1.00
O1161  O     0.20423   0.87832   0.62178   0.00000  Uiso   1.00
O1162  O     0.04508   0.70491   0.46042   0.00000  Uiso   1.00
O1163  O     0.25048   0.88987   0.55407   0.00000  Uiso   1.00
O1164  O     0.45491   0.70491   0.46042   0.00000  Uiso   1.00
O1165  O     0.04508   0.79509   0.53958   0.00000  Uiso   1.00
O1166  O     0.04508   0.79509   0.46042   0.00000  Uiso   1.00
O1167  O     0.45491   0.70491   0.53958   0.00000  Uiso   1.00
O1168  O     0.29508   0.95491   0.53958   0.00000  Uiso   1.00
S1169  S     0.00485   0.64700   0.38860   0.00000  Uiso   1.00
S1170  S     0.00486   0.85300   0.61140   0.00000  Uiso   1.00
S1171  S     0.49515   0.85300   0.38861   0.00000  Uiso   1.00
S1172  S     0.49515   0.64700   0.61139   0.00000  Uiso   1.00
S1173  S     0.25486   0.89700   0.38860   0.00000  Uiso   1.00
S1174  S     0.25484   0.60300   0.61140   0.00000  Uiso   1.00
S1175  S     0.24515   0.60300   0.38861   0.00000  Uiso   1.00
S1176  S     0.24516   0.89700   0.61139   0.00000  Uiso   1.00
C1177  C     0.56192   0.69417   0.50010   0.00000  Uiso   1.00
C1178  C     0.50030   0.79395   0.64141   0.00000  Uiso   1.00
C1179  C     0.99970   0.79395   0.35860   0.00000  Uiso   1.00
C1180  C     0.99970   0.70605   0.64140   0.00000  Uiso   1.00
C1181  C     0.75030   0.95605   0.35859   0.00000  Uiso   1.00
C1182  C     0.75030   0.54395   0.64141   0.00000  Uiso   1.00
C1183  C     0.74970   0.54395   0.35860   0.00000  Uiso   1.00
C1184  C     0.74970   0.95605   0.64140   0.00000  Uiso   1.00
C1185  C     0.88673   0.64598   0.45665   0.00000  Uiso   1.00
C1186  C     0.61463   0.85304   0.54125   0.00000  Uiso   1.00
C1187  C     0.61329   0.85399   0.45666   0.00000  Uiso   1.00
C1188  C     0.93808   0.80583   0.50010   0.00000  Uiso   1.00
C1189  C     0.88537   0.64697   0.54125   0.00000  Uiso   1.00
C1190  C     0.61328   0.64600   0.54334   0.00000  Uiso   1.00
C1191  C     0.88538   0.85304   0.45875   0.00000  Uiso   1.00
C1192  C     0.88673   0.85402   0.54335   0.00000  Uiso   1.00
C1193  C     0.61462   0.64695   0.45875   0.00000  Uiso   1.00
C1194  C     0.63672   0.89599   0.45666   0.00000  Uiso   1.00
C1195  C     0.86461   0.60307   0.54126   0.00000  Uiso   1.00
C1196  C     0.86329   0.60397   0.45666   0.00000  Uiso   1.00
C1197  C     0.63539   0.89694   0.54125   0.00000  Uiso   1.00
C1198  C     0.86329   0.89603   0.54334   0.00000  Uiso   1.00
C1199  C     0.93808   0.69417   0.49990   0.00000  Uiso   1.00
C1200  C     0.63538   0.60305   0.45875   0.00000  Uiso   1.00
C1201  C     0.63671   0.60399   0.54334   0.00000  Uiso   1.00
C1202  C     0.86462   0.89694   0.45874   0.00000  Uiso   1.00
C1203  C     0.59834   0.83594   0.49924   0.00000  Uiso   1.00
C1204  C     0.90167   0.66405   0.49923   0.00000  Uiso   1.00
C1205  C     0.90167   0.83595   0.50077   0.00000  Uiso   1.00
C1206  C     0.59833   0.66405   0.50076   0.00000  Uiso   1.00
C1207  C     0.84833   0.58594   0.49924   0.00000  Uiso   1.00
C1208  C     0.65167   0.91405   0.49923   0.00000  Uiso   1.00
C1209  C     0.65167   0.58594   0.50076   0.00000  Uiso   1.00
C1210  C     0.56192   0.80583   0.49990   0.00000  Uiso   1.00
C1211  C     0.84834   0.91406   0.50076   0.00000  Uiso   1.00
C1212  C     0.89075   0.67421   0.41175   0.00000  Uiso   1.00
C1213  C     0.61942   0.81950   0.58251   0.00000  Uiso   1.00
C1214  C     0.60926   0.82574   0.41176   0.00000  Uiso   1.00
C1215  C     0.88057   0.68054   0.58248   0.00000  Uiso   1.00
C1216  C     0.60926   0.67424   0.58824   0.00000  Uiso   1.00
C1217  C     0.88058   0.81949   0.41750   0.00000  Uiso   1.00
C1218  C     0.89075   0.82579   0.58825   0.00000  Uiso   1.00
C1219  C     0.61942   0.68049   0.41749   0.00000  Uiso   1.00
C1220  C     0.64075   0.92423   0.41176   0.00000  Uiso   1.00
C1221  C     0.81192   0.94417   0.50010   0.00000  Uiso   1.00
C1222  C     0.86939   0.56956   0.58254   0.00000  Uiso   1.00
C1223  C     0.85927   0.57572   0.41177   0.00000  Uiso   1.00
C1224  C     0.63059   0.93048   0.58252   0.00000  Uiso   1.00
C1225  C     0.85927   0.92428   0.58823   0.00000  Uiso   1.00
C1226  C     0.63059   0.56950   0.41749   0.00000  Uiso   1.00
C1227  C     0.64073   0.57575   0.58823   0.00000  Uiso   1.00
C1228  C     0.86941   0.93047   0.41748   0.00000  Uiso   1.00
C1229  C     0.68808   0.55583   0.50010   0.00000  Uiso   1.00
C1230  C     0.68808   0.94417   0.49990   0.00000  Uiso   1.00
C1231  C     0.81192   0.55583   0.49990   0.00000  Uiso   1.00
C1232  C     0.50030   0.70605   0.35859   0.00000  Uiso   1.00
Cu1233 Cu    0.50000   0.75000   0.54689   0.00000  Uiso   1.00
Cu1234 Cu    0.50000   0.75000   0.45311   0.00000  Uiso   1.00
Cu1235 Cu    0.75000   0.50000   0.54689   0.00000  Uiso   1.00
Cu1236 Cu    0.75000   0.50000   0.45311   0.00000  Uiso   1.00
H1237  H     0.50800   0.60619   0.45252   0.00000  Uiso   1.00
H1238  H     0.89408   0.71343   0.41834   0.00000  Uiso   1.00
H1239  H     0.91631   0.66100   0.39131   0.00000  Uiso   1.00
H1240  H     0.59112   0.80812   0.59836   0.00000  Uiso   1.00
H1241  H     0.63583   0.78685   0.57096   0.00000  Uiso   1.00
H1242  H     0.63743   0.83601   0.61050   0.00000  Uiso   1.00
H1243  H     0.63661   0.82912   0.39040   0.00000  Uiso   1.00
H1244  H     0.60593   0.78652   0.41836   0.00000  Uiso   1.00
H1245  H     0.58371   0.83895   0.39131   0.00000  Uiso   1.00
H1246  H     0.90888   0.69187   0.59837   0.00000  Uiso   1.00
H1247  H     0.86422   0.71323   0.57089   0.00000  Uiso   1.00
H1248  H     0.50795   0.89383   0.54749   0.00000  Uiso   1.00
H1249  H     0.86250   0.66408   0.61045   0.00000  Uiso   1.00
H1250  H     0.63661   0.67087   0.60960   0.00000  Uiso   1.00
H1251  H     0.60592   0.71346   0.58165   0.00000  Uiso   1.00
H1252  H     0.58372   0.66102   0.60869   0.00000  Uiso   1.00
H1253  H     0.90889   0.80814   0.40163   0.00000  Uiso   1.00
H1254  H     0.86420   0.78681   0.42907   0.00000  Uiso   1.00
H1255  H     0.86254   0.83597   0.38952   0.00000  Uiso   1.00
H1256  H     0.86341   0.82918   0.60961   0.00000  Uiso   1.00
H1257  H     0.89410   0.78657   0.58166   0.00000  Uiso   1.00
H1258  H     0.91630   0.83902   0.60869   0.00000  Uiso   1.00
H1259  H     0.99201   0.89381   0.45254   0.00000  Uiso   1.00
H1260  H     0.59112   0.69188   0.40165   0.00000  Uiso   1.00
H1261  H     0.63585   0.71313   0.42904   0.00000  Uiso   1.00
H1262  H     0.63741   0.66397   0.38949   0.00000  Uiso   1.00
H1263  H     0.61341   0.92083   0.39038   0.00000  Uiso   1.00
H1264  H     0.64407   0.96345   0.41836   0.00000  Uiso   1.00
H1265  H     0.66631   0.91102   0.39133   0.00000  Uiso   1.00
H1266  H     0.84108   0.55815   0.59836   0.00000  Uiso   1.00
H1267  H     0.88585   0.53692   0.57104   0.00000  Uiso   1.00
H1268  H     0.88734   0.58612   0.61057   0.00000  Uiso   1.00
H1269  H     0.88660   0.57912   0.39038   0.00000  Uiso   1.00
H1270  H     0.99201   0.60619   0.54746   0.00000  Uiso   1.00
H1271  H     0.85595   0.53650   0.41838   0.00000  Uiso   1.00
H1272  H     0.83370   0.58892   0.39134   0.00000  Uiso   1.00
H1273  H     0.61417   0.96313   0.57097   0.00000  Uiso   1.00
H1274  H     0.61259   0.91397   0.61051   0.00000  Uiso   1.00
H1275  H     0.65889   0.94187   0.59836   0.00000  Uiso   1.00
H1276  H     0.88661   0.92090   0.60960   0.00000  Uiso   1.00
H1277  H     0.85594   0.96350   0.58162   0.00000  Uiso   1.00
H1278  H     0.83372   0.91108   0.60868   0.00000  Uiso   1.00
H1279  H     0.61417   0.53685   0.42903   0.00000  Uiso   1.00
H1280  H     0.61258   0.58601   0.38949   0.00000  Uiso   1.00
H1281  H     0.75826   0.85631   0.45256   0.00000  Uiso   1.00
H1282  H     0.65889   0.55812   0.40164   0.00000  Uiso   1.00
H1283  H     0.61339   0.57913   0.60960   0.00000  Uiso   1.00
H1284  H     0.64406   0.53653   0.58163   0.00000  Uiso   1.00
H1285  H     0.66628   0.58895   0.60868   0.00000  Uiso   1.00
H1286  H     0.88588   0.96310   0.42901   0.00000  Uiso   1.00
H1287  H     0.88738   0.91393   0.38946   0.00000  Uiso   1.00
H1288  H     0.84112   0.94190   0.40166   0.00000  Uiso   1.00
H1289  H     0.75790   0.64384   0.54750   0.00000  Uiso   1.00
H1290  H     0.74193   0.64378   0.45255   0.00000  Uiso   1.00
H1291  H     0.74199   0.85620   0.54746   0.00000  Uiso   1.00
H1292  H     0.86342   0.67081   0.39038   0.00000  Uiso   1.00
N1293  N     0.50000   0.75000   0.61736   0.00000  Uiso   1.00
N1294  N     0.50000   0.75000   0.38264   0.00000  Uiso   1.00
N1295  N     0.75000   0.50000   0.61736   0.00000  Uiso   1.00
N1296  N     0.75000   0.50000   0.38264   0.00000  Uiso   1.00
O1297  O     0.54508   0.70491   0.53958   0.00000  Uiso   1.00
O1298  O     0.70491   0.54509   0.46042   0.00000  Uiso   1.00
O1299  O     0.70491   0.54509   0.53958   0.00000  Uiso   1.00
O1300  O     0.79508   0.95491   0.46042   0.00000  Uiso   1.00
O1301  O     0.70491   0.95491   0.46042   0.00000  Uiso   1.00
O1302  O     0.79508   0.54509   0.53958   0.00000  Uiso   1.00
O1303  O     0.79508   0.54509   0.46042   0.00000  Uiso   1.00
O1304  O     0.70491   0.95491   0.53958   0.00000  Uiso   1.00
O1305  O     0.97530   0.61149   0.36970   0.00000  Uiso   1.00
O1306  O     0.54579   0.62834   0.37821   0.00000  Uiso   1.00
O1307  O     0.99953   0.63987   0.44592   0.00000  Uiso   1.00
O1308  O     0.95491   0.79509   0.46042   0.00000  Uiso   1.00
O1309  O     0.97530   0.88851   0.63030   0.00000  Uiso   1.00
O1310  O     0.54579   0.87166   0.62179   0.00000  Uiso   1.00
O1311  O     0.99953   0.86013   0.55408   0.00000  Uiso   1.00
O1312  O     0.52472   0.88850   0.36972   0.00000  Uiso   1.00
O1313  O     0.95422   0.87167   0.37822   0.00000  Uiso   1.00
O1314  O     0.50048   0.86013   0.44593   0.00000  Uiso   1.00
O1315  O     0.52471   0.61149   0.63028   0.00000  Uiso   1.00
O1316  O     0.95422   0.62833   0.62177   0.00000  Uiso   1.00
O1317  O     0.50048   0.63987   0.55407   0.00000  Uiso   1.00
O1318  O     0.72531   0.86148   0.36970   0.00000  Uiso   1.00
O1319  O     0.95491   0.79509   0.53958   0.00000  Uiso   1.00
O1320  O     0.79580   0.87835   0.37821   0.00000  Uiso   1.00
O1321  O     0.74952   0.88987   0.44592   0.00000  Uiso   1.00
O1322  O     0.72526   0.63849   0.63029   0.00000  Uiso   1.00
O1323  O     0.79576   0.62169   0.62180   0.00000  Uiso   1.00
O1324  O     0.74952   0.61013   0.55408   0.00000  Uiso   1.00
O1325  O     0.77471   0.63851   0.36972   0.00000  Uiso   1.00
O1326  O     0.70422   0.62167   0.37823   0.00000  Uiso   1.00
O1327  O     0.75048   0.61013   0.44593   0.00000  Uiso   1.00
O1328  O     0.77473   0.86150   0.63028   0.00000  Uiso   1.00
O1329  O     0.70423   0.87832   0.62178   0.00000  Uiso   1.00
O1330  O     0.54508   0.70491   0.46042   0.00000  Uiso   1.00
O1331  O     0.75048   0.88987   0.55407   0.00000  Uiso   1.00
O1332  O     0.95491   0.70491   0.46042   0.00000  Uiso   1.00
O1333  O     0.54508   0.79509   0.53958   0.00000  Uiso   1.00
O1334  O     0.54508   0.79509   0.46042   0.00000  Uiso   1.00
O1335  O     0.95491   0.70491   0.53958   0.00000  Uiso   1.00
O1336  O     0.79508   0.95491   0.53958   0.00000  Uiso   1.00
S1337  S     0.50485   0.64700   0.38860   0.00000  Uiso   1.00
S1338  S     0.50486   0.85300   0.61140   0.00000  Uiso   1.00
S1339  S     0.99515   0.85300   0.38861   0.00000  Uiso   1.00
S1340  S     0.99515   0.64700   0.61139   0.00000  Uiso   1.00
S1341  S     0.75486   0.89700   0.38860   0.00000  Uiso   1.00
S1342  S     0.75484   0.60300   0.61140   0.00000  Uiso   1.00
S1343  S     0.74515   0.60300   0.38861   0.00000  Uiso   1.00
S1344  S     0.74516   0.89700   0.61139   0.00000  Uiso   1.00
C1345  C     0.06192   0.19417   0.83343   0.00000  Uiso   1.00
C1346  C     0.00030   0.29395   0.97474   0.00000  Uiso   1.00
C1347  C     0.49970   0.29395   0.69193   0.00000  Uiso   1.00
C1348  C     0.49970   0.20605   0.97473   0.00000  Uiso   1.00
C1349  C     0.25030   0.45605   0.69193   0.00000  Uiso   1.00
C1350  C     0.25030   0.04395   0.97474   0.00000  Uiso   1.00
C1351  C     0.24970   0.04395   0.69193   0.00000  Uiso   1.00
C1352  C     0.24970   0.45605   0.97473   0.00000  Uiso   1.00
C1353  C     0.38673   0.14598   0.78999   0.00000  Uiso   1.00
C1354  C     0.11463   0.35304   0.87459   0.00000  Uiso   1.00
C1355  C     0.11329   0.35399   0.78999   0.00000  Uiso   1.00
C1356  C     0.43808   0.30583   0.83344   0.00000  Uiso   1.00
C1357  C     0.38537   0.14697   0.87458   0.00000  Uiso   1.00
C1358  C     0.11328   0.14600   0.87668   0.00000  Uiso   1.00
C1359  C     0.38538   0.35304   0.79208   0.00000  Uiso   1.00
C1360  C     0.38673   0.35402   0.87668   0.00000  Uiso   1.00
C1361  C     0.11462   0.14695   0.79208   0.00000  Uiso   1.00
C1362  C     0.13672   0.39599   0.78999   0.00000  Uiso   1.00
C1363  C     0.36461   0.10307   0.87459   0.00000  Uiso   1.00
C1364  C     0.36329   0.10397   0.78999   0.00000  Uiso   1.00
C1365  C     0.13539   0.39694   0.87459   0.00000  Uiso   1.00
C1366  C     0.36329   0.39603   0.87667   0.00000  Uiso   1.00
C1367  C     0.43808   0.19417   0.83323   0.00000  Uiso   1.00
C1368  C     0.13538   0.10305   0.79208   0.00000  Uiso   1.00
C1369  C     0.13671   0.10399   0.87667   0.00000  Uiso   1.00
C1370  C     0.36462   0.39694   0.79208   0.00000  Uiso   1.00
C1371  C     0.09834   0.33594   0.83257   0.00000  Uiso   1.00
C1372  C     0.40167   0.16405   0.83256   0.00000  Uiso   1.00
C1373  C     0.40167   0.33595   0.83410   0.00000  Uiso   1.00
C1374  C     0.09833   0.16405   0.83410   0.00000  Uiso   1.00
C1375  C     0.34833   0.08594   0.83257   0.00000  Uiso   1.00
C1376  C     0.15167   0.41405   0.83257   0.00000  Uiso   1.00
C1377  C     0.15167   0.08594   0.83410   0.00000  Uiso   1.00
C1378  C     0.06192   0.30583   0.83323   0.00000  Uiso   1.00
C1379  C     0.34834   0.41406   0.83409   0.00000  Uiso   1.00
C1380  C     0.39075   0.17421   0.74508   0.00000  Uiso   1.00
C1381  C     0.11942   0.31950   0.91584   0.00000  Uiso   1.00
C1382  C     0.10926   0.32574   0.74510   0.00000  Uiso   1.00
C1383  C     0.38057   0.18054   0.91582   0.00000  Uiso   1.00
C1384  C     0.10926   0.17424   0.92157   0.00000  Uiso   1.00
C1385  C     0.38058   0.31949   0.75083   0.00000  Uiso   1.00
C1386  C     0.39075   0.32579   0.92158   0.00000  Uiso   1.00
C1387  C     0.11942   0.18049   0.75082   0.00000  Uiso   1.00
C1388  C     0.14075   0.42423   0.74509   0.00000  Uiso   1.00
C1389  C     0.31192   0.44417   0.83343   0.00000  Uiso   1.00
C1390  C     0.36939   0.06956   0.91588   0.00000  Uiso   1.00
C1391  C     0.35927   0.07572   0.74510   0.00000  Uiso   1.00
C1392  C     0.13059   0.43048   0.91585   0.00000  Uiso   1.00
C1393  C     0.35927   0.42428   0.92156   0.00000  Uiso   1.00
C1394  C     0.13059   0.06950   0.75082   0.00000  Uiso   1.00
C1395  C     0.14073   0.07575   0.92157   0.00000  Uiso   1.00
C1396  C     0.36941   0.43047   0.75081   0.00000  Uiso   1.00
C1397  C     0.18808   0.05583   0.83344   0.00000  Uiso   1.00
C1398  C     0.18808   0.44417   0.83323   0.00000  Uiso   1.00
C1399  C     0.31192   0.05583   0.83323   0.00000  Uiso   1.00
C1400  C     0.00030   0.20605   0.69193   0.00000  Uiso   1.00
Cu1401 Cu    0.00000   0.25000   0.88022   0.00000  Uiso   1.00
Cu1402 Cu   -0.00000   0.25000   0.78645   0.00000  Uiso   1.00
Cu1403 Cu    0.25000  -0.00000   0.88022   0.00000  Uiso   1.00
Cu1404 Cu    0.25000  -0.00000   0.78645   0.00000  Uiso   1.00
H1405  H     0.00800   0.10619   0.78585   0.00000  Uiso   1.00
H1406  H     0.39408   0.21343   0.75167   0.00000  Uiso   1.00
H1407  H     0.41631   0.16100   0.72465   0.00000  Uiso   1.00
H1408  H     0.09112   0.30812   0.93169   0.00000  Uiso   1.00
H1409  H     0.13583   0.28685   0.90429   0.00000  Uiso   1.00
H1410  H     0.13743   0.33601   0.94384   0.00000  Uiso   1.00
H1411  H     0.13661   0.32912   0.72373   0.00000  Uiso   1.00
H1412  H     0.10593   0.28652   0.75170   0.00000  Uiso   1.00
H1413  H     0.08371   0.33895   0.72465   0.00000  Uiso   1.00
H1414  H     0.40888   0.19187   0.93171   0.00000  Uiso   1.00
H1415  H     0.36422   0.21323   0.90422   0.00000  Uiso   1.00
H1416  H     0.00795   0.39383   0.88082   0.00000  Uiso   1.00
H1417  H     0.36250   0.16408   0.94379   0.00000  Uiso   1.00
H1418  H     0.13661   0.17087   0.94293   0.00000  Uiso   1.00
H1419  H     0.10592   0.21346   0.91498   0.00000  Uiso   1.00
H1420  H     0.08372   0.16102   0.94202   0.00000  Uiso   1.00
H1421  H     0.40889   0.30814   0.73496   0.00000  Uiso   1.00
H1422  H     0.36420   0.28681   0.76240   0.00000  Uiso   1.00
H1423  H     0.36254   0.33597   0.72285   0.00000  Uiso   1.00
H1424  H     0.36341   0.32918   0.94294   0.00000  Uiso   1.00
H1425  H     0.39410   0.28657   0.91500   0.00000  Uiso   1.00
H1426  H     0.41630   0.33902   0.94203   0.00000  Uiso   1.00
H1427  H     0.49201   0.39381   0.78587   0.00000  Uiso   1.00
H1428  H     0.09112   0.19188   0.73498   0.00000  Uiso   1.00
H1429  H     0.13585   0.21313   0.76237   0.00000  Uiso   1.00
H1430  H     0.13741   0.16397   0.72282   0.00000  Uiso   1.00
H1431  H     0.11341   0.42083   0.72372   0.00000  Uiso   1.00
H1432  H     0.14407   0.46345   0.75169   0.00000  Uiso   1.00
H1433  H     0.16631   0.41102   0.72466   0.00000  Uiso   1.00
H1434  H     0.34108   0.05815   0.93169   0.00000  Uiso   1.00
H1435  H     0.38585   0.03692   0.90437   0.00000  Uiso   1.00
H1436  H     0.38734   0.08612   0.94390   0.00000  Uiso   1.00
H1437  H     0.38660   0.07912   0.72372   0.00000  Uiso   1.00
H1438  H     0.49201   0.10619   0.88080   0.00000  Uiso   1.00
H1439  H     0.35595   0.03650   0.75171   0.00000  Uiso   1.00
H1440  H     0.33370   0.08892   0.72467   0.00000  Uiso   1.00
H1441  H     0.11417   0.46313   0.90431   0.00000  Uiso   1.00
H1442  H     0.11259   0.41397   0.94385   0.00000  Uiso   1.00
H1443  H     0.15889   0.44187   0.93169   0.00000  Uiso   1.00
H1444  H     0.38661   0.42090   0.94293   0.00000  Uiso   1.00
H1445  H     0.35594   0.46350   0.91495   0.00000  Uiso   1.00
H1446  H     0.33372   0.41108   0.94201   0.00000  Uiso   1.00
H1447  H     0.11417   0.03685   0.76236   0.00000  Uiso   1.00
H1448  H     0.11258   0.08601   0.72282   0.00000  Uiso   1.00
H1449  H     0.25826   0.35631   0.78590   0.00000  Uiso   1.00
H1450  H     0.15889   0.05812   0.73497   0.00000  Uiso   1.00
H1451  H     0.11339   0.07913   0.94293   0.00000  Uiso   1.00
H1452  H     0.14406   0.03653   0.91496   0.00000  Uiso   1.00
H1453  H     0.16628   0.08895   0.94202   0.00000  Uiso   1.00
H1454  H     0.38588   0.46310   0.76234   0.00000  Uiso   1.00
H1455  H     0.38738   0.41393   0.72279   0.00000  Uiso   1.00
H1456  H     0.34112   0.44190   0.73499   0.00000  Uiso   1.00
H1457  H     0.25790   0.14384   0.88083   0.00000  Uiso   1.00
H1458  H     0.24193   0.14378   0.78589   0.00000  Uiso   1.00
H1459  H     0.24199   0.35620   0.88079   0.00000  Uiso   1.00
H1460  H     0.36342   0.17081   0.72371   0.00000  Uiso   1.00
N1461  N    -0.00000   0.25000   0.95069   0.00000  Uiso   1.00
N1462  N     0.00000   0.25000   0.71598   0.00000  Uiso   1.00
N1463  N     0.25000  -0.00000   0.95069   0.00000  Uiso   1.00
N1464  N     0.25000  -0.00000   0.71598   0.00000  Uiso   1.00
O1465  O     0.04508   0.20491   0.87291   0.00000  Uiso   1.00
O1466  O     0.20491   0.04509   0.79375   0.00000  Uiso   1.00
O1467  O     0.20491   0.04509   0.87291   0.00000  Uiso   1.00
O1468  O     0.29508   0.45491   0.79375   0.00000  Uiso   1.00
O1469  O     0.20491   0.45491   0.79375   0.00000  Uiso   1.00
O1470  O     0.29508   0.04509   0.87291   0.00000  Uiso   1.00
O1471  O     0.29508   0.04509   0.79375   0.00000  Uiso   1.00
O1472  O     0.20491   0.45491   0.87291   0.00000  Uiso   1.00
O1473  O     0.47530   0.11149   0.70303   0.00000  Uiso   1.00
O1474  O     0.04579   0.12834   0.71154   0.00000  Uiso   1.00
O1475  O     0.49953   0.13987   0.77925   0.00000  Uiso   1.00
O1476  O     0.45491   0.29509   0.79375   0.00000  Uiso   1.00
O1477  O     0.47530   0.38851   0.96364   0.00000  Uiso   1.00
O1478  O     0.04579   0.37166   0.95512   0.00000  Uiso   1.00
O1479  O     0.49953   0.36013   0.88742   0.00000  Uiso   1.00
O1480  O     0.02472   0.38850   0.70306   0.00000  Uiso   1.00
O1481  O     0.45422   0.37167   0.71156   0.00000  Uiso   1.00
O1482  O     0.00048   0.36013   0.77927   0.00000  Uiso   1.00
O1483  O     0.02471   0.11149   0.96361   0.00000  Uiso   1.00
O1484  O     0.45422   0.12833   0.95511   0.00000  Uiso   1.00
O1485  O     0.00048   0.13987   0.88740   0.00000  Uiso   1.00
O1486  O     0.22531   0.36148   0.70303   0.00000  Uiso   1.00
O1487  O     0.45491   0.29509   0.87291   0.00000  Uiso   1.00
O1488  O     0.29580   0.37835   0.71154   0.00000  Uiso   1.00
O1489  O     0.24952   0.38987   0.77925   0.00000  Uiso   1.00
O1490  O     0.22526   0.13849   0.96363   0.00000  Uiso   1.00
O1491  O     0.29576   0.12169   0.95513   0.00000  Uiso   1.00
O1492  O     0.24952   0.11013   0.88741   0.00000  Uiso   1.00
O1493  O     0.27471   0.13851   0.70306   0.00000  Uiso   1.00
O1494  O     0.20422   0.12167   0.71156   0.00000  Uiso   1.00
O1495  O     0.25048   0.11013   0.77927   0.00000  Uiso   1.00
O1496  O     0.27473   0.36150   0.96361   0.00000  Uiso   1.00
O1497  O     0.20423   0.37832   0.95511   0.00000  Uiso   1.00
O1498  O     0.04508   0.20491   0.79375   0.00000  Uiso   1.00
O1499  O     0.25048   0.38987   0.88740   0.00000  Uiso   1.00
O1500  O     0.45491   0.20491   0.79375   0.00000  Uiso   1.00
O1501  O     0.04508   0.29509   0.87291   0.00000  Uiso   1.00
O1502  O     0.04508   0.29509   0.79375   0.00000  Uiso   1.00
O1503  O     0.45491   0.20491   0.87291   0.00000  Uiso   1.00
O1504  O     0.29508   0.45491   0.87291   0.00000  Uiso   1.00
S1505  S     0.00485   0.14700   0.72193   0.00000  Uiso   1.00
S1506  S     0.00486   0.35300   0.94474   0.00000  Uiso   1.00
S1507  S     0.49515   0.35300   0.72195   0.00000  Uiso   1.00
S1508  S     0.49515   0.14700   0.94472   0.00000  Uiso   1.00
S1509  S     0.25486   0.39700   0.72193   0.00000  Uiso   1.00
S1510  S     0.25484   0.10300   0.94474   0.00000  Uiso   1.00
S1511  S     0.24515   0.10300   0.72195   0.00000  Uiso   1.00
S1512  S     0.24516   0.39700   0.94472   0.00000  Uiso   1.00
C1513  C     0.56192   0.19417   0.83343   0.00000  Uiso   1.00
C1514  C     0.50030   0.29395   0.97474   0.00000  Uiso   1.00
C1515  C     0.99970   0.29395   0.69193   0.00000  Uiso   1.00
C1516  C     0.99970   0.20605   0.97473   0.00000  Uiso   1.00
C1517  C     0.75030   0.45605   0.69193   0.00000  Uiso   1.00
C1518  C     0.75030   0.04395   0.97474   0.00000  Uiso   1.00
C1519  C     0.74970   0.04395   0.69193   0.00000  Uiso   1.00
C1520  C     0.74970   0.45605   0.97473   0.00000  Uiso   1.00
C1521  C     0.88673   0.14598   0.78999   0.00000  Uiso   1.00
C1522  C     0.61463   0.35304   0.87459   0.00000  Uiso   1.00
C1523  C     0.61329   0.35399   0.78999   0.00000  Uiso   1.00
C1524  C     0.93808   0.30583   0.83344   0.00000  Uiso   1.00
C1525  C     0.88537   0.14697   0.87458   0.00000  Uiso   1.00
C1526  C     0.61328   0.14600   0.87668   0.00000  Uiso   1.00
C1527  C     0.88538   0.35304   0.79208   0.00000  Uiso   1.00
C1528  C     0.88673   0.35402   0.87668   0.00000  Uiso   1.00
C1529  C     0.61462   0.14695   0.79208   0.00000  Uiso   1.00
C1530  C     0.63672   0.39599   0.78999   0.00000  Uiso   1.00
C1531  C     0.86461   0.10307   0.87459   0.00000  Uiso   1.00
C1532  C     0.86329   0.10397   0.78999   0.00000  Uiso   1.00
C1533  C     0.63539   0.39694   0.87459   0.00000  Uiso   1.00
C1534  C     0.86329   0.39603   0.87667   0.00000  Uiso   1.00
C1535  C     0.93808   0.19417   0.83323   0.00000  Uiso   1.00
C1536  C     0.63538   0.10305   0.79208   0.00000  Uiso   1.00
C1537  C     0.63671   0.10399   0.87667   0.00000  Uiso   1.00
C1538  C     0.86462   0.39694   0.79208   0.00000  Uiso   1.00
C1539  C     0.59834   0.33594   0.83257   0.00000  Uiso   1.00
C1540  C     0.90167   0.16405   0.83256   0.00000  Uiso   1.00
C1541  C     0.90167   0.33595   0.83410   0.00000  Uiso   1.00
C1542  C     0.59833   0.16405   0.83410   0.00000  Uiso   1.00
C1543  C     0.84833   0.08594   0.83257   0.00000  Uiso   1.00
C1544  C     0.65167   0.41405   0.83257   0.00000  Uiso   1.00
C1545  C     0.65167   0.08594   0.83410   0.00000  Uiso   1.00
C1546  C     0.56192   0.30583   0.83323   0.00000  Uiso   1.00
C1547  C     0.84834   0.41406   0.83409   0.00000  Uiso   1.00
C1548  C     0.89075   0.17421   0.74508   0.00000  Uiso   1.00
C1549  C     0.61942   0.31950   0.91584   0.00000  Uiso   1.00
C1550  C     0.60926   0.32574   0.74510   0.00000  Uiso   1.00
C1551  C     0.88057   0.18054   0.91582   0.00000  Uiso   1.00
C1552  C     0.60926   0.17424   0.92157   0.00000  Uiso   1.00
C1553  C     0.88058   0.31949   0.75083   0.00000  Uiso   1.00
C1554  C     0.89075   0.32579   0.92158   0.00000  Uiso   1.00
C1555  C     0.61942   0.18049   0.75082   0.00000  Uiso   1.00
C1556  C     0.64075   0.42423   0.74509   0.00000  Uiso   1.00
C1557  C     0.81192   0.44417   0.83343   0.00000  Uiso   1.00
C1558  C     0.86939   0.06956   0.91588   0.00000  Uiso   1.00
C1559  C     0.85927   0.07572   0.74510   0.00000  Uiso   1.00
C1560  C     0.63059   0.43048   0.91585   0.00000  Uiso   1.00
C1561  C     0.85927   0.42428   0.92156   0.00000  Uiso   1.00
C1562  C     0.63059   0.06950   0.75082   0.00000  Uiso   1.00
C1563  C     0.64073   0.07575   0.92157   0.00000  Uiso   1.00
C1564  C     0.86941   0.43047   0.75081   0.00000  Uiso   1.00
C1565  C     0.68808   0.05583   0.83344   0.00000  Uiso   1.00
C1566  C     0.68808   0.44417   0.83323   0.00000  Uiso   1.00
C1567  C     0.81192   0.05583   0.83323   0.00000  Uiso   1.00
C1568  C     0.50030   0.20605   0.69193   0.00000  Uiso   1.00
Cu1569 Cu    0.50000   0.25000   0.88022   0.00000  Uiso   1.00
Cu1570 Cu    0.50000   0.25000   0.78645   0.00000  Uiso   1.00
Cu1571 Cu    0.75000  -0.00000   0.88022   0.00000  Uiso   1.00
Cu1572 Cu    0.75000  -0.00000   0.78645   0.00000  Uiso   1.00
H1573  H     0.50800   0.10619   0.78585   0.00000  Uiso   1.00
H1574  H     0.89408   0.21343   0.75167   0.00000  Uiso   1.00
H1575  H     0.91631   0.16100   0.72465   0.00000  Uiso   1.00
H1576  H     0.59112   0.30812   0.93169   0.00000  Uiso   1.00
H1577  H     0.63583   0.28685   0.90429   0.00000  Uiso   1.00
H1578  H     0.63743   0.33601   0.94384   0.00000  Uiso   1.00
H1579  H     0.63661   0.32912   0.72373   0.00000  Uiso   1.00
H1580  H     0.60593   0.28652   0.75170   0.00000  Uiso   1.00
H1581  H     0.58371   0.33895   0.72465   0.00000  Uiso   1.00
H1582  H     0.90888   0.19187   0.93171   0.00000  Uiso   1.00
H1583  H     0.86422   0.21323   0.90422   0.00000  Uiso   1.00
H1584  H     0.50795   0.39383   0.88082   0.00000  Uiso   1.00
H1585  H     0.86250   0.16408   0.94379   0.00000  Uiso   1.00
H1586  H     0.63661   0.17087   0.94293   0.00000  Uiso   1.00
H1587  H     0.60592   0.21346   0.91498   0.00000  Uiso   1.00
H1588  H     0.58372   0.16102   0.94202   0.00000  Uiso   1.00
H1589  H     0.90889   0.30814   0.73496   0.00000  Uiso   1.00
H1590  H     0.86420   0.28681   0.76240   0.00000  Uiso   1.00
H1591  H     0.86254   0.33597   0.72285   0.00000  Uiso   1.00
H1592  H     0.86341   0.32918   0.94294   0.00000  Uiso   1.00
H1593  H     0.89410   0.28657   0.91500   0.00000  Uiso   1.00
H1594  H     0.91630   0.33902   0.94203   0.00000  Uiso   1.00
H1595  H     0.99201   0.39381   0.78587   0.00000  Uiso   1.00
H1596  H     0.59112   0.19188   0.73498   0.00000  Uiso   1.00
H1597  H     0.63585   0.21313   0.76237   0.00000  Uiso   1.00
H1598  H     0.63741   0.16397   0.72282   0.00000  Uiso   1.00
H1599  H     0.61341   0.42083   0.72372   0.00000  Uiso   1.00
H1600  H     0.64407   0.46345   0.75169   0.00000  Uiso   1.00
H1601  H     0.66631   0.41102   0.72466   0.00000  Uiso   1.00
H1602  H     0.84108   0.05815   0.93169   0.00000  Uiso   1.00
H1603  H     0.88585   0.03692   0.90437   0.00000  Uiso   1.00
H1604  H     0.88734   0.08612   0.94390   0.00000  Uiso   1.00
H1605  H     0.88660   0.07912   0.72372   0.00000  Uiso   1.00
H1606  H     0.99201   0.10619   0.88080   0.00000  Uiso   1.00
H1607  H     0.85595   0.03650   0.75171   0.00000  Uiso   1.00
H1608  H     0.83370   0.08892   0.72467   0.00000  Uiso   1.00
H1609  H     0.61417   0.46313   0.90431   0.00000  Uiso   1.00
H1610  H     0.61259   0.41397   0.94385   0.00000  Uiso   1.00
H1611  H     0.65889   0.44187   0.93169   0.00000  Uiso   1.00
H1612  H     0.88661   0.42090   0.94293   0.00000  Uiso   1.00
H1613  H     0.85594   0.46350   0.91495   0.00000  Uiso   1.00
H1614  H     0.83372   0.41108   0.94201   0.00000  Uiso   1.00
H1615  H     0.61417   0.03685   0.76236   0.00000  Uiso   1.00
H1616  H     0.61258   0.08601   0.72282   0.00000  Uiso   1.00
H1617  H     0.75826   0.35631   0.78590   0.00000  Uiso   1.00
H1618  H     0.65889   0.05812   0.73497   0.00000  Uiso   1.00
H1619  H     0.61339   0.07913   0.94293   0.00000  Uiso   1.00
H1620  H     0.64406   0.03653   0.91496   0.00000  Uiso   1.00
H1621  H     0.66628   0.08895   0.94202   0.00000  Uiso   1.00
H1622  H     0.88588   0.46310   0.76234   0.00000  Uiso   1.00
H1623  H     0.88738   0.41393   0.72279   0.00000  Uiso   1.00
H1624  H     0.84112   0.44190   0.73499   0.00000  Uiso   1.00
H1625  H     0.75790   0.14384   0.88083   0.00000  Uiso   1.00
H1626  H     0.74193   0.14378   0.78589   0.00000  Uiso   1.00
H1627  H     0.74199   0.35620   0.88079   0.00000  Uiso   1.00
H1628  H     0.86342   0.17081   0.72371   0.00000  Uiso   1.00
N1629  N     0.50000   0.25000   0.95069   0.00000  Uiso   1.00
N1630  N     0.50000   0.25000   0.71598   0.00000  Uiso   1.00
N1631  N     0.75000  -0.00000   0.95069   0.00000  Uiso   1.00
N1632  N     0.75000  -0.00000   0.71598   0.00000  Uiso   1.00
O1633  O     0.54508   0.20491   0.87291   0.00000  Uiso   1.00
O1634  O     0.70491   0.04509   0.79375   0.00000  Uiso   1.00
O1635  O     0.70491   0.04509   0.87291   0.00000  Uiso   1.00
O1636  O     0.79508   0.45491   0.79375   0.00000  Uiso   1.00
O1637  O     0.70491   0.45491   0.79375   0.00000  Uiso   1.00
O1638  O     0.79508   0.04509   0.87291   0.00000  Uiso   1.00
O1639  O     0.79508   0.04509   0.79375   0.00000  Uiso   1.00
O1640  O     0.70491   0.45491   0.87291   0.00000  Uiso   1.00
O1641  O     0.97530   0.11149   0.70303   0.00000  Uiso   1.00
O1642  O     0.54579   0.12834   0.71154   0.00000  Uiso   1.00
O1643  O     0.99953   0.13987   0.77925   0.00000  Uiso   1.00
O1644  O     0.95491   0.29509   0.79375   0.00000  Uiso   1.00
O1645  O     0.97530   0.38851   0.96364   0.00000  Uiso   1.00
O1646  O     0.54579   0.37166   0.95512   0.00000  Uiso   1.00
O1647  O     0.99953   0.36013   0.88742   0.00000  Uiso   1.00
O1648  O     0.52472   0.38850   0.70306   0.00000  Uiso   1.00
O1649  O     0.95422   0.37167   0.71156   0.00000  Uiso   1.00
O1650  O     0.50048   0.36013   0.77927   0.00000  Uiso   1.00
O1651  O     0.52471   0.11149   0.96361   0.00000  Uiso   1.00
O1652  O     0.95422   0.12833   0.95511   0.00000  Uiso   1.00
O1653  O     0.50048   0.13987   0.88740   0.00000  Uiso   1.00
O1654  O     0.72531   0.36148   0.70303   0.00000  Uiso   1.00
O1655  O     0.95491   0.29509   0.87291   0.00000  Uiso   1.00
O1656  O     0.79580   0.37835   0.71154   0.00000  Uiso   1.00
O1657  O     0.74952   0.38987   0.77925   0.00000  Uiso   1.00
O1658  O     0.72526   0.13849   0.96363   0.00000  Uiso   1.00
O1659  O     0.79576   0.12169   0.95513   0.00000  Uiso   1.00
O1660  O     0.74952   0.11013   0.88741   0.00000  Uiso   1.00
O1661  O     0.77471   0.13851   0.70306   0.00000  Uiso   1.00
O1662  O     0.70422   0.12167   0.71156   0.00000  Uiso   1.00
O1663  O     0.75048   0.11013   0.77927   0.00000  Uiso   1.00
O1664  O     0.77473   0.36150   0.96361   0.00000  Uiso   1.00
O1665  O     0.70423   0.37832   0.95511   0.00000  Uiso   1.00
O1666  O     0.54508   0.20491   0.79375   0.00000  Uiso   1.00
O1667  O     0.75048   0.38987   0.88740   0.00000  Uiso   1.00
O1668  O     0.95491   0.20491   0.79375   0.00000  Uiso   1.00
O1669  O     0.54508   0.29509   0.87291   0.00000  Uiso   1.00
O1670  O     0.54508   0.29509   0.79375   0.00000  Uiso   1.00
O1671  O     0.95491   0.20491   0.87291   0.00000  Uiso   1.00
O1672  O     0.79508   0.45491   0.87291   0.00000  Uiso   1.00
S1673  S     0.50485   0.14700   0.72193   0.00000  Uiso   1.00
S1674  S     0.50486   0.35300   0.94474   0.00000  Uiso   1.00
S1675  S     0.99515   0.35300   0.72195   0.00000  Uiso   1.00
S1676  S     0.99515   0.14700   0.94472   0.00000  Uiso   1.00
S1677  S     0.75486   0.39700   0.72193   0.00000  Uiso   1.00
S1678  S     0.75484   0.10300   0.94474   0.00000  Uiso   1.00
S1679  S     0.74515   0.10300   0.72195   0.00000  Uiso   1.00
S1680  S     0.74516   0.39700   0.94472   0.00000  Uiso   1.00
C1681  C     0.06192   0.69417   0.83343   0.00000  Uiso   1.00
C1682  C     0.00030   0.79395   0.97474   0.00000  Uiso   1.00
C1683  C     0.49970   0.79395   0.69193   0.00000  Uiso   1.00
C1684  C     0.49970   0.70605   0.97473   0.00000  Uiso   1.00
C1685  C     0.25030   0.95605   0.69193   0.00000  Uiso   1.00
C1686  C     0.25030   0.54395   0.97474   0.00000  Uiso   1.00
C1687  C     0.24970   0.54395   0.69193   0.00000  Uiso   1.00
C1688  C     0.24970   0.95605   0.97473   0.00000  Uiso   1.00
C1689  C     0.38673   0.64598   0.78999   0.00000  Uiso   1.00
C1690  C     0.11463   0.85304   0.87459   0.00000  Uiso   1.00
C1691  C     0.11329   0.85399   0.78999   0.00000  Uiso   1.00
C1692  C     0.43808   0.80583   0.83344   0.00000  Uiso   1.00
C1693  C     0.38537   0.64697   0.87458   0.00000  Uiso   1.00
C1694  C     0.11328   0.64600   0.87668   0.00000  Uiso   1.00
C1695  C     0.38538   0.85304   0.79208   0.00000  Uiso   1.00
C1696  C     0.38673   0.85402   0.87668   0.00000  Uiso   1.00
C1697  C     0.11462   0.64695   0.79208   0.00000  Uiso   1.00
C1698  C     0.13672   0.89599   0.78999   0.00000  Uiso   1.00
C1699  C     0.36461   0.60307   0.87459   0.00000  Uiso   1.00
C1700  C     0.36329   0.60397   0.78999   0.00000  Uiso   1.00
C1701  C     0.13539   0.89694   0.87459   0.00000  Uiso   1.00
C1702  C     0.36329   0.89603   0.87667   0.00000  Uiso   1.00
C1703  C     0.43808   0.69417   0.83323   0.00000  Uiso   1.00
C1704  C     0.13538   0.60305   0.79208   0.00000  Uiso   1.00
C1705  C     0.13671   0.60399   0.87667   0.00000  Uiso   1.00
C1706  C     0.36462   0.89694   0.79208   0.00000  Uiso   1.00
C1707  C     0.09834   0.83594   0.83257   0.00000  Uiso   1.00
C1708  C     0.40167   0.66405   0.83256   0.00000  Uiso   1.00
C1709  C     0.40167   0.83595   0.83410   0.00000  Uiso   1.00
C1710  C     0.09833   0.66405   0.83410   0.00000  Uiso   1.00
C1711  C     0.34833   0.58594   0.83257   0.00000  Uiso   1.00
C1712  C     0.15167   0.91405   0.83257   0.00000  Uiso   1.00
C1713  C     0.15167   0.58594   0.83410   0.00000  Uiso   1.00
C1714  C     0.06192   0.80583   0.83323   0.00000  Uiso   1.00
C1715  C     0.34834   0.91406   0.83409   0.00000  Uiso   1.00
C1716  C     0.39075   0.67421   0.74508   0.00000  Uiso   1.00
C1717  C     0.11942   0.81950   0.91584   0.00000  Uiso   1.00
C1718  C     0.10926   0.82574   0.74510   0.00000  Uiso   1.00
C1719  C     0.38057   0.68054   0.91582   0.00000  Uiso   1.00
C1720  C     0.10926   0.67424   0.92157   0.00000  Uiso   1.00
C1721  C     0.38058   0.81949   0.75083   0.00000  Uiso   1.00
C1722  C     0.39075   0.82579   0.92158   0.00000  Uiso   1.00
C1723  C     0.11942   0.68049   0.75082   0.00000  Uiso   1.00
C1724  C     0.14075   0.92423   0.74509   0.00000  Uiso   1.00
C1725  C     0.31192   0.94417   0.83343   0.00000  Uiso   1.00
C1726  C     0.36939   0.56956   0.91588   0.00000  Uiso   1.00
C1727  C     0.35927   0.57572   0.74510   0.00000  Uiso   1.00
C1728  C     0.13059   0.93048   0.91585   0.00000  Uiso   1.00
C1729  C     0.35927   0.92428   0.92156   0.00000  Uiso   1.00
C1730  C     0.13059   0.56950   0.75082   0.00000  Uiso   1.00
C1731  C     0.14073   0.57575   0.92157   0.00000  Uiso   1.00
C1732  C     0.36941   0.93047   0.75081   0.00000  Uiso   1.00
C1733  C     0.18808   0.55583   0.83344   0.00000  Uiso   1.00
C1734  C     0.18808   0.94417   0.83323   0.00000  Uiso   1.00
C1735  C     0.31192   0.55583   0.83323   0.00000  Uiso   1.00
C1736  C     0.00030   0.70605   0.69193   0.00000  Uiso   1.00
Cu1737 Cu    0.00000   0.75000   0.88022   0.00000  Uiso   1.00
Cu1738 Cu   -0.00000   0.75000   0.78645   0.00000  Uiso   1.00
Cu1739 Cu    0.25000   0.50000   0.88022   0.00000  Uiso   1.00
Cu1740 Cu    0.25000   0.50000   0.78645   0.00000  Uiso   1.00
H1741  H     0.00800   0.60619   0.78585   0.00000  Uiso   1.00
H1742  H     0.39408   0.71343   0.75167   0.00000  Uiso   1.00
H1743  H     0.41631   0.66100   0.72465   0.00000  Uiso   1.00
H1744  H     0.09112   0.80812   0.93169   0.00000  Uiso   1.00
H1745  H     0.13583   0.78685   0.90429   0.00000  Uiso   1.00
H1746  H     0.13743   0.83601   0.94384   0.00000  Uiso   1.00
H1747  H     0.13661   0.82912   0.72373   0.00000  Uiso   1.00
H1748  H     0.10593   0.78652   0.75170   0.00000  Uiso   1.00
H1749  H     0.08371   0.83895   0.72465   0.00000  Uiso   1.00
H1750  H     0.40888   0.69187   0.93171   0.00000  Uiso   1.00
H1751  H     0.36422   0.71323   0.90422   0.00000  Uiso   1.00
H1752  H     0.00795   0.89383   0.88082   0.00000  Uiso   1.00
H1753  H     0.36250   0.66408   0.94379   0.00000  Uiso   1.00
H1754  H     0.13661   0.67087   0.94293   0.00000  Uiso   1.00
H1755  H     0.10592   0.71346   0.91498   0.00000  Uiso   1.00
H1756  H     0.08372   0.66102   0.94202   0.00000  Uiso   1.00
H1757  H     0.40889   0.80814   0.73496   0.00000  Uiso   1.00
H1758  H     0.36420   0.78681   0.76240   0.00000  Uiso   1.00
H1759  H     0.36254   0.83597   0.72285   0.00000  Uiso   1.00
H1760  H     0.36341   0.82918   0.94294   0.00000  Uiso   1.00
H1761  H     0.39410   0.78657   0.91500   0.00000  Uiso   1.00
H1762  H     0.41630   0.83902   0.94203   0.00000  Uiso   1.00
H1763  H     0.49201   0.89381   0.78587   0.00000  Uiso   1.00
H1764  H     0.09112   0.69188   0.73498   0.00000  Uiso   1.00
H1765  H     0.13585   0.71313   0.76237   0.00000  Uiso   1.00
H1766  H     0.13741   0.66397   0.72282   0.00000  Uiso   1.00
H1767  H     0.11341   0.92083   0.72372   0.00000  Uiso   1.00
H1768  H     0.14407   0.96345   0.75169   0.00000  Uiso   1.00
H1769  H     0.16631   0.91102   0.72466   0.00000  Uiso   1.00
H1770  H     0.34108   0.55815   0.93169   0.00000  Uiso   1.00
H1771  H     0.38585   0.53692   0.90437   0.00000  Uiso   1.00
H1772  H     0.38734   0.58612   0.94390   0.00000  Uiso   1.00
H1773  H     0.38660   0.57912   0.72372   0.00000  Uiso   1.00
H1774  H     0.49201   0.60619   0.88080   0.00000  Uiso   1.00
H1775  H     0.35595   0.53650   0.75171   0.00000  Uiso   1.00
H1776  H     0.33370   0.58892   0.72467   0.00000  Uiso   1.00
H1777  H     0.11417   0.96313   0.90431   0.00000  Uiso   1.00
H1778  H     0.11259   0.91397   0.94385   0.00000  Uiso   1.00
H1779  H     0.15889   0.94187   0.93169   0.00000  Uiso   1.00
H1780  H     0.38661   0.92090   0.94293   0.00000  Uiso   1.00
H1781  H     0.35594   0.96350   0.91495   0.00000  Uiso   1.00
H1782  H     0.33372   0.91108   0.94201   0.00000  Uiso   1.00
H1783  H     0.11417   0.53685   0.76236   0.00000  Uiso   1.00
H1784  H     0.11258   0.58601   0.72282   0.00000  Uiso   1.00
H1785  H     0.25826   0.85631   0.78590   0.00000  Uiso   1.00
H1786  H     0.15889   0.55812   0.73497   0.00000  Uiso   1.00
H1787  H     0.11339   0.57913   0.94293   0.00000  Uiso   1.00
H1788  H     0.14406   0.53653   0.91496   0.00000  Uiso   1.00
H1789  H     0.16628   0.58895   0.94202   0.00000  Uiso   1.00
H1790  H     0.38588   0.96310   0.76234   0.00000  Uiso   1.00
H1791  H     0.38738   0.91393   0.72279   0.00000  Uiso   1.00
H1792  H     0.34112   0.94190   0.73499   0.00000  Uiso   1.00
H1793  H     0.25790   0.64384   0.88083   0.00000  Uiso   1.00
H1794  H     0.24193   0.64378   0.78589   0.00000  Uiso   1.00
H1795  H     0.24199   0.85620   0.88079   0.00000  Uiso   1.00
H1796  H     0.36342   0.67081   0.72371   0.00000  Uiso   1.00
N1797  N    -0.00000   0.75000   0.95069   0.00000  Uiso   1.00
N1798  N     0.00000   0.75000   0.71598   0.00000  Uiso   1.00
N1799  N     0.25000   0.50000   0.95069   0.00000  Uiso   1.00
N1800  N     0.25000   0.50000   0.71598   0.00000  Uiso   1.00
O1801  O     0.04508   0.70491   0.87291   0.00000  Uiso   1.00
O1802  O     0.20491   0.54509   0.79375   0.00000  Uiso   1.00
O1803  O     0.20491   0.54509   0.87291   0.00000  Uiso   1.00
O1804  O     0.29508   0.95491   0.79375   0.00000  Uiso   1.00
O1805  O     0.20491   0.95491   0.79375   0.00000  Uiso   1.00
O1806  O     0.29508   0.54509   0.87291   0.00000  Uiso   1.00
O1807  O     0.29508   0.54509   0.79375   0.00000  Uiso   1.00
O1808  O     0.20491   0.95491   0.87291   0.00000  Uiso   1.00
O1809  O     0.47530   0.61149   0.70303   0.00000  Uiso   1.00
O1810  O     0.04579   0.62834   0.71154   0.00000  Uiso   1.00
O1811  O     0.49953   0.63987   0.77925   0.00000  Uiso   1.00
O1812  O     0.45491   0.79509   0.79375   0.00000  Uiso   1.00
O1813  O     0.47530   0.88851   0.96364   0.00000  Uiso   1.00
O1814  O     0.04579   0.87166   0.95512   0.00000  Uiso   1.00
O1815  O     0.49953   0.86013   0.88742   0.00000  Uiso   1.00
O1816  O     0.02472   0.88850   0.70306   0.00000  Uiso   1.00
O1817  O     0.45422   0.87167   0.71156   0.00000  Uiso   1.00
O1818  O     0.00048   0.86013   0.77927   0.00000  Uiso   1.00
O1819  O     0.02471   0.61149   0.96361   0.00000  Uiso   1.00
O1820  O     0.45422   0.62833   0.95511   0.00000  Uiso   1.00
O1821  O     0.00048   0.63987   0.88740   0.00000  Uiso   1.00
O1822  O     0.22531   0.86148   0.70303   0.00000  Uiso   1.00
O1823  O     0.45491   0.79509   0.87291   0.00000  Uiso   1.00
O1824  O     0.29580   0.87835   0.71154   0.00000  Uiso   1.00
O1825  O     0.24952   0.88987   0.77925   0.00000  Uiso   1.00
O1826  O     0.22526   0.63849   0.96363   0.00000  Uiso   1.00
O1827  O     0.29576   0.62169   0.95513   0.00000  Uiso   1.00
O1828  O     0.24952   0.61013   0.88741   0.00000  Uiso   1.00
O1829  O     0.27471   0.63851   0.70306   0.00000  Uiso   1.00
O1830  O     0.20422   0.62167   0.71156   0.00000  Uiso   1.00
O1831  O     0.25048   0.61013   0.77927   0.00000  Uiso   1.00
O1832  O     0.27473   0.86150   0.96361   0.00000  Uiso   1.00
O1833  O     0.20423   0.87832   0.95511   0.00000  Uiso   1.00
O1834  O     0.04508   0.70491   0.79375   0.00000  Uiso   1.00
O1835  O     0.25048   0.88987   0.88740   0.00000  Uiso   1.00
O1836  O     0.45491   0.70491   0.79375   0.00000  Uiso   1.00
O1837  O     0.04508   0.79509   0.87291   0.00000  Uiso   1.00
O1838  O     0.04508   0.79509   0.79375   0.00000  Uiso   1.00
O1839  O     0.45491   0.70491   0.87291   0.00000  Uiso   1.00
O1840  O     0.29508   0.95491   0.87291   0.00000  Uiso   1.00
S1841  S     0.00485   0.64700   0.72193   0.00000  Uiso   1.00
S1842  S     0.00486   0.85300   0.94474   0.00000  Uiso   1.00
S1843  S     0.49515   0.85300   0.72195   0.00000  Uiso   1.00
S1844  S     0.49515   0.64700   0.94472   0.00000  Uiso   1.00
S1845  S     0.25486   0.89700   0.72193   0.00000  Uiso   1.00
S1846  S     0.25484   0.60300   0.94474   0.00000  Uiso   1.00
S1847  S     0.24515   0.60300   0.72195   0.00000  Uiso   1.00
S1848  S     0.24516   0.89700   0.94472   0.00000  Uiso   1.00
C1849  C     0.56192   0.69417   0.83343   0.00000  Uiso   1.00
C1850  C     0.50030   0.79395   0.97474   0.00000  Uiso   1.00
C1851  C     0.99970   0.79395   0.69193   0.00000  Uiso   1.00
C1852  C     0.99970   0.70605   0.97473   0.00000  Uiso   1.00
C1853  C     0.75030   0.95605   0.69193   0.00000  Uiso   1.00
C1854  C     0.75030   0.54395   0.97474   0.00000  Uiso   1.00
C1855  C     0.74970   0.54395   0.69193   0.00000  Uiso   1.00
C1856  C     0.74970   0.95605   0.97473   0.00000  Uiso   1.00
C1857  C     0.88673   0.64598   0.78999   0.00000  Uiso   1.00
C1858  C     0.61463   0.85304   0.87459   0.00000  Uiso   1.00
C1859  C     0.61329   0.85399   0.78999   0.00000  Uiso   1.00
C1860  C     0.93808   0.80583   0.83344   0.00000  Uiso   1.00
C1861  C     0.88537   0.64697   0.87458   0.00000  Uiso   1.00
C1862  C     0.61328   0.64600   0.87668   0.00000  Uiso   1.00
C1863  C     0.88538   0.85304   0.79208   0.00000  Uiso   1.00
C1864  C     0.88673   0.85402   0.87668   0.00000  Uiso   1.00
C1865  C     0.61462   0.64695   0.79208   0.00000  Uiso   1.00
C1866  C     0.63672   0.89599   0.78999   0.00000  Uiso   1.00
C1867  C     0.86461   0.60307   0.87459   0.00000  Uiso   1.00
C1868  C     0.86329   0.60397   0.78999   0.00000  Uiso   1.00
C1869  C     0.63539   0.89694   0.87459   0.00000  Uiso   1.00
C1870  C     0.86329   0.89603   0.87667   0.00000  Uiso   1.00
C1871  C     0.93808   0.69417   0.83323   0.00000  Uiso   1.00
C1872  C     0.63538   0.60305   0.79208   0.00000  Uiso   1.00
C1873  C     0.63671   0.60399   0.87667   0.00000  Uiso   1.00
C1874  C     0.86462   0.89694   0.79208   0.00000  Uiso   1.00
C1875  C     0.59834   0.83594   0.83257   0.00000  Uiso   1.00
C1876  C     0.90167   0.66405   0.83256   0.00000  Uiso   1.00
C1877  C     0.90167   0.83595   0.83410   0.00000  Uiso   1.00
C1878  C     0.59833   0.66405   0.83410   0.00000  Uiso   1.00
C1879  C     0.84833   0.58594   0.83257   0.00000  Uiso   1.00
C1880  C     0.65167   0.91405   0.83257   0.00000  Uiso   1.00
C1881  C     0.65167   0.58594   0.83410   0.00000  Uiso   1.00
C1882  C     0.56192   0.80583   0.83323   0.00000  Uiso   1.00
C1883  C     0.84834   0.91406   0.83409   0.00000  Uiso   1.00
C1884  C     0.89075   0.67421   0.74508   0.00000  Uiso   1.00
C1885  C     0.61942   0.81950   0.91584   0.00000  Uiso   1.00
C1886  C     0.60926   0.82574   0.74510   0.00000  Uiso   1.00
C1887  C     0.88057   0.68054   0.91582   0.00000  Uiso   1.00
C1888  C     0.60926   0.67424   0.92157   0.00000  Uiso   1.00
C1889  C     0.88058   0.81949   0.75083   0.00000  Uiso   1.00
C1890  C     0.89075   0.82579   0.92158   0.00000  Uiso   1.00
C1891  C     0.61942   0.68049   0.75082   0.00000  Uiso   1.00
C1892  C     0.64075   0.92423   0.74509   0.00000  Uiso   1.00
C1893  C     0.81192   0.94417   0.83343   0.00000  Uiso   1.00
C1894  C     0.86939   0.56956   0.91588   0.00000  Uiso   1.00
C1895  C     0.85927   0.57572   0.74510   0.00000  Uiso   1.00
C1896  C     0.63059   0.93048   0.91585   0.00000  Uiso   1.00
C1897  C     0.85927   0.92428   0.92156   0.00000  Uiso   1.00
C1898  C     0.63059   0.56950   0.75082   0.00000  Uiso   1.00
C1899  C     0.64073   0.57575   0.92157   0.00000  Uiso   1.00
C1900  C     0.86941   0.93047   0.75081   0.00000  Uiso   1.00
C1901  C     0.68808   0.55583   0.83344   0.00000  Uiso   1.00
C1902  C     0.68808   0.94417   0.83323   0.00000  Uiso   1.00
C1903  C     0.81192   0.55583   0.83323   0.00000  Uiso   1.00
C1904  C     0.50030   0.70605   0.69193   0.00000  Uiso   1.00
Cu1905 Cu    0.50000   0.75000   0.88022   0.00000  Uiso   1.00
Cu1906 Cu    0.50000   0.75000   0.78645   0.00000  Uiso   1.00
Cu1907 Cu    0.75000   0.50000   0.88022   0.00000  Uiso   1.00
Cu1908 Cu    0.75000   0.50000   0.78645   0.00000  Uiso   1.00
H1909  H     0.50800   0.60619   0.78585   0.00000  Uiso   1.00
H1910  H     0.89408   0.71343   0.75167   0.00000  Uiso   1.00
H1911  H     0.91631   0.66100   0.72465   0.00000  Uiso   1.00
H1912  H     0.59112   0.80812   0.93169   0.00000  Uiso   1.00
H1913  H     0.63583   0.78685   0.90429   0.00000  Uiso   1.00
H1914  H     0.63743   0.83601   0.94384   0.00000  Uiso   1.00
H1915  H     0.63661   0.82912   0.72373   0.00000  Uiso   1.00
H1916  H     0.60593   0.78652   0.75170   0.00000  Uiso   1.00
H1917  H     0.58371   0.83895   0.72465   0.00000  Uiso   1.00
H1918  H     0.90888   0.69187   0.93171   0.00000  Uiso   1.00
H1919  H     0.86422   0.71323   0.90422   0.00000  Uiso   1.00
H1920  H     0.50795   0.89383   0.88082   0.00000  Uiso   1.00
H1921  H     0.86250   0.66408   0.94379   0.00000  Uiso   1.00
H1922  H     0.63661   0.67087   0.94293   0.00000  Uiso   1.00
H1923  H     0.60592   0.71346   0.91498   0.00000  Uiso   1.00
H1924  H     0.58372   0.66102   0.94202   0.00000  Uiso   1.00
H1925  H     0.90889   0.80814   0.73496   0.00000  Uiso   1.00
H1926  H     0.86420   0.78681   0.76240   0.00000  Uiso   1.00
H1927  H     0.86254   0.83597   0.72285   0.00000  Uiso   1.00
H1928  H     0.86341   0.82918   0.94294   0.00000  Uiso   1.00
H1929  H     0.89410   0.78657   0.91500   0.00000  Uiso   1.00
H1930  H     0.91630   0.83902   0.94203   0.00000  Uiso   1.00
H1931  H     0.99201   0.89381   0.78587   0.00000  Uiso   1.00
H1932  H     0.59112   0.69188   0.73498   0.00000  Uiso   1.00
H1933  H     0.63585   0.71313   0.76237   0.00000  Uiso   1.00
H1934  H     0.63741   0.66397   0.72282   0.00000  Uiso   1.00
H1935  H     0.61341   0.92083   0.72372   0.00000  Uiso   1.00
H1936  H     0.64407   0.96345   0.75169   0.00000  Uiso   1.00
H1937  H     0.66631   0.91102   0.72466   0.00000  Uiso   1.00
H1938  H     0.84108   0.55815   0.93169   0.00000  Uiso   1.00
H1939  H     0.88585   0.53692   0.90437   0.00000  Uiso   1.00
H1940  H     0.88734   0.58612   0.94390   0.00000  Uiso   1.00
H1941  H     0.88660   0.57912   0.72372   0.00000  Uiso   1.00
H1942  H     0.99201   0.60619   0.88080   0.00000  Uiso   1.00
H1943  H     0.85595   0.53650   0.75171   0.00000  Uiso   1.00
H1944  H     0.83370   0.58892   0.72467   0.00000  Uiso   1.00
H1945  H     0.61417   0.96313   0.90431   0.00000  Uiso   1.00
H1946  H     0.61259   0.91397   0.94385   0.00000  Uiso   1.00
H1947  H     0.65889   0.94187   0.93169   0.00000  Uiso   1.00
H1948  H     0.88661   0.92090   0.94293   0.00000  Uiso   1.00
H1949  H     0.85594   0.96350   0.91495   0.00000  Uiso   1.00
H1950  H     0.83372   0.91108   0.94201   0.00000  Uiso   1.00
H1951  H     0.61417   0.53685   0.76236   0.00000  Uiso   1.00
H1952  H     0.61258   0.58601   0.72282   0.00000  Uiso   1.00
H1953  H     0.75826   0.85631   0.78590   0.00000  Uiso   1.00
H1954  H     0.65889   0.55812   0.73497   0.00000  Uiso   1.00
H1955  H     0.61339   0.57913   0.94293   0.00000  Uiso   1.00
H1956  H     0.64406   0.53653   0.91496   0.00000  Uiso   1.00
H1957  H     0.66628   0.58895   0.94202   0.00000  Uiso   1.00
H1958  H     0.88588   0.96310   0.76234   0.00000  Uiso   1.00
H1959  H     0.88738   0.91393   0.72279   0.00000  Uiso   1.00
H1960  H     0.84112   0.94190   0.73499   0.00000  Uiso   1.00
H1961  H     0.75790   0.64384   0.88083   0.00000  Uiso   1.00
H1962  H     0.74193   0.64378   0.78589   0.00000  Uiso   1.00
H1963  H     0.74199   0.85620   0.88079   0.00000  Uiso   1.00
H1964  H     0.86342   0.67081   0.72371   0.00000  Uiso   1.00
N1965  N     0.50000   0.75000   0.95069   0.00000  Uiso   1.00
N1966  N     0.50000   0.75000   0.71598   0.00000  Uiso   1.00
N1967  N     0.75000   0.50000   0.95069   0.00000  Uiso   1.00
N1968  N     0.75000   0.50000   0.71598   0.00000  Uiso   1.00
O1969  O     0.54508   0.70491   0.87291   0.00000  Uiso   1.00
O1970  O     0.70491   0.54509   0.79375   0.00000  Uiso   1.00
O1971  O     0.70491   0.54509   0.87291   0.00000  Uiso   1.00
O1972  O     0.79508   0.95491   0.79375   0.00000  Uiso   1.00
O1973  O     0.70491   0.95491   0.79375   0.00000  Uiso   1.00
O1974  O     0.79508   0.54509   0.87291   0.00000  Uiso   1.00
O1975  O     0.79508   0.54509   0.79375   0.00000  Uiso   1.00
O1976  O     0.70491   0.95491   0.87291   0.00000  Uiso   1.00
O1977  O     0.97530   0.61149   0.70303   0.00000  Uiso   1.00
O1978  O     0.54579   0.62834   0.71154   0.00000  Uiso   1.00
O1979  O     0.99953   0.63987   0.77925   0.00000  Uiso   1.00
O1980  O     0.95491   0.79509   0.79375   0.00000  Uiso   1.00
O1981  O     0.97530   0.88851   0.96364   0.00000  Uiso   1.00
O1982  O     0.54579   0.87166   0.95512   0.00000  Uiso   1.00
O1983  O     0.99953   0.86013   0.88742   0.00000  Uiso   1.00
O1984  O     0.52472   0.88850   0.70306   0.00000  Uiso   1.00
O1985  O     0.95422   0.87167   0.71156   0.00000  Uiso   1.00
O1986  O     0.50048   0.86013   0.77927   0.00000  Uiso   1.00
O1987  O     0.52471   0.61149   0.96361   0.00000  Uiso   1.00
O1988  O     0.95422   0.62833   0.95511   0.00000  Uiso   1.00
O1989  O     0.50048   0.63987   0.88740   0.00000  Uiso   1.00
O1990  O     0.72531   0.86148   0.70303   0.00000  Uiso   1.00
O1991  O     0.95491   0.79509   0.87291   0.00000  Uiso   1.00
O1992  O     0.79580   0.87835   0.71154   0.00000  Uiso   1.00
O1993  O     0.74952   0.88987   0.77925   0.00000  Uiso   1.00
O1994  O     0.72526   0.63849   0.96363   0.00000  Uiso   1.00
O1995  O     0.79576   0.62169   0.95513   0.00000  Uiso   1.00
O1996  O     0.74952   0.61013   0.88741   0.00000  Uiso   1.00
O1997  O     0.77471   0.63851   0.70306   0.00000  Uiso   1.00
O1998  O     0.70422   0.62167   0.71156   0.00000  Uiso   1.00
O1999  O     0.75048   0.61013   0.77927   0.00000  Uiso   1.00
O2000  O     0.77473   0.86150   0.96361   0.00000  Uiso   1.00
O2001  O     0.70423   0.87832   0.95511   0.00000  Uiso   1.00
O2002  O     0.54508   0.70491   0.79375   0.00000  Uiso   1.00
O2003  O     0.75048   0.88987   0.88740   0.00000  Uiso   1.00
O2004  O     0.95491   0.70491   0.79375   0.00000  Uiso   1.00
O2005  O     0.54508   0.79509   0.87291   0.00000  Uiso   1.00
O2006  O     0.54508   0.79509   0.79375   0.00000  Uiso   1.00
O2007  O     0.95491   0.70491   0.87291   0.00000  Uiso   1.00
O2008  O     0.79508   0.95491   0.87291   0.00000  Uiso   1.00
S2009  S     0.50485   0.64700   0.72193   0.00000  Uiso   1.00
S2010  S     0.50486   0.85300   0.94474   0.00000  Uiso   1.00
S2011  S     0.99515   0.85300   0.72195   0.00000  Uiso   1.00
S2012  S     0.99515   0.64700   0.94472   0.00000  Uiso   1.00
S2013  S     0.75486   0.89700   0.72193   0.00000  Uiso   1.00
S2014  S     0.75484   0.60300   0.94474   0.00000  Uiso   1.00
S2015  S     0.74515   0.60300   0.72195   0.00000  Uiso   1.00
S2016  S     0.74516   0.89700   0.94472   0.00000  Uiso   1.00
loop_
_geom_bond_atom_site_label_1
_geom_bond_atom_site_label_2
_geom_bond_distance
_geom_bond_site_symmetry_2
_ccdc_geom_bond_type
C1     C30     1.480   .     S
C1     O154    1.311   .     A
C1     O121    1.306   .     A
C2     S162    1.852   .     S
C2     C843    1.458   1_455 S
C2     N117    1.398   .     S
C3     S163    1.852   .     S
C3     C1514   1.458   1_554 S
C3     N286    1.398   .     S
C4     S164    1.852   .     S
C4     N285    1.398   .     A
C4     C896    1.458   .     S
C5     S165    1.852   .     S
C5     N456    1.398   .     A
C5     C1352   1.458   1_554 S
C6     S166    1.852   .     S
C6     C679    1.458   .     S
C6     N119    1.398   .     S
C7     S167    1.852   .     S
C7     C1350   1.458   1_554 S
C7     N120    1.398   .     S
C8     S168    1.852   .     S
C8     N455    1.398   .     A
C8     C677    1.458   .     S
C9     C36     1.518   .     S
C9     C20     1.402   .     A
C9     C28     1.417   .     A
C10    C27     1.411   .     A
C10    C37     1.517   .     S
C10    C21     1.399   .     A
C11    C18     1.402   .     A
C11    C27     1.417   .     A
C11    C38     1.518   .     S
C12    C29     1.480   .     S
C12    O132    1.311   .     A
C12    O143    1.306   .     A
C13    C28     1.411   .     A
C13    C19     1.399   .     A
C13    C39     1.517   .     S
C14    C30     1.417   .     A
C14    C25     1.402   .     A
C14    C40     1.518   .     S
C15    C29     1.411   .     A
C15    C41     1.517   .     S
C15    C26     1.399   .     A
C16    C42     1.518   .     S
C16    C22     1.402   .     A
C16    C29     1.418   .     A
C17    C30     1.411   .     A
C17    C24     1.399   .     A
C17    C43     1.517   .     S
C18    C44     1.518   .     S
C18    C32     1.417   .     A
C19    C31     1.411   .     A
C19    C46     1.517   .     S
C20    C47     1.518   .     S
C20    C31     1.418   .     A
C21    C48     1.517   .     S
C21    C32     1.411   .     A
C22    C35     1.417   .     A
C22    C49     1.518   .     S
C23    O159    1.311   .     A
C23    O156    1.306   .     A
C23    C28     1.480   .     S
C24    C50     1.517   .     S
C24    C33     1.411   .     A
C25    C51     1.518   .     S
C25    C33     1.417   .     A
C26    C52     1.517   .     S
C26    C35     1.411   .     A
C27    C34     1.480   .     S
C31    C55     1.480   .     S
C32    C54     1.480   .     S
C33    C53     1.480   .     S
C34    O158    1.306   .     A
C34    O157    1.311   .     A
C35    C45     1.480   .     S
C36    H63     1.104   .     S
C36    H62     1.105   .     S
C36    H116    1.111   .     S
C37    H65     1.108   .     S
C37    H66     1.107   .     S
C37    H64     1.101   .     S
C38    H69     1.104   .     S
C38    H68     1.105   .     S
C38    H67     1.111   .     S
C39    H71     1.109   .     S
C39    H70     1.102   .     S
C39    H73     1.108   .     S
C40    H75     1.105   .     S
C40    H74     1.111   .     S
C40    H76     1.104   .     S
C41    H77     1.101   .     S
C41    H78     1.108   .     S
C41    H79     1.108   .     S
C42    H82     1.104   .     S
C42    H80     1.111   .     S
C42    H81     1.105   .     S
C43    H84     1.101   .     S
C43    H86     1.107   .     S
C43    H85     1.108   .     S
C44    H87     1.111   .     S
C44    H88     1.105   .     S
C44    H89     1.104   .     S
C45    O160    1.306   .     A
C45    O124    1.311   .     A
C46    H92     1.108   .     S
C46    H91     1.109   .     S
C46    H90     1.101   .     S
C47    H96     1.104   .     S
C47    H93     1.111   .     S
C47    H95     1.105   .     S
C48    H97     1.108   .     S
C48    H99     1.101   .     S
C48    H98     1.107   .     S
C49    H102    1.104   .     S
C49    H100    1.111   .     S
C49    H101    1.105   .     S
C50    H104    1.107   .     S
C50    H103    1.108   .     S
C50    H106    1.101   .     S
C51    H108    1.105   .     S
C51    H107    1.111   .     S
C51    H109    1.104   .     S
C52    H112    1.101   .     S
C52    H111    1.107   .     S
C52    H110    1.108   .     S
C53    O122    1.311   .     A
C53    O123    1.306   .     A
C54    O125    1.306   .     A
C54    O128    1.311   .     A
C55    O126    1.311   .     A
C55    O127    1.306   .     A
C56    S161    1.852   .     S
C56    N118    1.398   .     A
C56    C1516   1.458   1_454 S
Cu57   O157    1.973   .     S
Cu57   O121    1.973   .     S
Cu57   Cu58    2.705   .     S
Cu57   N117    2.033   .     S
Cu57   O311    1.973   1_455 S
Cu57   O327    1.973   1_455 S
Cu58   O300    1.973   1_455 S
Cu58   O324    1.973   1_455 S
Cu58   N118    2.033   .     S
Cu58   O154    1.973   .     S
Cu58   O158    1.973   .     S
Cu59   N119    2.033   .     S
Cu59   O464    1.973   1_545 S
Cu59   O496    1.973   1_545 S
Cu59   Cu60    2.705   .     S
Cu59   O123    1.973   .     S
Cu59   O126    1.973   .     S
Cu60   O461    1.973   1_545 S
Cu60   O460    1.973   1_545 S
Cu60   N120    2.033   .     S
Cu60   O122    1.973   .     S
Cu60   O127    1.973   .     S
H61    O299    0.991   1_455 S
H72    O303    0.991   1_455 S
H83    O306    0.991   .     S
H94    O309    0.991   .     S
H105   O145    0.991   .     S
H113   O148    0.991   .     S
H114   O151    0.991   .     S
H115   O155    0.991   .     S
N117   C172    1.398   1_455 A
N118   C171    1.398   1_455 S
N119   C344    1.398   1_545 A
N120   C341    1.398   1_545 A
O124   Cu396   1.973   .     S
O125   Cu396   1.973   .     S
O128   Cu395   1.973   .     S
O129   S329    1.499   .     S
O130   S161    1.500   .     D
O131   H229    0.991   .     S
O131   S329    1.675   .     S
O132   Cu226   1.973   .     S
O133   S330    1.499   .     S
O134   S162    1.500   .     D
O135   H240    0.991   .     S
O135   S330    1.675   .     S
O136   S331    1.499   1_455 S
O137   S163    1.500   .     D
O138   H251    0.991   1_455 S
O138   S331    1.675   1_455 S
O139   S332    1.499   1_455 S
O140   S164    1.500   .     D
O141   H262    0.991   1_455 S
O141   S332    1.675   1_455 S
O142   S165    1.499   .     D
O143   Cu225   1.973   .     S
O144   S165    1.500   .     D
O145   S165    1.675   .     S
O146   S166    1.499   .     D
O147   S166    1.500   .     D
O148   S166    1.675   .     S
O149   S167    1.499   .     D
O150   S167    1.500   .     D
O151   S167    1.675   .     S
O152   S168    1.499   .     D
O153   S168    1.500   .     D
O155   S168    1.675   .     S
O156   Cu226   1.973   .     S
O159   Cu225   1.973   .     S
O160   Cu395   1.973   .     S
S161   O297    1.499   1_455 S
S161   O299    1.675   1_455 S
S162   O303    1.675   1_455 S
S162   O301    1.499   1_455 S
S163   O304    1.499   .     S
S163   O306    1.675   .     S
S164   O309    1.675   .     S
S164   O307    1.499   .     S
C169   C198    1.480   .     S
C169   O322    1.311   .     A
C169   O289    1.306   .     A
C170   S330    1.852   .     S
C170   C675    1.458   .     S
C170   N285    1.398   .     S
C171   S331    1.852   .     S
C171   C1346   1.458   1_654 S
C171   N118    1.398   1_655 S
C172   S332    1.852   .     S
C172   N117    1.398   1_655 A
C172   C728    1.458   1_655 S
C173   S333    1.852   .     S
C173   N624    1.398   .     A
C173   C1520   1.458   1_554 S
C174   S334    1.852   .     S
C174   C847    1.458   .     S
C174   N287    1.398   .     S
C175   S335    1.852   .     S
C175   C1518   1.458   1_554 S
C175   N288    1.398   .     S
C176   S336    1.852   .     S
C176   N623    1.398   .     A
C176   C845    1.458   .     S
C177   C204    1.518   .     S
C177   C188    1.402   .     A
C177   C196    1.417   .     A
C178   C195    1.411   .     A
C178   C205    1.517   .     S
C178   C189    1.399   .     A
C179   C186    1.402   .     A
C179   C195    1.417   .     A
C179   C206    1.518   .     S
C180   C197    1.480   .     S
C180   O300    1.311   .     A
C180   O311    1.306   .     A
C181   C196    1.411   .     A
C181   C187    1.399   .     A
C181   C207    1.517   .     S
C182   C198    1.417   .     A
C182   C193    1.402   .     A
C182   C208    1.518   .     S
C183   C197    1.411   .     A
C183   C209    1.517   .     S
C183   C194    1.399   .     A
C184   C210    1.518   .     S
C184   C190    1.402   .     A
C184   C197    1.418   .     A
C185   C198    1.411   .     A
C185   C192    1.399   .     A
C185   C211    1.517   .     S
C186   C212    1.518   .     S
C186   C200    1.417   .     A
C187   C199    1.411   .     A
C187   C214    1.517   .     S
C188   C215    1.518   .     S
C188   C199    1.418   .     A
C189   C216    1.517   .     S
C189   C200    1.411   .     A
C190   C203    1.417   .     A
C190   C217    1.518   .     S
C191   O327    1.311   .     A
C191   O324    1.306   .     A
C191   C196    1.480   .     S
C192   C218    1.517   .     S
C192   C201    1.411   .     A
C193   C219    1.518   .     S
C193   C201    1.417   .     A
C194   C220    1.517   .     S
C194   C203    1.411   .     A
C195   C202    1.480   .     S
C199   C223    1.480   .     S
C200   C222    1.480   .     S
C201   C221    1.480   .     S
C202   O326    1.306   .     A
C202   O325    1.311   .     A
C203   C213    1.480   .     S
C204   H231    1.104   .     S
C204   H230    1.105   .     S
C204   H284    1.111   .     S
C205   H233    1.108   .     S
C205   H234    1.107   .     S
C205   H232    1.101   .     S
C206   H237    1.104   .     S
C206   H236    1.105   .     S
C206   H235    1.111   .     S
C207   H239    1.109   .     S
C207   H238    1.102   .     S
C207   H241    1.108   .     S
C208   H243    1.105   .     S
C208   H242    1.111   .     S
C208   H244    1.104   .     S
C209   H245    1.101   .     S
C209   H246    1.108   .     S
C209   H247    1.108   .     S
C210   H250    1.104   .     S
C210   H248    1.111   .     S
C210   H249    1.105   .     S
C211   H252    1.101   .     S
C211   H254    1.107   .     S
C211   H253    1.108   .     S
C212   H255    1.111   .     S
C212   H256    1.105   .     S
C212   H257    1.104   .     S
C213   O328    1.306   .     A
C213   O292    1.311   .     A
C214   H260    1.108   .     S
C214   H259    1.109   .     S
C214   H258    1.101   .     S
C215   H264    1.104   .     S
C215   H261    1.111   .     S
C215   H263    1.105   .     S
C216   H265    1.108   .     S
C216   H267    1.101   .     S
C216   H266    1.107   .     S
C217   H270    1.104   .     S
C217   H268    1.111   .     S
C217   H269    1.105   .     S
C218   H272    1.107   .     S
C218   H271    1.108   .     S
C218   H274    1.101   .     S
C219   H276    1.105   .     S
C219   H275    1.111   .     S
C219   H277    1.104   .     S
C220   H280    1.101   .     S
C220   H279    1.107   .     S
C220   H278    1.108   .     S
C221   O290    1.311   .     A
C221   O291    1.306   .     A
C222   O293    1.306   .     A
C222   O296    1.311   .     A
C223   O294    1.311   .     A
C223   O295    1.306   .     A
C224   S329    1.852   .     S
C224   N286    1.398   .     A
C224   C1348   1.458   1_554 S
Cu225  O325    1.973   .     S
Cu225  O289    1.973   .     S
Cu225  Cu226   2.705   .     S
Cu225  N285    2.033   .     S
Cu226  N286    2.033   .     S
Cu226  O322    1.973   .     S
Cu226  O326    1.973   .     S
Cu227  N287    2.033   .     S
Cu227  O632    1.973   1_545 S
Cu227  O664    1.973   1_545 S
Cu227  Cu228   2.705   .     S
Cu227  O291    1.973   .     S
Cu227  O294    1.973   .     S
Cu228  O629    1.973   1_545 S
Cu228  O628    1.973   1_545 S
Cu228  N288    2.033   .     S
Cu228  O290    1.973   .     S
Cu228  O295    1.973   .     S
H251   O138    0.991   1_655 S
H262   O141    0.991   1_655 S
H273   O313    0.991   .     S
H281   O316    0.991   .     S
H282   O319    0.991   .     S
H283   O323    0.991   .     S
N287   C512    1.398   1_545 A
N288   C509    1.398   1_545 A
O292   Cu564   1.973   .     S
O293   Cu564   1.973   .     S
O296   Cu563   1.973   .     S
O297   S161    1.499   1_655 S
O298   S329    1.500   .     D
O299   H61     0.991   1_655 S
O299   S161    1.675   1_655 S
O300   Cu58    1.973   1_655 S
O301   S162    1.499   1_655 S
O302   S330    1.500   .     D
O303   H72     0.991   1_655 S
O303   S162    1.675   1_655 S
O305   S331    1.500   .     D
O308   S332    1.500   .     D
O310   S333    1.499   .     D
O311   Cu57    1.973   1_655 S
O312   S333    1.500   .     D
O313   S333    1.675   .     S
O314   S334    1.499   .     D
O315   S334    1.500   .     D
O316   S334    1.675   .     S
O317   S335    1.499   .     D
O318   S335    1.500   .     D
O319   S335    1.675   .     S
O320   S336    1.499   .     D
O321   S336    1.500   .     D
O323   S336    1.675   .     S
O324   Cu58    1.973   1_655 S
O327   Cu57    1.973   1_655 S
O328   Cu563   1.973   .     S
S331   O136    1.499   1_655 S
S331   O138    1.675   1_655 S
S332   O141    1.675   1_655 S
S332   O139    1.499   1_655 S
C337   C366    1.480   .     S
C337   O490    1.311   .     A
C337   O457    1.306   .     A
C338   S498    1.852   .     S
C338   C1179   1.458   1_455 S
C338   N453    1.398   .     S
C339   S499    1.852   .     S
C339   C1850   1.458   1_554 S
C339   N622    1.398   .     S
C340   S500    1.852   .     S
C340   N621    1.398   .     A
C340   C1232   1.458   .     S
C341   S501    1.852   .     S
C341   N120    1.398   1_565 A
C341   C1688   1.458   1_554 S
C342   S502    1.852   .     S
C342   C1015   1.458   .     S
C342   N455    1.398   .     S
C343   S503    1.852   .     S
C343   C1686   1.458   1_554 S
C343   N456    1.398   .     S
C344   S504    1.852   .     S
C344   N119    1.398   1_565 A
C344   C1013   1.458   .     S
C345   C372    1.518   .     S
C345   C356    1.402   .     A
C345   C364    1.417   .     A
C346   C363    1.411   .     A
C346   C373    1.517   .     S
C346   C357    1.399   .     A
C347   C354    1.402   .     A
C347   C363    1.417   .     A
C347   C374    1.518   .     S
C348   C365    1.480   .     S
C348   O468    1.311   .     A
C348   O479    1.306   .     A
C349   C364    1.411   .     A
C349   C355    1.399   .     A
C349   C375    1.517   .     S
C350   C366    1.417   .     A
C350   C361    1.402   .     A
C350   C376    1.518   .     S
C351   C365    1.411   .     A
C351   C377    1.517   .     S
C351   C362    1.399   .     A
C352   C378    1.518   .     S
C352   C358    1.402   .     A
C352   C365    1.418   .     A
C353   C366    1.411   .     A
C353   C360    1.399   .     A
C353   C379    1.517   .     S
C354   C380    1.518   .     S
C354   C368    1.417   .     A
C355   C367    1.411   .     A
C355   C382    1.517   .     S
C356   C383    1.518   .     S
C356   C367    1.418   .     A
C357   C384    1.517   .     S
C357   C368    1.411   .     A
C358   C371    1.417   .     A
C358   C385    1.518   .     S
C359   O495    1.311   .     A
C359   O492    1.306   .     A
C359   C364    1.480   .     S
C360   C386    1.517   .     S
C360   C369    1.411   .     A
C361   C387    1.518   .     S
C361   C369    1.417   .     A
C362   C388    1.517   .     S
C362   C371    1.411   .     A
C363   C370    1.480   .     S
C367   C391    1.480   .     S
C368   C390    1.480   .     S
C369   C389    1.480   .     S
C370   O494    1.306   .     A
C370   O493    1.311   .     A
C371   C381    1.480   .     S
C372   H399    1.104   .     S
C372   H398    1.105   .     S
C372   H452    1.111   .     S
C373   H401    1.108   .     S
C373   H402    1.107   .     S
C373   H400    1.101   .     S
C374   H405    1.104   .     S
C374   H404    1.105   .     S
C374   H403    1.111   .     S
C375   H407    1.109   .     S
C375   H406    1.102   .     S
C375   H409    1.108   .     S
C376   H411    1.105   .     S
C376   H410    1.111   .     S
C376   H412    1.104   .     S
C377   H413    1.101   .     S
C377   H414    1.108   .     S
C377   H415    1.108   .     S
C378   H418    1.104   .     S
C378   H416    1.111   .     S
C378   H417    1.105   .     S
C379   H420    1.101   .     S
C379   H422    1.107   .     S
C379   H421    1.108   .     S
C380   H423    1.111   .     S
C380   H424    1.105   .     S
C380   H425    1.104   .     S
C381   O496    1.306   .     A
C381   O460    1.311   .     A
C382   H428    1.108   .     S
C382   H427    1.109   .     S
C382   H426    1.101   .     S
C383   H432    1.104   .     S
C383   H429    1.111   .     S
C383   H431    1.105   .     S
C384   H433    1.108   .     S
C384   H435    1.101   .     S
C384   H434    1.107   .     S
C385   H438    1.104   .     S
C385   H436    1.111   .     S
C385   H437    1.105   .     S
C386   H440    1.107   .     S
C386   H439    1.108   .     S
C386   H442    1.101   .     S
C387   H444    1.105   .     S
C387   H443    1.111   .     S
C387   H445    1.104   .     S
C388   H448    1.101   .     S
C388   H447    1.107   .     S
C388   H446    1.108   .     S
C389   O458    1.311   .     A
C389   O459    1.306   .     A
C390   O461    1.306   .     A
C390   O464    1.311   .     A
C391   O462    1.311   .     A
C391   O463    1.306   .     A
C392   S497    1.852   .     S
C392   N454    1.398   .     A
C392   C1852   1.458   1_454 S
Cu393  O493    1.973   .     S
Cu393  O457    1.973   .     S
Cu393  Cu394   2.705   .     S
Cu393  N453    2.033   .     S
Cu393  O647    1.973   1_455 S
Cu393  O663    1.973   1_455 S
Cu394  O636    1.973   1_455 S
Cu394  O660    1.973   1_455 S
Cu394  N454    2.033   .     S
Cu394  O490    1.973   .     S
Cu394  O494    1.973   .     S
Cu395  N455    2.033   .     S
Cu395  Cu396   2.705   .     S
Cu395  O459    1.973   .     S
Cu395  O462    1.973   .     S
Cu396  N456    2.033   .     S
Cu396  O458    1.973   .     S
Cu396  O463    1.973   .     S
H397   O635    0.991   1_455 S
H408   O639    0.991   1_455 S
H419   O642    0.991   .     S
H430   O645    0.991   .     S
H441   O481    0.991   .     S
H449   O484    0.991   .     S
H450   O487    0.991   .     S
H451   O491    0.991   .     S
N453   C508    1.398   1_455 A
N454   C507    1.398   1_455 S
O460   Cu60    1.973   1_565 S
O461   Cu60    1.973   1_565 S
O464   Cu59    1.973   1_565 S
O465   S665    1.499   .     S
O466   S497    1.500   .     D
O467   H565    0.991   .     S
O467   S665    1.675   .     S
O468   Cu562   1.973   .     S
O469   S666    1.499   .     S
O470   S498    1.500   .     D
O471   H576    0.991   .     S
O471   S666    1.675   .     S
O472   S667    1.499   1_455 S
O473   S499    1.500   .     D
O474   H587    0.991   1_455 S
O474   S667    1.675   1_455 S
O475   S668    1.499   1_455 S
O476   S500    1.500   .     D
O477   H598    0.991   1_455 S
O477   S668    1.675   1_455 S
O478   S501    1.499   .     D
O479   Cu561   1.973   .     S
O480   S501    1.500   .     D
O481   S501    1.675   .     S
O482   S502    1.499   .     D
O483   S502    1.500   .     D
O484   S502    1.675   .     S
O485   S503    1.499   .     D
O486   S503    1.500   .     D
O487   S503    1.675   .     S
O488   S504    1.499   .     D
O489   S504    1.500   .     D
O491   S504    1.675   .     S
O492   Cu562   1.973   .     S
O495   Cu561   1.973   .     S
O496   Cu59    1.973   1_565 S
S497   O633    1.499   1_455 S
S497   O635    1.675   1_455 S
S498   O639    1.675   1_455 S
S498   O637    1.499   1_455 S
S499   O640    1.499   .     S
S499   O642    1.675   .     S
S500   O645    1.675   .     S
S500   O643    1.499   .     S
C505   C534    1.480   .     S
C505   O658    1.311   .     A
C505   O625    1.306   .     A
C506   S666    1.852   .     S
C506   C1011   1.458   .     S
C506   N621    1.398   .     S
C507   S667    1.852   .     S
C507   C1682   1.458   1_654 S
C507   N454    1.398   1_655 S
C508   S668    1.852   .     S
C508   N453    1.398   1_655 A
C508   C1064   1.458   1_655 S
C509   S669    1.852   .     S
C509   N288    1.398   1_565 A
C509   C1856   1.458   1_554 S
C510   S670    1.852   .     S
C510   C1183   1.458   .     S
C510   N623    1.398   .     S
C511   S671    1.852   .     S
C511   C1854   1.458   1_554 S
C511   N624    1.398   .     S
C512   S672    1.852   .     S
C512   N287    1.398   1_565 A
C512   C1181   1.458   .     S
C513   C540    1.518   .     S
C513   C524    1.402   .     A
C513   C532    1.417   .     A
C514   C531    1.411   .     A
C514   C541    1.517   .     S
C514   C525    1.399   .     A
C515   C522    1.402   .     A
C515   C531    1.417   .     A
C515   C542    1.518   .     S
C516   C533    1.480   .     S
C516   O636    1.311   .     A
C516   O647    1.306   .     A
C517   C532    1.411   .     A
C517   C523    1.399   .     A
C517   C543    1.517   .     S
C518   C534    1.417   .     A
C518   C529    1.402   .     A
C518   C544    1.518   .     S
C519   C533    1.411   .     A
C519   C545    1.517   .     S
C519   C530    1.399   .     A
C520   C546    1.518   .     S
C520   C526    1.402   .     A
C520   C533    1.418   .     A
C521   C534    1.411   .     A
C521   C528    1.399   .     A
C521   C547    1.517   .     S
C522   C548    1.518   .     S
C522   C536    1.417   .     A
C523   C535    1.411   .     A
C523   C550    1.517   .     S
C524   C551    1.518   .     S
C524   C535    1.418   .     A
C525   C552    1.517   .     S
C525   C536    1.411   .     A
C526   C539    1.417   .     A
C526   C553    1.518   .     S
C527   O663    1.311   .     A
C527   O660    1.306   .     A
C527   C532    1.480   .     S
C528   C554    1.517   .     S
C528   C537    1.411   .     A
C529   C555    1.518   .     S
C529   C537    1.417   .     A
C530   C556    1.517   .     S
C530   C539    1.411   .     A
C531   C538    1.480   .     S
C535   C559    1.480   .     S
C536   C558    1.480   .     S
C537   C557    1.480   .     S
C538   O662    1.306   .     A
C538   O661    1.311   .     A
C539   C549    1.480   .     S
C540   H567    1.104   .     S
C540   H566    1.105   .     S
C540   H620    1.111   .     S
C541   H569    1.108   .     S
C541   H570    1.107   .     S
C541   H568    1.101   .     S
C542   H573    1.104   .     S
C542   H572    1.105   .     S
C542   H571    1.111   .     S
C543   H575    1.109   .     S
C543   H574    1.102   .     S
C543   H577    1.108   .     S
C544   H579    1.105   .     S
C544   H578    1.111   .     S
C544   H580    1.104   .     S
C545   H581    1.101   .     S
C545   H582    1.108   .     S
C545   H583    1.108   .     S
C546   H586    1.104   .     S
C546   H584    1.111   .     S
C546   H585    1.105   .     S
C547   H588    1.101   .     S
C547   H590    1.107   .     S
C547   H589    1.108   .     S
C548   H591    1.111   .     S
C548   H592    1.105   .     S
C548   H593    1.104   .     S
C549   O664    1.306   .     A
C549   O628    1.311   .     A
C550   H596    1.108   .     S
C550   H595    1.109   .     S
C550   H594    1.101   .     S
C551   H600    1.104   .     S
C551   H597    1.111   .     S
C551   H599    1.105   .     S
C552   H601    1.108   .     S
C552   H603    1.101   .     S
C552   H602    1.107   .     S
C553   H606    1.104   .     S
C553   H604    1.111   .     S
C553   H605    1.105   .     S
C554   H608    1.107   .     S
C554   H607    1.108   .     S
C554   H610    1.101   .     S
C555   H612    1.105   .     S
C555   H611    1.111   .     S
C555   H613    1.104   .     S
C556   H616    1.101   .     S
C556   H615    1.107   .     S
C556   H614    1.108   .     S
C557   O626    1.311   .     A
C557   O627    1.306   .     A
C558   O629    1.306   .     A
C558   O632    1.311   .     A
C559   O630    1.311   .     A
C559   O631    1.306   .     A
C560   S665    1.852   .     S
C560   N622    1.398   .     A
C560   C1684   1.458   1_554 S
Cu561  O661    1.973   .     S
Cu561  O625    1.973   .     S
Cu561  Cu562   2.705   .     S
Cu561  N621    2.033   .     S
Cu562  N622    2.033   .     S
Cu562  O658    1.973   .     S
Cu562  O662    1.973   .     S
Cu563  N623    2.033   .     S
Cu563  Cu564   2.705   .     S
Cu563  O627    1.973   .     S
Cu563  O630    1.973   .     S
Cu564  N624    2.033   .     S
Cu564  O626    1.973   .     S
Cu564  O631    1.973   .     S
H587   O474    0.991   1_655 S
H598   O477    0.991   1_655 S
H609   O649    0.991   .     S
H617   O652    0.991   .     S
H618   O655    0.991   .     S
H619   O659    0.991   .     S
O628   Cu228   1.973   1_565 S
O629   Cu228   1.973   1_565 S
O632   Cu227   1.973   1_565 S
O633   S497    1.499   1_655 S
O634   S665    1.500   .     D
O635   H397    0.991   1_655 S
O635   S497    1.675   1_655 S
O636   Cu394   1.973   1_655 S
O637   S498    1.499   1_655 S
O638   S666    1.500   .     D
O639   H408    0.991   1_655 S
O639   S498    1.675   1_655 S
O641   S667    1.500   .     D
O644   S668    1.500   .     D
O646   S669    1.499   .     D
O647   Cu393   1.973   1_655 S
O648   S669    1.500   .     D
O649   S669    1.675   .     S
O650   S670    1.499   .     D
O651   S670    1.500   .     D
O652   S670    1.675   .     S
O653   S671    1.499   .     D
O654   S671    1.500   .     D
O655   S671    1.675   .     S
O656   S672    1.499   .     D
O657   S672    1.500   .     D
O659   S672    1.675   .     S
O660   Cu394   1.973   1_655 S
O663   Cu393   1.973   1_655 S
O664   Cu227   1.973   1_565 S
S667   O472    1.499   1_655 S
S667   O474    1.675   1_655 S
S668   O477    1.675   1_655 S
S668   O475    1.499   1_655 S
C673   C702    1.480   .     S
C673   O826    1.311   .     A
C673   O793    1.306   .     A
C674   S834    1.852   .     S
C674   C1515   1.458   1_455 S
C674   N789    1.398   .     S
C675   S835    1.852   .     S
C675   N958    1.398   .     S
C676   S836    1.852   .     S
C676   N957    1.398   .     A
C676   C1568   1.458   .     S
C677   S837    1.852   .     S
C677   N1128   1.398   .     A
C678   S838    1.852   .     S
C678   C1351   1.458   .     S
C678   N791    1.398   .     S
C679   S839    1.852   .     S
C679   N792    1.398   .     S
C680   S840    1.852   .     S
C680   N1127   1.398   .     A
C680   C1349   1.458   .     S
C681   C708    1.518   .     S
C681   C692    1.402   .     A
C681   C700    1.417   .     A
C682   C699    1.411   .     A
C682   C709    1.517   .     S
C682   C693    1.399   .     A
C683   C690    1.402   .     A
C683   C699    1.417   .     A
C683   C710    1.518   .     S
C684   C701    1.480   .     S
C684   O804    1.311   .     A
C684   O815    1.306   .     A
C685   C700    1.411   .     A
C685   C691    1.399   .     A
C685   C711    1.517   .     S
C686   C702    1.417   .     A
C686   C697    1.402   .     A
C686   C712    1.518   .     S
C687   C701    1.411   .     A
C687   C713    1.517   .     S
C687   C698    1.399   .     A
C688   C714    1.518   .     S
C688   C694    1.402   .     A
C688   C701    1.418   .     A
C689   C702    1.411   .     A
C689   C696    1.399   .     A
C689   C715    1.517   .     S
C690   C716    1.518   .     S
C690   C704    1.417   .     A
C691   C703    1.411   .     A
C691   C718    1.517   .     S
C692   C719    1.518   .     S
C692   C703    1.418   .     A
C693   C720    1.517   .     S
C693   C704    1.411   .     A
C694   C707    1.417   .     A
C694   C721    1.518   .     S
C695   O831    1.311   .     A
C695   O828    1.306   .     A
C695   C700    1.480   .     S
C696   C722    1.517   .     S
C696   C705    1.411   .     A
C697   C723    1.518   .     S
C697   C705    1.417   .     A
C698   C724    1.517   .     S
C698   C707    1.411   .     A
C699   C706    1.480   .     S
C703   C727    1.480   .     S
C704   C726    1.480   .     S
C705   C725    1.480   .     S
C706   O830    1.306   .     A
C706   O829    1.311   .     A
C707   C717    1.480   .     S
C708   H735    1.104   .     S
C708   H734    1.105   .     S
C708   H788    1.111   .     S
C709   H737    1.108   .     S
C709   H738    1.107   .     S
C709   H736    1.101   .     S
C710   H741    1.104   .     S
C710   H740    1.105   .     S
C710   H739    1.111   .     S
C711   H743    1.109   .     S
C711   H742    1.102   .     S
C711   H745    1.108   .     S
C712   H747    1.105   .     S
C712   H746    1.111   .     S
C712   H748    1.104   .     S
C713   H749    1.101   .     S
C713   H750    1.108   .     S
C713   H751    1.108   .     S
C714   H754    1.104   .     S
C714   H752    1.111   .     S
C714   H753    1.105   .     S
C715   H756    1.101   .     S
C715   H758    1.107   .     S
C715   H757    1.108   .     S
C716   H759    1.111   .     S
C716   H760    1.105   .     S
C716   H761    1.104   .     S
C717   O832    1.306   .     A
C717   O796    1.311   .     A
C718   H764    1.108   .     S
C718   H763    1.109   .     S
C718   H762    1.101   .     S
C719   H768    1.104   .     S
C719   H765    1.111   .     S
C719   H767    1.105   .     S
C720   H769    1.108   .     S
C720   H771    1.101   .     S
C720   H770    1.107   .     S
C721   H774    1.104   .     S
C721   H772    1.111   .     S
C721   H773    1.105   .     S
C722   H776    1.107   .     S
C722   H775    1.108   .     S
C722   H778    1.101   .     S
C723   H780    1.105   .     S
C723   H779    1.111   .     S
C723   H781    1.104   .     S
C724   H784    1.101   .     S
C724   H783    1.107   .     S
C724   H782    1.108   .     S
C725   O794    1.311   .     A
C725   O795    1.306   .     A
C726   O797    1.306   .     A
C726   O800    1.311   .     A
C727   O798    1.311   .     A
C727   O799    1.306   .     A
C728   S833    1.852   .     S
C728   N790    1.398   .     A
C728   C172    1.458   1_455 S
Cu729  O829    1.973   .     S
Cu729  O793    1.973   .     S
Cu729  Cu730   2.705   .     S
Cu729  N789    2.033   .     S
Cu729  O983    1.973   1_455 S
Cu729  O999    1.973   1_455 S
Cu730  O972    1.973   1_455 S
Cu730  O996    1.973   1_455 S
Cu730  N790    2.033   .     S
Cu730  O826    1.973   .     S
Cu730  O830    1.973   .     S
Cu731  N791    2.033   .     S
Cu731  O1136   1.973   1_545 S
Cu731  O1168   1.973   1_545 S
Cu731  Cu732   2.705   .     S
Cu731  O795    1.973   .     S
Cu731  O798    1.973   .     S
Cu732  O1133   1.973   1_545 S
Cu732  O1132   1.973   1_545 S
Cu732  N792    2.033   .     S
Cu732  O794    1.973   .     S
Cu732  O799    1.973   .     S
H733   O971    0.991   1_455 S
H744   O975    0.991   1_455 S
H755   O978    0.991   .     S
H766   O981    0.991   .     S
H777   O817    0.991   .     S
H785   O820    0.991   .     S
H786   O823    0.991   .     S
H787   O827    0.991   .     S
N789   C844    1.398   1_455 A
N790   C843    1.398   1_455 S
N791   C1016   1.398   1_545 A
N792   C1013   1.398   1_545 A
O796   Cu1068  1.973   .     S
O797   Cu1068  1.973   .     S
O800   Cu1067  1.973   .     S
O801   S1001   1.499   .     S
O802   S833    1.500   .     D
O803   H901    0.991   .     S
O803   S1001   1.675   .     S
O804   Cu898   1.973   .     S
O805   S1002   1.499   .     S
O806   S834    1.500   .     D
O807   H912    0.991   .     S
O807   S1002   1.675   .     S
O808   S1003   1.499   1_455 S
O809   S835    1.500   .     D
O810   H923    0.991   1_455 S
O810   S1003   1.675   1_455 S
O811   S1004   1.499   1_455 S
O812   S836    1.500   .     D
O813   H934    0.991   1_455 S
O813   S1004   1.675   1_455 S
O814   S837    1.499   .     D
O815   Cu897   1.973   .     S
O816   S837    1.500   .     D
O817   S837    1.675   .     S
O818   S838    1.499   .     D
O819   S838    1.500   .     D
O820   S838    1.675   .     S
O821   S839    1.499   .     D
O822   S839    1.500   .     D
O823   S839    1.675   .     S
O824   S840    1.499   .     D
O825   S840    1.500   .     D
O827   S840    1.675   .     S
O828   Cu898   1.973   .     S
O831   Cu897   1.973   .     S
O832   Cu1067  1.973   .     S
S833   O969    1.499   1_455 S
S833   O971    1.675   1_455 S
S834   O975    1.675   1_455 S
S834   O973    1.499   1_455 S
S835   O976    1.499   .     S
S835   O978    1.675   .     S
S836   O981    1.675   .     S
S836   O979    1.499   .     S
C841   C870    1.480   .     S
C841   O994    1.311   .     A
C841   O961    1.306   .     A
C842   S1002   1.852   .     S
C842   C1347   1.458   .     S
C842   N957    1.398   .     S
C843   S1003   1.852   .     S
C843   C2      1.458   1_655 S
C843   N790    1.398   1_655 S
C844   S1004   1.852   .     S
C844   N789    1.398   1_655 A
C844   C1400   1.458   1_655 S
C845   S1005   1.852   .     S
C845   N1296   1.398   .     A
C846   S1006   1.852   .     S
C846   C1519   1.458   .     S
C846   N959    1.398   .     S
C847   S1007   1.852   .     S
C847   N960    1.398   .     S
C848   S1008   1.852   .     S
C848   N1295   1.398   .     A
C848   C1517   1.458   .     S
C849   C876    1.518   .     S
C849   C860    1.402   .     A
C849   C868    1.417   .     A
C850   C867    1.411   .     A
C850   C877    1.517   .     S
C850   C861    1.399   .     A
C851   C858    1.402   .     A
C851   C867    1.417   .     A
C851   C878    1.518   .     S
C852   C869    1.480   .     S
C852   O972    1.311   .     A
C852   O983    1.306   .     A
C853   C868    1.411   .     A
C853   C859    1.399   .     A
C853   C879    1.517   .     S
C854   C870    1.417   .     A
C854   C865    1.402   .     A
C854   C880    1.518   .     S
C855   C869    1.411   .     A
C855   C881    1.517   .     S
C855   C866    1.399   .     A
C856   C882    1.518   .     S
C856   C862    1.402   .     A
C856   C869    1.418   .     A
C857   C870    1.411   .     A
C857   C864    1.399   .     A
C857   C883    1.517   .     S
C858   C884    1.518   .     S
C858   C872    1.417   .     A
C859   C871    1.411   .     A
C859   C886    1.517   .     S
C860   C887    1.518   .     S
C860   C871    1.418   .     A
C861   C888    1.517   .     S
C861   C872    1.411   .     A
C862   C875    1.417   .     A
C862   C889    1.518   .     S
C863   O999    1.311   .     A
C863   O996    1.306   .     A
C863   C868    1.480   .     S
C864   C890    1.517   .     S
C864   C873    1.411   .     A
C865   C891    1.518   .     S
C865   C873    1.417   .     A
C866   C892    1.517   .     S
C866   C875    1.411   .     A
C867   C874    1.480   .     S
C871   C895    1.480   .     S
C872   C894    1.480   .     S
C873   C893    1.480   .     S
C874   O998    1.306   .     A
C874   O997    1.311   .     A
C875   C885    1.480   .     S
C876   H903    1.104   .     S
C876   H902    1.105   .     S
C876   H956    1.111   .     S
C877   H905    1.108   .     S
C877   H906    1.107   .     S
C877   H904    1.101   .     S
C878   H909    1.104   .     S
C878   H908    1.105   .     S
C878   H907    1.111   .     S
C879   H911    1.109   .     S
C879   H910    1.102   .     S
C879   H913    1.108   .     S
C880   H915    1.105   .     S
C880   H914    1.111   .     S
C880   H916    1.104   .     S
C881   H917    1.101   .     S
C881   H918    1.108   .     S
C881   H919    1.108   .     S
C882   H922    1.104   .     S
C882   H920    1.111   .     S
C882   H921    1.105   .     S
C883   H924    1.101   .     S
C883   H926    1.107   .     S
C883   H925    1.108   .     S
C884   H927    1.111   .     S
C884   H928    1.105   .     S
C884   H929    1.104   .     S
C885   O1000   1.306   .     A
C885   O964    1.311   .     A
C886   H932    1.108   .     S
C886   H931    1.109   .     S
C886   H930    1.101   .     S
C887   H936    1.104   .     S
C887   H933    1.111   .     S
C887   H935    1.105   .     S
C888   H937    1.108   .     S
C888   H939    1.101   .     S
C888   H938    1.107   .     S
C889   H942    1.104   .     S
C889   H940    1.111   .     S
C889   H941    1.105   .     S
C890   H944    1.107   .     S
C890   H943    1.108   .     S
C890   H946    1.101   .     S
C891   H948    1.105   .     S
C891   H947    1.111   .     S
C891   H949    1.104   .     S
C892   H952    1.101   .     S
C892   H951    1.107   .     S
C892   H950    1.108   .     S
C893   O962    1.311   .     A
C893   O963    1.306   .     A
C894   O965    1.306   .     A
C894   O968    1.311   .     A
C895   O966    1.311   .     A
C895   O967    1.306   .     A
C896   S1001   1.852   .     S
C896   N958    1.398   .     A
Cu897  O997    1.973   .     S
Cu897  O961    1.973   .     S
Cu897  Cu898   2.705   .     S
Cu897  N957    2.033   .     S
Cu898  N958    2.033   .     S
Cu898  O994    1.973   .     S
Cu898  O998    1.973   .     S
Cu899  N959    2.033   .     S
Cu899  O1304   1.973   1_545 S
Cu899  O1336   1.973   1_545 S
Cu899  Cu900   2.705   .     S
Cu899  O963    1.973   .     S
Cu899  O966    1.973   .     S
Cu900  O1301   1.973   1_545 S
Cu900  O1300   1.973   1_545 S
Cu900  N960    2.033   .     S
Cu900  O962    1.973   .     S
Cu900  O967    1.973   .     S
H923   O810    0.991   1_655 S
H934   O813    0.991   1_655 S
H945   O985    0.991   .     S
H953   O988    0.991   .     S
H954   O991    0.991   .     S
H955   O995    0.991   .     S
N959   C1184   1.398   1_545 A
N960   C1181   1.398   1_545 A
O964   Cu1236  1.973   .     S
O965   Cu1236  1.973   .     S
O968   Cu1235  1.973   .     S
O969   S833    1.499   1_655 S
O970   S1001   1.500   .     D
O971   H733    0.991   1_655 S
O971   S833    1.675   1_655 S
O972   Cu730   1.973   1_655 S
O973   S834    1.499   1_655 S
O974   S1002   1.500   .     D
O975   H744    0.991   1_655 S
O975   S834    1.675   1_655 S
O977   S1003   1.500   .     D
O980   S1004   1.500   .     D
O982   S1005   1.499   .     D
O983   Cu729   1.973   1_655 S
O984   S1005   1.500   .     D
O985   S1005   1.675   .     S
O986   S1006   1.499   .     D
O987   S1006   1.500   .     D
O988   S1006   1.675   .     S
O989   S1007   1.499   .     D
O990   S1007   1.500   .     D
O991   S1007   1.675   .     S
O992   S1008   1.499   .     D
O993   S1008   1.500   .     D
O995   S1008   1.675   .     S
O996   Cu730   1.973   1_655 S
O999   Cu729   1.973   1_655 S
O1000  Cu1235  1.973   .     S
S1003  O808    1.499   1_655 S
S1003  O810    1.675   1_655 S
S1004  O813    1.675   1_655 S
S1004  O811    1.499   1_655 S
C1009  C1038   1.480   .     S
C1009  O1162   1.311   .     A
C1009  O1129   1.306   .     A
C1010  S1170   1.852   .     S
C1010  C1851   1.458   1_455 S
C1010  N1125   1.398   .     S
C1011  S1171   1.852   .     S
C1011  N1294   1.398   .     S
C1012  S1172   1.852   .     S
C1012  N1293   1.398   .     A
C1012  C1904   1.458   .     S
C1013  S1173   1.852   .     S
C1013  N792    1.398   1_565 A
C1014  S1174   1.852   .     S
C1014  C1687   1.458   .     S
C1014  N1127   1.398   .     S
C1015  S1175   1.852   .     S
C1015  N1128   1.398   .     S
C1016  S1176   1.852   .     S
C1016  N791    1.398   1_565 A
C1016  C1685   1.458   .     S
C1017  C1044   1.518   .     S
C1017  C1028   1.402   .     A
C1017  C1036   1.417   .     A
C1018  C1035   1.411   .     A
C1018  C1045   1.517   .     S
C1018  C1029   1.399   .     A
C1019  C1026   1.402   .     A
C1019  C1035   1.417   .     A
C1019  C1046   1.518   .     S
C1020  C1037   1.480   .     S
C1020  O1140   1.311   .     A
C1020  O1151   1.306   .     A
C1021  C1036   1.411   .     A
C1021  C1027   1.399   .     A
C1021  C1047   1.517   .     S
C1022  C1038   1.417   .     A
C1022  C1033   1.402   .     A
C1022  C1048   1.518   .     S
C1023  C1037   1.411   .     A
C1023  C1049   1.517   .     S
C1023  C1034   1.399   .     A
C1024  C1050   1.518   .     S
C1024  C1030   1.402   .     A
C1024  C1037   1.418   .     A
C1025  C1038   1.411   .     A
C1025  C1032   1.399   .     A
C1025  C1051   1.517   .     S
C1026  C1052   1.518   .     S
C1026  C1040   1.417   .     A
C1027  C1039   1.411   .     A
C1027  C1054   1.517   .     S
C1028  C1055   1.518   .     S
C1028  C1039   1.418   .     A
C1029  C1056   1.517   .     S
C1029  C1040   1.411   .     A
C1030  C1043   1.417   .     A
C1030  C1057   1.518   .     S
C1031  O1167   1.311   .     A
C1031  O1164   1.306   .     A
C1031  C1036   1.480   .     S
C1032  C1058   1.517   .     S
C1032  C1041   1.411   .     A
C1033  C1059   1.518   .     S
C1033  C1041   1.417   .     A
C1034  C1060   1.517   .     S
C1034  C1043   1.411   .     A
C1035  C1042   1.480   .     S
C1039  C1063   1.480   .     S
C1040  C1062   1.480   .     S
C1041  C1061   1.480   .     S
C1042  O1166   1.306   .     A
C1042  O1165   1.311   .     A
C1043  C1053   1.480   .     S
C1044  H1071   1.104   .     S
C1044  H1070   1.105   .     S
C1044  H1124   1.111   .     S
C1045  H1073   1.108   .     S
C1045  H1074   1.107   .     S
C1045  H1072   1.101   .     S
C1046  H1077   1.104   .     S
C1046  H1076   1.105   .     S
C1046  H1075   1.111   .     S
C1047  H1079   1.109   .     S
C1047  H1078   1.102   .     S
C1047  H1081   1.108   .     S
C1048  H1083   1.105   .     S
C1048  H1082   1.111   .     S
C1048  H1084   1.104   .     S
C1049  H1085   1.101   .     S
C1049  H1086   1.108   .     S
C1049  H1087   1.108   .     S
C1050  H1090   1.104   .     S
C1050  H1088   1.111   .     S
C1050  H1089   1.105   .     S
C1051  H1092   1.101   .     S
C1051  H1094   1.107   .     S
C1051  H1093   1.108   .     S
C1052  H1095   1.111   .     S
C1052  H1096   1.105   .     S
C1052  H1097   1.104   .     S
C1053  O1168   1.306   .     A
C1053  O1132   1.311   .     A
C1054  H1100   1.108   .     S
C1054  H1099   1.109   .     S
C1054  H1098   1.101   .     S
C1055  H1104   1.104   .     S
C1055  H1101   1.111   .     S
C1055  H1103   1.105   .     S
C1056  H1105   1.108   .     S
C1056  H1107   1.101   .     S
C1056  H1106   1.107   .     S
C1057  H1110   1.104   .     S
C1057  H1108   1.111   .     S
C1057  H1109   1.105   .     S
C1058  H1112   1.107   .     S
C1058  H1111   1.108   .     S
C1058  H1114   1.101   .     S
C1059  H1116   1.105   .     S
C1059  H1115   1.111   .     S
C1059  H1117   1.104   .     S
C1060  H1120   1.101   .     S
C1060  H1119   1.107   .     S
C1060  H1118   1.108   .     S
C1061  O1130   1.311   .     A
C1061  O1131   1.306   .     A
C1062  O1133   1.306   .     A
C1062  O1136   1.311   .     A
C1063  O1134   1.311   .     A
C1063  O1135   1.306   .     A
C1064  S1169   1.852   .     S
C1064  N1126   1.398   .     A
C1064  C508    1.458   1_455 S
Cu1065 O1165   1.973   .     S
Cu1065 O1129   1.973   .     S
Cu1065 Cu1066  2.705   .     S
Cu1065 N1125   2.033   .     S
Cu1065 O1319   1.973   1_455 S
Cu1065 O1335   1.973   1_455 S
Cu1066 O1308   1.973   1_455 S
Cu1066 O1332   1.973   1_455 S
Cu1066 N1126   2.033   .     S
Cu1066 O1162   1.973   .     S
Cu1066 O1166   1.973   .     S
Cu1067 N1127   2.033   .     S
Cu1067 Cu1068  2.705   .     S
Cu1067 O1131   1.973   .     S
Cu1067 O1134   1.973   .     S
Cu1068 N1128   2.033   .     S
Cu1068 O1130   1.973   .     S
Cu1068 O1135   1.973   .     S
H1069  O1307   0.991   1_455 S
H1080  O1311   0.991   1_455 S
H1091  O1314   0.991   .     S
H1102  O1317   0.991   .     S
H1113  O1153   0.991   .     S
H1121  O1156   0.991   .     S
H1122  O1159   0.991   .     S
H1123  O1163   0.991   .     S
N1125  C1180   1.398   1_455 A
N1126  C1179   1.398   1_455 S
O1132  Cu732   1.973   1_565 S
O1133  Cu732   1.973   1_565 S
O1136  Cu731   1.973   1_565 S
O1137  S1337   1.499   .     S
O1138  S1169   1.500   .     D
O1139  H1237   0.991   .     S
O1139  S1337   1.675   .     S
O1140  Cu1234  1.973   .     S
O1141  S1338   1.499   .     S
O1142  S1170   1.500   .     D
O1143  H1248   0.991   .     S
O1143  S1338   1.675   .     S
O1144  S1339   1.499   1_455 S
O1145  S1171   1.500   .     D
O1146  H1259   0.991   1_455 S
O1146  S1339   1.675   1_455 S
O1147  S1340   1.499   1_455 S
O1148  S1172   1.500   .     D
O1149  H1270   0.991   1_455 S
O1149  S1340   1.675   1_455 S
O1150  S1173   1.499   .     D
O1151  Cu1233  1.973   .     S
O1152  S1173   1.500   .     D
O1153  S1173   1.675   .     S
O1154  S1174   1.499   .     D
O1155  S1174   1.500   .     D
O1156  S1174   1.675   .     S
O1157  S1175   1.499   .     D
O1158  S1175   1.500   .     D
O1159  S1175   1.675   .     S
O1160  S1176   1.499   .     D
O1161  S1176   1.500   .     D
O1163  S1176   1.675   .     S
O1164  Cu1234  1.973   .     S
O1167  Cu1233  1.973   .     S
O1168  Cu731   1.973   1_565 S
S1169  O1305   1.499   1_455 S
S1169  O1307   1.675   1_455 S
S1170  O1311   1.675   1_455 S
S1170  O1309   1.499   1_455 S
S1171  O1312   1.499   .     S
S1171  O1314   1.675   .     S
S1172  O1317   1.675   .     S
S1172  O1315   1.499   .     S
C1177  C1206   1.480   .     S
C1177  O1330   1.311   .     A
C1177  O1297   1.306   .     A
C1178  S1338   1.852   .     S
C1178  C1683   1.458   .     S
C1178  N1293   1.398   .     S
C1179  S1339   1.852   .     S
C1179  C338    1.458   1_655 S
C1179  N1126   1.398   1_655 S
C1180  S1340   1.852   .     S
C1180  N1125   1.398   1_655 A
C1180  C1736   1.458   1_655 S
C1181  S1341   1.852   .     S
C1181  N960    1.398   1_565 A
C1182  S1342   1.852   .     S
C1182  C1855   1.458   .     S
C1182  N1295   1.398   .     S
C1183  S1343   1.852   .     S
C1183  N1296   1.398   .     S
C1184  S1344   1.852   .     S
C1184  N959    1.398   1_565 A
C1184  C1853   1.458   .     S
C1185  C1212   1.518   .     S
C1185  C1196   1.402   .     A
C1185  C1204   1.417   .     A
C1186  C1203   1.411   .     A
C1186  C1213   1.517   .     S
C1186  C1197   1.399   .     A
C1187  C1194   1.402   .     A
C1187  C1203   1.417   .     A
C1187  C1214   1.518   .     S
C1188  C1205   1.480   .     S
C1188  O1308   1.311   .     A
C1188  O1319   1.306   .     A
C1189  C1204   1.411   .     A
C1189  C1195   1.399   .     A
C1189  C1215   1.517   .     S
C1190  C1206   1.417   .     A
C1190  C1201   1.402   .     A
C1190  C1216   1.518   .     S
C1191  C1205   1.411   .     A
C1191  C1217   1.517   .     S
C1191  C1202   1.399   .     A
C1192  C1218   1.518   .     S
C1192  C1198   1.402   .     A
C1192  C1205   1.418   .     A
C1193  C1206   1.411   .     A
C1193  C1200   1.399   .     A
C1193  C1219   1.517   .     S
C1194  C1220   1.518   .     S
C1194  C1208   1.417   .     A
C1195  C1207   1.411   .     A
C1195  C1222   1.517   .     S
C1196  C1223   1.518   .     S
C1196  C1207   1.418   .     A
C1197  C1224   1.517   .     S
C1197  C1208   1.411   .     A
C1198  C1211   1.417   .     A
C1198  C1225   1.518   .     S
C1199  O1335   1.311   .     A
C1199  O1332   1.306   .     A
C1199  C1204   1.480   .     S
C1200  C1226   1.517   .     S
C1200  C1209   1.411   .     A
C1201  C1227   1.518   .     S
C1201  C1209   1.417   .     A
C1202  C1228   1.517   .     S
C1202  C1211   1.411   .     A
C1203  C1210   1.480   .     S
C1207  C1231   1.480   .     S
C1208  C1230   1.480   .     S
C1209  C1229   1.480   .     S
C1210  O1334   1.306   .     A
C1210  O1333   1.311   .     A
C1211  C1221   1.480   .     S
C1212  H1239   1.104   .     S
C1212  H1238   1.105   .     S
C1212  H1292   1.111   .     S
C1213  H1241   1.108   .     S
C1213  H1242   1.107   .     S
C1213  H1240   1.101   .     S
C1214  H1245   1.104   .     S
C1214  H1244   1.105   .     S
C1214  H1243   1.111   .     S
C1215  H1247   1.109   .     S
C1215  H1246   1.102   .     S
C1215  H1249   1.108   .     S
C1216  H1251   1.105   .     S
C1216  H1250   1.111   .     S
C1216  H1252   1.104   .     S
C1217  H1253   1.101   .     S
C1217  H1254   1.108   .     S
C1217  H1255   1.108   .     S
C1218  H1258   1.104   .     S
C1218  H1256   1.111   .     S
C1218  H1257   1.105   .     S
C1219  H1260   1.101   .     S
C1219  H1262   1.107   .     S
C1219  H1261   1.108   .     S
C1220  H1263   1.111   .     S
C1220  H1264   1.105   .     S
C1220  H1265   1.104   .     S
C1221  O1336   1.306   .     A
C1221  O1300   1.311   .     A
C1222  H1268   1.108   .     S
C1222  H1267   1.109   .     S
C1222  H1266   1.101   .     S
C1223  H1272   1.104   .     S
C1223  H1269   1.111   .     S
C1223  H1271   1.105   .     S
C1224  H1273   1.108   .     S
C1224  H1275   1.101   .     S
C1224  H1274   1.107   .     S
C1225  H1278   1.104   .     S
C1225  H1276   1.111   .     S
C1225  H1277   1.105   .     S
C1226  H1280   1.107   .     S
C1226  H1279   1.108   .     S
C1226  H1282   1.101   .     S
C1227  H1284   1.105   .     S
C1227  H1283   1.111   .     S
C1227  H1285   1.104   .     S
C1228  H1288   1.101   .     S
C1228  H1287   1.107   .     S
C1228  H1286   1.108   .     S
C1229  O1298   1.311   .     A
C1229  O1299   1.306   .     A
C1230  O1301   1.306   .     A
C1230  O1304   1.311   .     A
C1231  O1302   1.311   .     A
C1231  O1303   1.306   .     A
C1232  S1337   1.852   .     S
C1232  N1294   1.398   .     A
Cu1233 O1333   1.973   .     S
Cu1233 O1297   1.973   .     S
Cu1233 Cu1234  2.705   .     S
Cu1233 N1293   2.033   .     S
Cu1234 N1294   2.033   .     S
Cu1234 O1330   1.973   .     S
Cu1234 O1334   1.973   .     S
Cu1235 N1295   2.033   .     S
Cu1235 Cu1236  2.705   .     S
Cu1235 O1299   1.973   .     S
Cu1235 O1302   1.973   .     S
Cu1236 N1296   2.033   .     S
Cu1236 O1298   1.973   .     S
Cu1236 O1303   1.973   .     S
H1259  O1146   0.991   1_655 S
H1270  O1149   0.991   1_655 S
H1281  O1321   0.991   .     S
H1289  O1324   0.991   .     S
H1290  O1327   0.991   .     S
H1291  O1331   0.991   .     S
O1300  Cu900   1.973   1_565 S
O1301  Cu900   1.973   1_565 S
O1304  Cu899   1.973   1_565 S
O1305  S1169   1.499   1_655 S
O1306  S1337   1.500   .     D
O1307  H1069   0.991   1_655 S
O1307  S1169   1.675   1_655 S
O1308  Cu1066  1.973   1_655 S
O1309  S1170   1.499   1_655 S
O1310  S1338   1.500   .     D
O1311  H1080   0.991   1_655 S
O1311  S1170   1.675   1_655 S
O1313  S1339   1.500   .     D
O1316  S1340   1.500   .     D
O1318  S1341   1.499   .     D
O1319  Cu1065  1.973   1_655 S
O1320  S1341   1.500   .     D
O1321  S1341   1.675   .     S
O1322  S1342   1.499   .     D
O1323  S1342   1.500   .     D
O1324  S1342   1.675   .     S
O1325  S1343   1.499   .     D
O1326  S1343   1.500   .     D
O1327  S1343   1.675   .     S
O1328  S1344   1.499   .     D
O1329  S1344   1.500   .     D
O1331  S1344   1.675   .     S
O1332  Cu1066  1.973   1_655 S
O1335  Cu1065  1.973   1_655 S
O1336  Cu899   1.973   1_565 S
S1339  O1144   1.499   1_655 S
S1339  O1146   1.675   1_655 S
S1340  O1149   1.675   1_655 S
S1340  O1147   1.499   1_655 S
C1345  C1374   1.480   .     S
C1345  O1498   1.311   .     A
C1345  O1465   1.306   .     A
C1346  S1506   1.852   .     S
C1346  C171    1.458   1_456 S
C1346  N1461   1.398   .     S
C1347  S1507   1.852   .     S
C1347  N1630   1.398   .     S
C1348  S1508   1.852   .     S
C1348  N1629   1.398   .     A
C1348  C224    1.458   1_556 S
C1349  S1509   1.852   .     S
C1349  N1800   1.398   .     A
C1350  S1510   1.852   .     S
C1350  C7      1.458   1_556 S
C1350  N1463   1.398   .     S
C1351  S1511   1.852   .     S
C1351  N1464   1.398   .     S
C1352  S1512   1.852   .     S
C1352  N1799   1.398   .     A
C1352  C5      1.458   1_556 S
C1353  C1380   1.518   .     S
C1353  C1364   1.402   .     A
C1353  C1372   1.417   .     A
C1354  C1371   1.411   .     A
C1354  C1381   1.517   .     S
C1354  C1365   1.399   .     A
C1355  C1362   1.402   .     A
C1355  C1371   1.417   .     A
C1355  C1382   1.518   .     S
C1356  C1373   1.480   .     S
C1356  O1476   1.311   .     A
C1356  O1487   1.306   .     A
C1357  C1372   1.411   .     A
C1357  C1363   1.399   .     A
C1357  C1383   1.517   .     S
C1358  C1374   1.417   .     A
C1358  C1369   1.402   .     A
C1358  C1384   1.518   .     S
C1359  C1373   1.411   .     A
C1359  C1385   1.517   .     S
C1359  C1370   1.399   .     A
C1360  C1386   1.518   .     S
C1360  C1366   1.402   .     A
C1360  C1373   1.418   .     A
C1361  C1374   1.411   .     A
C1361  C1368   1.399   .     A
C1361  C1387   1.517   .     S
C1362  C1388   1.518   .     S
C1362  C1376   1.417   .     A
C1363  C1375   1.411   .     A
C1363  C1390   1.517   .     S
C1364  C1391   1.518   .     S
C1364  C1375   1.418   .     A
C1365  C1392   1.517   .     S
C1365  C1376   1.411   .     A
C1366  C1379   1.417   .     A
C1366  C1393   1.518   .     S
C1367  O1503   1.311   .     A
C1367  O1500   1.306   .     A
C1367  C1372   1.480   .     S
C1368  C1394   1.517   .     S
C1368  C1377   1.411   .     A
C1369  C1395   1.518   .     S
C1369  C1377   1.417   .     A
C1370  C1396   1.517   .     S
C1370  C1379   1.411   .     A
C1371  C1378   1.480   .     S
C1375  C1399   1.480   .     S
C1376  C1398   1.480   .     S
C1377  C1397   1.480   .     S
C1378  O1502   1.306   .     A
C1378  O1501   1.311   .     A
C1379  C1389   1.480   .     S
C1380  H1407   1.104   .     S
C1380  H1406   1.105   .     S
C1380  H1460   1.111   .     S
C1381  H1409   1.108   .     S
C1381  H1410   1.107   .     S
C1381  H1408   1.101   .     S
C1382  H1413   1.104   .     S
C1382  H1412   1.105   .     S
C1382  H1411   1.111   .     S
C1383  H1415   1.109   .     S
C1383  H1414   1.102   .     S
C1383  H1417   1.108   .     S
C1384  H1419   1.105   .     S
C1384  H1418   1.111   .     S
C1384  H1420   1.104   .     S
C1385  H1421   1.101   .     S
C1385  H1422   1.108   .     S
C1385  H1423   1.108   .     S
C1386  H1426   1.104   .     S
C1386  H1424   1.111   .     S
C1386  H1425   1.105   .     S
C1387  H1428   1.101   .     S
C1387  H1430   1.107   .     S
C1387  H1429   1.108   .     S
C1388  H1431   1.111   .     S
C1388  H1432   1.105   .     S
C1388  H1433   1.104   .     S
C1389  O1504   1.306   .     A
C1389  O1468   1.311   .     A
C1390  H1436   1.108   .     S
C1390  H1435   1.109   .     S
C1390  H1434   1.101   .     S
C1391  H1440   1.104   .     S
C1391  H1437   1.111   .     S
C1391  H1439   1.105   .     S
C1392  H1441   1.108   .     S
C1392  H1443   1.101   .     S
C1392  H1442   1.107   .     S
C1393  H1446   1.104   .     S
C1393  H1444   1.111   .     S
C1393  H1445   1.105   .     S
C1394  H1448   1.107   .     S
C1394  H1447   1.108   .     S
C1394  H1450   1.101   .     S
C1395  H1452   1.105   .     S
C1395  H1451   1.111   .     S
C1395  H1453   1.104   .     S
C1396  H1456   1.101   .     S
C1396  H1455   1.107   .     S
C1396  H1454   1.108   .     S
C1397  O1466   1.311   .     A
C1397  O1467   1.306   .     A
C1398  O1469   1.306   .     A
C1398  O1472   1.311   .     A
C1399  O1470   1.311   .     A
C1399  O1471   1.306   .     A
C1400  S1505   1.852   .     S
C1400  N1462   1.398   .     A
C1400  C844    1.458   1_455 S
Cu1401 O1501   1.973   .     S
Cu1401 O1465   1.973   .     S
Cu1401 Cu1402  2.705   .     S
Cu1401 N1461   2.033   .     S
Cu1401 O1655   1.973   1_455 S
Cu1401 O1671   1.973   1_455 S
Cu1402 O1644   1.973   1_455 S
Cu1402 O1668   1.973   1_455 S
Cu1402 N1462   2.033   .     S
Cu1402 O1498   1.973   .     S
Cu1402 O1502   1.973   .     S
Cu1403 N1463   2.033   .     S
Cu1403 O1808   1.973   1_545 S
Cu1403 O1840   1.973   1_545 S
Cu1403 Cu1404  2.705   .     S
Cu1403 O1467   1.973   .     S
Cu1403 O1470   1.973   .     S
Cu1404 O1805   1.973   1_545 S
Cu1404 O1804   1.973   1_545 S
Cu1404 N1464   2.033   .     S
Cu1404 O1466   1.973   .     S
Cu1404 O1471   1.973   .     S
H1405  O1643   0.991   1_455 S
H1416  O1647   0.991   1_455 S
H1427  O1650   0.991   .     S
H1438  O1653   0.991   .     S
H1449  O1489   0.991   .     S
H1457  O1492   0.991   .     S
H1458  O1495   0.991   .     S
H1459  O1499   0.991   .     S
N1461  C1516   1.398   1_455 A
N1462  C1515   1.398   1_455 S
N1463  C1688   1.398   1_545 A
N1464  C1685   1.398   1_545 A
O1468  Cu1740  1.973   .     S
O1469  Cu1740  1.973   .     S
O1472  Cu1739  1.973   .     S
O1473  S1673   1.499   .     S
O1474  S1505   1.500   .     D
O1475  H1573   0.991   .     S
O1475  S1673   1.675   .     S
O1476  Cu1570  1.973   .     S
O1477  S1674   1.499   .     S
O1478  S1506   1.500   .     D
O1479  H1584   0.991   .     S
O1479  S1674   1.675   .     S
O1480  S1675   1.499   1_455 S
O1481  S1507   1.500   .     D
O1482  H1595   0.991   1_455 S
O1482  S1675   1.675   1_455 S
O1483  S1676   1.499   1_455 S
O1484  S1508   1.500   .     D
O1485  H1606   0.991   1_455 S
O1485  S1676   1.675   1_455 S
O1486  S1509   1.499   .     D
O1487  Cu1569  1.973   .     S
O1488  S1509   1.500   .     D
O1489  S1509   1.675   .     S
O1490  S1510   1.499   .     D
O1491  S1510   1.500   .     D
O1492  S1510   1.675   .     S
O1493  S1511   1.499   .     D
O1494  S1511   1.500   .     D
O1495  S1511   1.675   .     S
O1496  S1512   1.499   .     D
O1497  S1512   1.500   .     D
O1499  S1512   1.675   .     S
O1500  Cu1570  1.973   .     S
O1503  Cu1569  1.973   .     S
O1504  Cu1739  1.973   .     S
S1505  O1641   1.499   1_455 S
S1505  O1643   1.675   1_455 S
S1506  O1647   1.675   1_455 S
S1506  O1645   1.499   1_455 S
S1507  O1648   1.499   .     S
S1507  O1650   1.675   .     S
S1508  O1653   1.675   .     S
S1508  O1651   1.499   .     S
C1513  C1542   1.480   .     S
C1513  O1666   1.311   .     A
C1513  O1633   1.306   .     A
C1514  S1674   1.852   .     S
C1514  C3      1.458   1_556 S
C1514  N1629   1.398   .     S
C1515  S1675   1.852   .     S
C1515  C674    1.458   1_655 S
C1515  N1462   1.398   1_655 S
C1516  S1676   1.852   .     S
C1516  N1461   1.398   1_655 A
C1516  C56     1.458   1_656 S
C1517  S1677   1.852   .     S
C1517  N1968   1.398   .     A
C1518  S1678   1.852   .     S
C1518  C175    1.458   1_556 S
C1518  N1631   1.398   .     S
C1519  S1679   1.852   .     S
C1519  N1632   1.398   .     S
C1520  S1680   1.852   .     S
C1520  N1967   1.398   .     A
C1520  C173    1.458   1_556 S
C1521  C1548   1.518   .     S
C1521  C1532   1.402   .     A
C1521  C1540   1.417   .     A
C1522  C1539   1.411   .     A
C1522  C1549   1.517   .     S
C1522  C1533   1.399   .     A
C1523  C1530   1.402   .     A
C1523  C1539   1.417   .     A
C1523  C1550   1.518   .     S
C1524  C1541   1.480   .     S
C1524  O1644   1.311   .     A
C1524  O1655   1.306   .     A
C1525  C1540   1.411   .     A
C1525  C1531   1.399   .     A
C1525  C1551   1.517   .     S
C1526  C1542   1.417   .     A
C1526  C1537   1.402   .     A
C1526  C1552   1.518   .     S
C1527  C1541   1.411   .     A
C1527  C1553   1.517   .     S
C1527  C1538   1.399   .     A
C1528  C1554   1.518   .     S
C1528  C1534   1.402   .     A
C1528  C1541   1.418   .     A
C1529  C1542   1.411   .     A
C1529  C1536   1.399   .     A
C1529  C1555   1.517   .     S
C1530  C1556   1.518   .     S
C1530  C1544   1.417   .     A
C1531  C1543   1.411   .     A
C1531  C1558   1.517   .     S
C1532  C1559   1.518   .     S
C1532  C1543   1.418   .     A
C1533  C1560   1.517   .     S
C1533  C1544   1.411   .     A
C1534  C1547   1.417   .     A
C1534  C1561   1.518   .     S
C1535  O1671   1.311   .     A
C1535  O1668   1.306   .     A
C1535  C1540   1.480   .     S
C1536  C1562   1.517   .     S
C1536  C1545   1.411   .     A
C1537  C1563   1.518   .     S
C1537  C1545   1.417   .     A
C1538  C1564   1.517   .     S
C1538  C1547   1.411   .     A
C1539  C1546   1.480   .     S
C1543  C1567   1.480   .     S
C1544  C1566   1.480   .     S
C1545  C1565   1.480   .     S
C1546  O1670   1.306   .     A
C1546  O1669   1.311   .     A
C1547  C1557   1.480   .     S
C1548  H1575   1.104   .     S
C1548  H1574   1.105   .     S
C1548  H1628   1.111   .     S
C1549  H1577   1.108   .     S
C1549  H1578   1.107   .     S
C1549  H1576   1.101   .     S
C1550  H1581   1.104   .     S
C1550  H1580   1.105   .     S
C1550  H1579   1.111   .     S
C1551  H1583   1.109   .     S
C1551  H1582   1.102   .     S
C1551  H1585   1.108   .     S
C1552  H1587   1.105   .     S
C1552  H1586   1.111   .     S
C1552  H1588   1.104   .     S
C1553  H1589   1.101   .     S
C1553  H1590   1.108   .     S
C1553  H1591   1.108   .     S
C1554  H1594   1.104   .     S
C1554  H1592   1.111   .     S
C1554  H1593   1.105   .     S
C1555  H1596   1.101   .     S
C1555  H1598   1.107   .     S
C1555  H1597   1.108   .     S
C1556  H1599   1.111   .     S
C1556  H1600   1.105   .     S
C1556  H1601   1.104   .     S
C1557  O1672   1.306   .     A
C1557  O1636   1.311   .     A
C1558  H1604   1.108   .     S
C1558  H1603   1.109   .     S
C1558  H1602   1.101   .     S
C1559  H1608   1.104   .     S
C1559  H1605   1.111   .     S
C1559  H1607   1.105   .     S
C1560  H1609   1.108   .     S
C1560  H1611   1.101   .     S
C1560  H1610   1.107   .     S
C1561  H1614   1.104   .     S
C1561  H1612   1.111   .     S
C1561  H1613   1.105   .     S
C1562  H1616   1.107   .     S
C1562  H1615   1.108   .     S
C1562  H1618   1.101   .     S
C1563  H1620   1.105   .     S
C1563  H1619   1.111   .     S
C1563  H1621   1.104   .     S
C1564  H1624   1.101   .     S
C1564  H1623   1.107   .     S
C1564  H1622   1.108   .     S
C1565  O1634   1.311   .     A
C1565  O1635   1.306   .     A
C1566  O1637   1.306   .     A
C1566  O1640   1.311   .     A
C1567  O1638   1.311   .     A
C1567  O1639   1.306   .     A
C1568  S1673   1.852   .     S
C1568  N1630   1.398   .     A
Cu1569 O1669   1.973   .     S
Cu1569 O1633   1.973   .     S
Cu1569 Cu1570  2.705   .     S
Cu1569 N1629   2.033   .     S
Cu1570 N1630   2.033   .     S
Cu1570 O1666   1.973   .     S
Cu1570 O1670   1.973   .     S
Cu1571 N1631   2.033   .     S
Cu1571 O1976   1.973   1_545 S
Cu1571 O2008   1.973   1_545 S
Cu1571 Cu1572  2.705   .     S
Cu1571 O1635   1.973   .     S
Cu1571 O1638   1.973   .     S
Cu1572 O1973   1.973   1_545 S
Cu1572 O1972   1.973   1_545 S
Cu1572 N1632   2.033   .     S
Cu1572 O1634   1.973   .     S
Cu1572 O1639   1.973   .     S
H1595  O1482   0.991   1_655 S
H1606  O1485   0.991   1_655 S
H1617  O1657   0.991   .     S
H1625  O1660   0.991   .     S
H1626  O1663   0.991   .     S
H1627  O1667   0.991   .     S
N1631  C1856   1.398   1_545 A
N1632  C1853   1.398   1_545 A
O1636  Cu1908  1.973   .     S
O1637  Cu1908  1.973   .     S
O1640  Cu1907  1.973   .     S
O1641  S1505   1.499   1_655 S
O1642  S1673   1.500   .     D
O1643  H1405   0.991   1_655 S
O1643  S1505   1.675   1_655 S
O1644  Cu1402  1.973   1_655 S
O1645  S1506   1.499   1_655 S
O1646  S1674   1.500   .     D
O1647  H1416   0.991   1_655 S
O1647  S1506   1.675   1_655 S
O1649  S1675   1.500   .     D
O1652  S1676   1.500   .     D
O1654  S1677   1.499   .     D
O1655  Cu1401  1.973   1_655 S
O1656  S1677   1.500   .     D
O1657  S1677   1.675   .     S
O1658  S1678   1.499   .     D
O1659  S1678   1.500   .     D
O1660  S1678   1.675   .     S
O1661  S1679   1.499   .     D
O1662  S1679   1.500   .     D
O1663  S1679   1.675   .     S
O1664  S1680   1.499   .     D
O1665  S1680   1.500   .     D
O1667  S1680   1.675   .     S
O1668  Cu1402  1.973   1_655 S
O1671  Cu1401  1.973   1_655 S
O1672  Cu1907  1.973   .     S
S1675  O1480   1.499   1_655 S
S1675  O1482   1.675   1_655 S
S1676  O1485   1.675   1_655 S
S1676  O1483   1.499   1_655 S
C1681  C1710   1.480   .     S
C1681  O1834   1.311   .     A
C1681  O1801   1.306   .     A
C1682  S1842   1.852   .     S
C1682  C507    1.458   1_456 S
C1682  N1797   1.398   .     S
C1683  S1843   1.852   .     S
C1683  N1966   1.398   .     S
C1684  S1844   1.852   .     S
C1684  N1965   1.398   .     A
C1684  C560    1.458   1_556 S
C1685  S1845   1.852   .     S
C1685  N1464   1.398   1_565 A
C1686  S1846   1.852   .     S
C1686  C343    1.458   1_556 S
C1686  N1799   1.398   .     S
C1687  S1847   1.852   .     S
C1687  N1800   1.398   .     S
C1688  S1848   1.852   .     S
C1688  N1463   1.398   1_565 A
C1688  C341    1.458   1_556 S
C1689  C1716   1.518   .     S
C1689  C1700   1.402   .     A
C1689  C1708   1.417   .     A
C1690  C1707   1.411   .     A
C1690  C1717   1.517   .     S
C1690  C1701   1.399   .     A
C1691  C1698   1.402   .     A
C1691  C1707   1.417   .     A
C1691  C1718   1.518   .     S
C1692  C1709   1.480   .     S
C1692  O1812   1.311   .     A
C1692  O1823   1.306   .     A
C1693  C1708   1.411   .     A
C1693  C1699   1.399   .     A
C1693  C1719   1.517   .     S
C1694  C1710   1.417   .     A
C1694  C1705   1.402   .     A
C1694  C1720   1.518   .     S
C1695  C1709   1.411   .     A
C1695  C1721   1.517   .     S
C1695  C1706   1.399   .     A
C1696  C1722   1.518   .     S
C1696  C1702   1.402   .     A
C1696  C1709   1.418   .     A
C1697  C1710   1.411   .     A
C1697  C1704   1.399   .     A
C1697  C1723   1.517   .     S
C1698  C1724   1.518   .     S
C1698  C1712   1.417   .     A
C1699  C1711   1.411   .     A
C1699  C1726   1.517   .     S
C1700  C1727   1.518   .     S
C1700  C1711   1.418   .     A
C1701  C1728   1.517   .     S
C1701  C1712   1.411   .     A
C1702  C1715   1.417   .     A
C1702  C1729   1.518   .     S
C1703  O1839   1.311   .     A
C1703  O1836   1.306   .     A
C1703  C1708   1.480   .     S
C1704  C1730   1.517   .     S
C1704  C1713   1.411   .     A
C1705  C1731   1.518   .     S
C1705  C1713   1.417   .     A
C1706  C1732   1.517   .     S
C1706  C1715   1.411   .     A
C1707  C1714   1.480   .     S
C1711  C1735   1.480   .     S
C1712  C1734   1.480   .     S
C1713  C1733   1.480   .     S
C1714  O1838   1.306   .     A
C1714  O1837   1.311   .     A
C1715  C1725   1.480   .     S
C1716  H1743   1.104   .     S
C1716  H1742   1.105   .     S
C1716  H1796   1.111   .     S
C1717  H1745   1.108   .     S
C1717  H1746   1.107   .     S
C1717  H1744   1.101   .     S
C1718  H1749   1.104   .     S
C1718  H1748   1.105   .     S
C1718  H1747   1.111   .     S
C1719  H1751   1.109   .     S
C1719  H1750   1.102   .     S
C1719  H1753   1.108   .     S
C1720  H1755   1.105   .     S
C1720  H1754   1.111   .     S
C1720  H1756   1.104   .     S
C1721  H1757   1.101   .     S
C1721  H1758   1.108   .     S
C1721  H1759   1.108   .     S
C1722  H1762   1.104   .     S
C1722  H1760   1.111   .     S
C1722  H1761   1.105   .     S
C1723  H1764   1.101   .     S
C1723  H1766   1.107   .     S
C1723  H1765   1.108   .     S
C1724  H1767   1.111   .     S
C1724  H1768   1.105   .     S
C1724  H1769   1.104   .     S
C1725  O1840   1.306   .     A
C1725  O1804   1.311   .     A
C1726  H1772   1.108   .     S
C1726  H1771   1.109   .     S
C1726  H1770   1.101   .     S
C1727  H1776   1.104   .     S
C1727  H1773   1.111   .     S
C1727  H1775   1.105   .     S
C1728  H1777   1.108   .     S
C1728  H1779   1.101   .     S
C1728  H1778   1.107   .     S
C1729  H1782   1.104   .     S
C1729  H1780   1.111   .     S
C1729  H1781   1.105   .     S
C1730  H1784   1.107   .     S
C1730  H1783   1.108   .     S
C1730  H1786   1.101   .     S
C1731  H1788   1.105   .     S
C1731  H1787   1.111   .     S
C1731  H1789   1.104   .     S
C1732  H1792   1.101   .     S
C1732  H1791   1.107   .     S
C1732  H1790   1.108   .     S
C1733  O1802   1.311   .     A
C1733  O1803   1.306   .     A
C1734  O1805   1.306   .     A
C1734  O1808   1.311   .     A
C1735  O1806   1.311   .     A
C1735  O1807   1.306   .     A
C1736  S1841   1.852   .     S
C1736  N1798   1.398   .     A
C1736  C1180   1.458   1_455 S
Cu1737 O1837   1.973   .     S
Cu1737 O1801   1.973   .     S
Cu1737 Cu1738  2.705   .     S
Cu1737 N1797   2.033   .     S
Cu1737 O1991   1.973   1_455 S
Cu1737 O2007   1.973   1_455 S
Cu1738 O1980   1.973   1_455 S
Cu1738 O2004   1.973   1_455 S
Cu1738 N1798   2.033   .     S
Cu1738 O1834   1.973   .     S
Cu1738 O1838   1.973   .     S
Cu1739 N1799   2.033   .     S
Cu1739 Cu1740  2.705   .     S
Cu1739 O1803   1.973   .     S
Cu1739 O1806   1.973   .     S
Cu1740 N1800   2.033   .     S
Cu1740 O1802   1.973   .     S
Cu1740 O1807   1.973   .     S
H1741  O1979   0.991   1_455 S
H1752  O1983   0.991   1_455 S
H1763  O1986   0.991   .     S
H1774  O1989   0.991   .     S
H1785  O1825   0.991   .     S
H1793  O1828   0.991   .     S
H1794  O1831   0.991   .     S
H1795  O1835   0.991   .     S
N1797  C1852   1.398   1_455 A
N1798  C1851   1.398   1_455 S
O1804  Cu1404  1.973   1_565 S
O1805  Cu1404  1.973   1_565 S
O1808  Cu1403  1.973   1_565 S
O1809  S2009   1.499   .     S
O1810  S1841   1.500   .     D
O1811  H1909   0.991   .     S
O1811  S2009   1.675   .     S
O1812  Cu1906  1.973   .     S
O1813  S2010   1.499   .     S
O1814  S1842   1.500   .     D
O1815  H1920   0.991   .     S
O1815  S2010   1.675   .     S
O1816  S2011   1.499   1_455 S
O1817  S1843   1.500   .     D
O1818  H1931   0.991   1_455 S
O1818  S2011   1.675   1_455 S
O1819  S2012   1.499   1_455 S
O1820  S1844   1.500   .     D
O1821  H1942   0.991   1_455 S
O1821  S2012   1.675   1_455 S
O1822  S1845   1.499   .     D
O1823  Cu1905  1.973   .     S
O1824  S1845   1.500   .     D
O1825  S1845   1.675   .     S
O1826  S1846   1.499   .     D
O1827  S1846   1.500   .     D
O1828  S1846   1.675   .     S
O1829  S1847   1.499   .     D
O1830  S1847   1.500   .     D
O1831  S1847   1.675   .     S
O1832  S1848   1.499   .     D
O1833  S1848   1.500   .     D
O1835  S1848   1.675   .     S
O1836  Cu1906  1.973   .     S
O1839  Cu1905  1.973   .     S
O1840  Cu1403  1.973   1_565 S
S1841  O1977   1.499   1_455 S
S1841  O1979   1.675   1_455 S
S1842  O1983   1.675   1_455 S
S1842  O1981   1.499   1_455 S
S1843  O1984   1.499   .     S
S1843  O1986   1.675   .     S
S1844  O1989   1.675   .     S
S1844  O1987   1.499   .     S
C1849  C1878   1.480   .     S
C1849  O2002   1.311   .     A
C1849  O1969   1.306   .     A
C1850  S2010   1.852   .     S
C1850  C339    1.458   1_556 S
C1850  N1965   1.398   .     S
C1851  S2011   1.852   .     S
C1851  C1010   1.458   1_655 S
C1851  N1798   1.398   1_655 S
C1852  S2012   1.852   .     S
C1852  N1797   1.398   1_655 A
C1852  C392    1.458   1_656 S
C1853  S2013   1.852   .     S
C1853  N1632   1.398   1_565 A
C1854  S2014   1.852   .     S
C1854  C511    1.458   1_556 S
C1854  N1967   1.398   .     S
C1855  S2015   1.852   .     S
C1855  N1968   1.398   .     S
C1856  S2016   1.852   .     S
C1856  N1631   1.398   1_565 A
C1856  C509    1.458   1_556 S
C1857  C1884   1.518   .     S
C1857  C1868   1.402   .     A
C1857  C1876   1.417   .     A
C1858  C1875   1.411   .     A
C1858  C1885   1.517   .     S
C1858  C1869   1.399   .     A
C1859  C1866   1.402   .     A
C1859  C1875   1.417   .     A
C1859  C1886   1.518   .     S
C1860  C1877   1.480   .     S
C1860  O1980   1.311   .     A
C1860  O1991   1.306   .     A
C1861  C1876   1.411   .     A
C1861  C1867   1.399   .     A
C1861  C1887   1.517   .     S
C1862  C1878   1.417   .     A
C1862  C1873   1.402   .     A
C1862  C1888   1.518   .     S
C1863  C1877   1.411   .     A
C1863  C1889   1.517   .     S
C1863  C1874   1.399   .     A
C1864  C1890   1.518   .     S
C1864  C1870   1.402   .     A
C1864  C1877   1.418   .     A
C1865  C1878   1.411   .     A
C1865  C1872   1.399   .     A
C1865  C1891   1.517   .     S
C1866  C1892   1.518   .     S
C1866  C1880   1.417   .     A
C1867  C1879   1.411   .     A
C1867  C1894   1.517   .     S
C1868  C1895   1.518   .     S
C1868  C1879   1.418   .     A
C1869  C1896   1.517   .     S
C1869  C1880   1.411   .     A
C1870  C1883   1.417   .     A
C1870  C1897   1.518   .     S
C1871  O2007   1.311   .     A
C1871  O2004   1.306   .     A
C1871  C1876   1.480   .     S
C1872  C1898   1.517   .     S
C1872  C1881   1.411   .     A
C1873  C1899   1.518   .     S
C1873  C1881   1.417   .     A
C1874  C1900   1.517   .     S
C1874  C1883   1.411   .     A
C1875  C1882   1.480   .     S
C1879  C1903   1.480   .     S
C1880  C1902   1.480   .     S
C1881  C1901   1.480   .     S
C1882  O2006   1.306   .     A
C1882  O2005   1.311   .     A
C1883  C1893   1.480   .     S
C1884  H1911   1.104   .     S
C1884  H1910   1.105   .     S
C1884  H1964   1.111   .     S
C1885  H1913   1.108   .     S
C1885  H1914   1.107   .     S
C1885  H1912   1.101   .     S
C1886  H1917   1.104   .     S
C1886  H1916   1.105   .     S
C1886  H1915   1.111   .     S
C1887  H1919   1.109   .     S
C1887  H1918   1.102   .     S
C1887  H1921   1.108   .     S
C1888  H1923   1.105   .     S
C1888  H1922   1.111   .     S
C1888  H1924   1.104   .     S
C1889  H1925   1.101   .     S
C1889  H1926   1.108   .     S
C1889  H1927   1.108   .     S
C1890  H1930   1.104   .     S
C1890  H1928   1.111   .     S
C1890  H1929   1.105   .     S
C1891  H1932   1.101   .     S
C1891  H1934   1.107   .     S
C1891  H1933   1.108   .     S
C1892  H1935   1.111   .     S
C1892  H1936   1.105   .     S
C1892  H1937   1.104   .     S
C1893  O2008   1.306   .     A
C1893  O1972   1.311   .     A
C1894  H1940   1.108   .     S
C1894  H1939   1.109   .     S
C1894  H1938   1.101   .     S
C1895  H1944   1.104   .     S
C1895  H1941   1.111   .     S
C1895  H1943   1.105   .     S
C1896  H1945   1.108   .     S
C1896  H1947   1.101   .     S
C1896  H1946   1.107   .     S
C1897  H1950   1.104   .     S
C1897  H1948   1.111   .     S
C1897  H1949   1.105   .     S
C1898  H1952   1.107   .     S
C1898  H1951   1.108   .     S
C1898  H1954   1.101   .     S
C1899  H1956   1.105   .     S
C1899  H1955   1.111   .     S
C1899  H1957   1.104   .     S
C1900  H1960   1.101   .     S
C1900  H1959   1.107   .     S
C1900  H1958   1.108   .     S
C1901  O1970   1.311   .     A
C1901  O1971   1.306   .     A
C1902  O1973   1.306   .     A
C1902  O1976   1.311   .     A
C1903  O1974   1.311   .     A
C1903  O1975   1.306   .     A
C1904  S2009   1.852   .     S
C1904  N1966   1.398   .     A
Cu1905 O2005   1.973   .     S
Cu1905 O1969   1.973   .     S
Cu1905 Cu1906  2.705   .     S
Cu1905 N1965   2.033   .     S
Cu1906 N1966   2.033   .     S
Cu1906 O2002   1.973   .     S
Cu1906 O2006   1.973   .     S
Cu1907 N1967   2.033   .     S
Cu1907 Cu1908  2.705   .     S
Cu1907 O1971   1.973   .     S
Cu1907 O1974   1.973   .     S
Cu1908 N1968   2.033   .     S
Cu1908 O1970   1.973   .     S
Cu1908 O1975   1.973   .     S
H1931  O1818   0.991   1_655 S
H1942  O1821   0.991   1_655 S
H1953  O1993   0.991   .     S
H1961  O1996   0.991   .     S
H1962  O1999   0.991   .     S
H1963  O2003   0.991   .     S
O1972  Cu1572  1.973   1_565 S
O1973  Cu1572  1.973   1_565 S
O1976  Cu1571  1.973   1_565 S
O1977  S1841   1.499   1_655 S
O1978  S2009   1.500   .     D
O1979  H1741   0.991   1_655 S
O1979  S1841   1.675   1_655 S
O1980  Cu1738  1.973   1_655 S
O1981  S1842   1.499   1_655 S
O1982  S2010   1.500   .     D
O1983  H1752   0.991   1_655 S
O1983  S1842   1.675   1_655 S
O1985  S2011   1.500   .     D
O1988  S2012   1.500   .     D
O1990  S2013   1.499   .     D
O1991  Cu1737  1.973   1_655 S
O1992  S2013   1.500   .     D
O1993  S2013   1.675   .     S
O1994  S2014   1.499   .     D
O1995  S2014   1.500   .     D
O1996  S2014   1.675   .     S
O1997  S2015   1.499   .     D
O1998  S2015   1.500   .     D
O1999  S2015   1.675   .     S
O2000  S2016   1.499   .     D
O2001  S2016   1.500   .     D
O2003  S2016   1.675   .     S
O2004  Cu1738  1.973   1_655 S
O2007  Cu1737  1.973   1_655 S
O2008  Cu1571  1.973   1_565 S
S2011  O1816   1.499   1_655 S
S2011  O1818   1.675   1_655 S
S2012  O1821   1.675   1_655 S
S2012  O1819   1.499   1_655 S
