data_str_m2_o2_o10_pcu_sym.55
_audit_creation_date              2020-01-03
_audit_creation_method            'Materials Studio'
_symmetry_space_group_name_H-M    'P1'
_symmetry_Int_Tables_number       1
_symmetry_cell_setting            triclinic
loop_
_symmetry_equiv_pos_as_xyz
  x,y,z
_cell_length_a                    26.3833
_cell_length_b                    30.2732
_cell_length_c                    27.7146
_cell_angle_alpha                 89.9641
_cell_angle_beta                  97.2837
_cell_angle_gamma                 90.2009
loop_
_atom_site_label
_atom_site_type_symbol
_atom_site_fract_x
_atom_site_fract_y
_atom_site_fract_z
_atom_site_U_iso_or_equiv
_atom_site_adp_type
_atom_site_occupancy
C1     C     0.16663   0.16493   0.25000   0.00000  Uiso   1.00
C2     C     0.20575   0.27101   0.45073   0.00000  Uiso   1.00
C3     C     0.16669   0.24999   0.02735   0.00000  Uiso   1.00
C4     C     0.16666   0.25000   0.47265   0.00000  Uiso   1.00
C5     C     0.06819   0.24889   0.23802   0.00000  Uiso   1.00
C6     C     0.26514   0.25115   0.26197   0.00000  Uiso   1.00
C7     C     0.01387   0.24165   0.23299   0.00000  Uiso   1.00
C8     C     0.31944   0.25849   0.26693   0.00000  Uiso   1.00
C9     C     0.18173   0.04759   0.29311   0.00000  Uiso   1.00
C10    C     0.18248   0.45247   0.21078   0.00000  Uiso   1.00
C11    C     0.18145   0.09350   0.29320   0.00000  Uiso   1.00
C12    C     0.16665   0.33506   0.24999   0.00000  Uiso   1.00
C13    C     0.18223   0.40655   0.21065   0.00000  Uiso   1.00
C14    C     0.16653   0.11670   0.24998   0.00000  Uiso   1.00
C15    C     0.16657   0.38328   0.24996   0.00000  Uiso   1.00
C16    C     0.15151   0.09350   0.20674   0.00000  Uiso   1.00
C17    C     0.15081   0.40639   0.28922   0.00000  Uiso   1.00
C18    C     0.15113   0.04759   0.20678   0.00000  Uiso   1.00
C19    C     0.15041   0.45230   0.28905   0.00000  Uiso   1.00
C20    C     0.16642   0.02426   0.24994   0.00000  Uiso   1.00
C21    C     0.16642   0.47571   0.24991   0.00000  Uiso   1.00
C22    C     0.32554   0.21051   0.19239   0.00000  Uiso   1.00
C23    C     0.19049   0.28406   0.05682   0.00000  Uiso   1.00
C24    C     0.00769   0.28988   0.30730   0.00000  Uiso   1.00
C25    C     0.12757   0.22897   0.44132   0.00000  Uiso   1.00
C26    C     0.19041   0.28323   0.10755   0.00000  Uiso   1.00
C27    C     0.12856   0.22902   0.39070   0.00000  Uiso   1.00
C28    C     0.14299   0.21675   0.10187   0.00000  Uiso   1.00
C29    C     0.20479   0.27093   0.39988   0.00000  Uiso   1.00
C30    C     0.14292   0.21591   0.05113   0.00000  Uiso   1.00
Cu31   Cu    0.16667   0.24999   0.29822   0.00000  Uiso   1.00
Cu32   Cu    0.16667   0.25000   0.20179   0.00000  Uiso   1.00
H33    H     0.19453   0.03036   0.32669   0.00000  Uiso   1.00
H34    H     0.09585   0.21295   0.45546   0.00000  Uiso   1.00
H35    H     0.20929   0.30948   0.12946   0.00000  Uiso   1.00
H36    H     0.09851   0.21230   0.36742   0.00000  Uiso   1.00
H37    H     0.12413   0.19048   0.11926   0.00000  Uiso   1.00
H38    H     0.23491   0.28759   0.38385   0.00000  Uiso   1.00
H39    H     0.12483   0.18827   0.03101   0.00000  Uiso   1.00
H40    H     0.23748   0.28703   0.47250   0.00000  Uiso   1.00
H41    H     0.02293   0.19324   0.17598   0.00000  Uiso   1.00
H42    H     0.30178   0.18441   0.20671   0.00000  Uiso   1.00
H43    H     0.30269   0.22924   0.16282   0.00000  Uiso   1.00
H44    H     0.19584   0.46976   0.18057   0.00000  Uiso   1.00
H45    H     0.31024   0.30741   0.32334   0.00000  Uiso   1.00
H46    H     0.03026   0.27133   0.33714   0.00000  Uiso   1.00
H47    H     0.03167   0.31577   0.29289   0.00000  Uiso   1.00
H48    H     0.19358   0.11081   0.32691   0.00000  Uiso   1.00
H49    H     0.19496   0.38929   0.18016   0.00000  Uiso   1.00
H50    H     0.13942   0.11082   0.17305   0.00000  Uiso   1.00
H51    H     0.13812   0.38900   0.31972   0.00000  Uiso   1.00
H52    H     0.13831   0.03036   0.17319   0.00000  Uiso   1.00
H53    H     0.13700   0.46945   0.31925   0.00000  Uiso   1.00
H54    H     0.20860   0.31170   0.04103   0.00000  Uiso   1.00
N55    N     0.16667   0.25001   0.12935   0.00000  Uiso   1.00
N56    N     0.16667   0.24999   0.37066   0.00000  Uiso   1.00
O57    O     0.16667   0.18572   0.29072   0.00000  Uiso   1.00
O58    O     0.16666   0.31427   0.20929   0.00000  Uiso   1.00
O59    O     0.16667   0.18573   0.20928   0.00000  Uiso   1.00
O60    O     0.16666   0.31427   0.29072   0.00000  Uiso   1.00
O61    O     0.09161   0.24999   0.28132   0.00000  Uiso   1.00
O62    O     0.24172   0.25000   0.21868   0.00000  Uiso   1.00
O63    O     0.09161   0.25000   0.19989   0.00000  Uiso   1.00
O64    O     0.24172   0.25000   0.30012   0.00000  Uiso   1.00
C65    C     0.49996   0.16493   0.25000   0.00000  Uiso   1.00
C66    C     0.53909   0.27101   0.45073   0.00000  Uiso   1.00
C67    C     0.50002   0.24999   0.02735   0.00000  Uiso   1.00
C68    C     0.50000   0.25000   0.47265   0.00000  Uiso   1.00
C69    C     0.40152   0.24889   0.23802   0.00000  Uiso   1.00
C70    C     0.59848   0.25115   0.26197   0.00000  Uiso   1.00
C71    C     0.34720   0.24165   0.23299   0.00000  Uiso   1.00
C72    C     0.65278   0.25849   0.26693   0.00000  Uiso   1.00
C73    C     0.51507   0.04759   0.29311   0.00000  Uiso   1.00
C74    C     0.51582   0.45247   0.21078   0.00000  Uiso   1.00
C75    C     0.51479   0.09350   0.29320   0.00000  Uiso   1.00
C76    C     0.49999   0.33506   0.24999   0.00000  Uiso   1.00
C77    C     0.51557   0.40655   0.21065   0.00000  Uiso   1.00
C78    C     0.49986   0.11670   0.24998   0.00000  Uiso   1.00
C79    C     0.49991   0.38328   0.24996   0.00000  Uiso   1.00
C80    C     0.48485   0.09350   0.20674   0.00000  Uiso   1.00
C81    C     0.48414   0.40639   0.28922   0.00000  Uiso   1.00
C82    C     0.48446   0.04759   0.20678   0.00000  Uiso   1.00
C83    C     0.48374   0.45230   0.28905   0.00000  Uiso   1.00
C84    C     0.49975   0.02426   0.24994   0.00000  Uiso   1.00
C85    C     0.49975   0.47571   0.24991   0.00000  Uiso   1.00
C86    C     0.65887   0.21051   0.19239   0.00000  Uiso   1.00
C87    C     0.52382   0.28406   0.05682   0.00000  Uiso   1.00
C88    C     0.34103   0.28988   0.30730   0.00000  Uiso   1.00
C89    C     0.46091   0.22897   0.44132   0.00000  Uiso   1.00
C90    C     0.52374   0.28323   0.10755   0.00000  Uiso   1.00
C91    C     0.46190   0.22902   0.39070   0.00000  Uiso   1.00
C92    C     0.47633   0.21675   0.10187   0.00000  Uiso   1.00
C93    C     0.53812   0.27093   0.39988   0.00000  Uiso   1.00
C94    C     0.47625   0.21591   0.05113   0.00000  Uiso   1.00
Cu95   Cu    0.50000   0.24999   0.29822   0.00000  Uiso   1.00
Cu96   Cu    0.50000   0.25000   0.20179   0.00000  Uiso   1.00
H97    H     0.52786   0.03036   0.32669   0.00000  Uiso   1.00
H98    H     0.42919   0.21295   0.45546   0.00000  Uiso   1.00
H99    H     0.54262   0.30948   0.12946   0.00000  Uiso   1.00
H100   H     0.43184   0.21230   0.36742   0.00000  Uiso   1.00
H101   H     0.45747   0.19048   0.11926   0.00000  Uiso   1.00
H102   H     0.56825   0.28759   0.38385   0.00000  Uiso   1.00
H103   H     0.45816   0.18827   0.03101   0.00000  Uiso   1.00
H104   H     0.57082   0.28703   0.47250   0.00000  Uiso   1.00
H105   H     0.35626   0.19324   0.17598   0.00000  Uiso   1.00
H106   H     0.63511   0.18441   0.20671   0.00000  Uiso   1.00
H107   H     0.63603   0.22924   0.16282   0.00000  Uiso   1.00
H108   H     0.52917   0.46976   0.18057   0.00000  Uiso   1.00
H109   H     0.64357   0.30741   0.32334   0.00000  Uiso   1.00
H110   H     0.36359   0.27133   0.33714   0.00000  Uiso   1.00
H111   H     0.36500   0.31577   0.29289   0.00000  Uiso   1.00
H112   H     0.52692   0.11081   0.32691   0.00000  Uiso   1.00
H113   H     0.52829   0.38929   0.18016   0.00000  Uiso   1.00
H114   H     0.47275   0.11082   0.17305   0.00000  Uiso   1.00
H115   H     0.47145   0.38900   0.31972   0.00000  Uiso   1.00
H116   H     0.47164   0.03036   0.17319   0.00000  Uiso   1.00
H117   H     0.47033   0.46945   0.31925   0.00000  Uiso   1.00
H118   H     0.54193   0.31170   0.04103   0.00000  Uiso   1.00
N119   N     0.50000   0.25001   0.12935   0.00000  Uiso   1.00
N120   N     0.50000   0.24999   0.37066   0.00000  Uiso   1.00
O121   O     0.50000   0.18572   0.29072   0.00000  Uiso   1.00
O122   O     0.50000   0.31427   0.20929   0.00000  Uiso   1.00
O123   O     0.50000   0.18573   0.20928   0.00000  Uiso   1.00
O124   O     0.50000   0.31427   0.29072   0.00000  Uiso   1.00
O125   O     0.42495   0.24999   0.28132   0.00000  Uiso   1.00
O126   O     0.57505   0.25000   0.21868   0.00000  Uiso   1.00
O127   O     0.42495   0.25000   0.19989   0.00000  Uiso   1.00
O128   O     0.57505   0.25000   0.30012   0.00000  Uiso   1.00
C129   C     0.83329   0.16493   0.25000   0.00000  Uiso   1.00
C130   C     0.87242   0.27101   0.45073   0.00000  Uiso   1.00
C131   C     0.83335   0.24999   0.02735   0.00000  Uiso   1.00
C132   C     0.83333   0.25000   0.47265   0.00000  Uiso   1.00
C133   C     0.73485   0.24889   0.23802   0.00000  Uiso   1.00
C134   C     0.93181   0.25115   0.26197   0.00000  Uiso   1.00
C135   C     0.68054   0.24165   0.23299   0.00000  Uiso   1.00
C136   C     0.98611   0.25849   0.26693   0.00000  Uiso   1.00
C137   C     0.84840   0.04759   0.29311   0.00000  Uiso   1.00
C138   C     0.84915   0.45247   0.21078   0.00000  Uiso   1.00
C139   C     0.84812   0.09350   0.29320   0.00000  Uiso   1.00
C140   C     0.83332   0.33506   0.24999   0.00000  Uiso   1.00
C141   C     0.84890   0.40655   0.21065   0.00000  Uiso   1.00
C142   C     0.83320   0.11670   0.24998   0.00000  Uiso   1.00
C143   C     0.83324   0.38328   0.24996   0.00000  Uiso   1.00
C144   C     0.81818   0.09350   0.20674   0.00000  Uiso   1.00
C145   C     0.81747   0.40639   0.28922   0.00000  Uiso   1.00
C146   C     0.81780   0.04759   0.20678   0.00000  Uiso   1.00
C147   C     0.81707   0.45230   0.28905   0.00000  Uiso   1.00
C148   C     0.83308   0.02426   0.24994   0.00000  Uiso   1.00
C149   C     0.83309   0.47571   0.24991   0.00000  Uiso   1.00
C150   C     0.99220   0.21051   0.19239   0.00000  Uiso   1.00
C151   C     0.85716   0.28406   0.05682   0.00000  Uiso   1.00
C152   C     0.67436   0.28988   0.30730   0.00000  Uiso   1.00
C153   C     0.79424   0.22897   0.44132   0.00000  Uiso   1.00
C154   C     0.85707   0.28323   0.10755   0.00000  Uiso   1.00
C155   C     0.79523   0.22902   0.39070   0.00000  Uiso   1.00
C156   C     0.80966   0.21675   0.10187   0.00000  Uiso   1.00
C157   C     0.87146   0.27093   0.39988   0.00000  Uiso   1.00
C158   C     0.80959   0.21591   0.05113   0.00000  Uiso   1.00
Cu159  Cu    0.83333   0.24999   0.29822   0.00000  Uiso   1.00
Cu160  Cu    0.83333   0.25000   0.20179   0.00000  Uiso   1.00
H161   H     0.86120   0.03036   0.32669   0.00000  Uiso   1.00
H162   H     0.76252   0.21295   0.45546   0.00000  Uiso   1.00
H163   H     0.87596   0.30948   0.12946   0.00000  Uiso   1.00
H164   H     0.76517   0.21230   0.36742   0.00000  Uiso   1.00
H165   H     0.79080   0.19048   0.11926   0.00000  Uiso   1.00
H166   H     0.90158   0.28759   0.38385   0.00000  Uiso   1.00
H167   H     0.79149   0.18827   0.03101   0.00000  Uiso   1.00
H168   H     0.90415   0.28703   0.47250   0.00000  Uiso   1.00
H169   H     0.68960   0.19324   0.17598   0.00000  Uiso   1.00
H170   H     0.96844   0.18441   0.20671   0.00000  Uiso   1.00
H171   H     0.96936   0.22924   0.16282   0.00000  Uiso   1.00
H172   H     0.86251   0.46976   0.18057   0.00000  Uiso   1.00
H173   H     0.97690   0.30741   0.32334   0.00000  Uiso   1.00
H174   H     0.69692   0.27133   0.33714   0.00000  Uiso   1.00
H175   H     0.69834   0.31577   0.29289   0.00000  Uiso   1.00
H176   H     0.86025   0.11081   0.32691   0.00000  Uiso   1.00
H177   H     0.86163   0.38929   0.18016   0.00000  Uiso   1.00
H178   H     0.80608   0.11082   0.17305   0.00000  Uiso   1.00
H179   H     0.80478   0.38900   0.31972   0.00000  Uiso   1.00
H180   H     0.80497   0.03036   0.17319   0.00000  Uiso   1.00
H181   H     0.80367   0.46945   0.31925   0.00000  Uiso   1.00
H182   H     0.87526   0.31170   0.04103   0.00000  Uiso   1.00
N183   N     0.83333   0.25001   0.12935   0.00000  Uiso   1.00
N184   N     0.83333   0.24999   0.37066   0.00000  Uiso   1.00
O185   O     0.83334   0.18572   0.29072   0.00000  Uiso   1.00
O186   O     0.83333   0.31427   0.20929   0.00000  Uiso   1.00
O187   O     0.83334   0.18573   0.20928   0.00000  Uiso   1.00
O188   O     0.83333   0.31427   0.29072   0.00000  Uiso   1.00
O189   O     0.75828   0.24999   0.28132   0.00000  Uiso   1.00
O190   O     0.90839   0.25000   0.21868   0.00000  Uiso   1.00
O191   O     0.75828   0.25000   0.19989   0.00000  Uiso   1.00
O192   O     0.90839   0.25000   0.30012   0.00000  Uiso   1.00
C193   C     0.16663   0.66493   0.25000   0.00000  Uiso   1.00
C194   C     0.20575   0.77101   0.45073   0.00000  Uiso   1.00
C195   C     0.16669   0.74999   0.02735   0.00000  Uiso   1.00
C196   C     0.16666   0.75000   0.47265   0.00000  Uiso   1.00
C197   C     0.06819   0.74889   0.23802   0.00000  Uiso   1.00
C198   C     0.26514   0.75115   0.26197   0.00000  Uiso   1.00
C199   C     0.01387   0.74165   0.23299   0.00000  Uiso   1.00
C200   C     0.31944   0.75849   0.26693   0.00000  Uiso   1.00
C201   C     0.18173   0.54759   0.29311   0.00000  Uiso   1.00
C202   C     0.18248   0.95247   0.21078   0.00000  Uiso   1.00
C203   C     0.18145   0.59350   0.29320   0.00000  Uiso   1.00
C204   C     0.16665   0.83506   0.24999   0.00000  Uiso   1.00
C205   C     0.18223   0.90655   0.21065   0.00000  Uiso   1.00
C206   C     0.16653   0.61670   0.24998   0.00000  Uiso   1.00
C207   C     0.16657   0.88328   0.24996   0.00000  Uiso   1.00
C208   C     0.15151   0.59350   0.20674   0.00000  Uiso   1.00
C209   C     0.15081   0.90639   0.28922   0.00000  Uiso   1.00
C210   C     0.15113   0.54759   0.20678   0.00000  Uiso   1.00
C211   C     0.15041   0.95230   0.28905   0.00000  Uiso   1.00
C212   C     0.16642   0.52426   0.24994   0.00000  Uiso   1.00
C213   C     0.16642   0.97571   0.24991   0.00000  Uiso   1.00
C214   C     0.32554   0.71051   0.19239   0.00000  Uiso   1.00
C215   C     0.19049   0.78406   0.05682   0.00000  Uiso   1.00
C216   C     0.00769   0.78988   0.30730   0.00000  Uiso   1.00
C217   C     0.12757   0.72897   0.44132   0.00000  Uiso   1.00
C218   C     0.19041   0.78323   0.10755   0.00000  Uiso   1.00
C219   C     0.12856   0.72902   0.39070   0.00000  Uiso   1.00
C220   C     0.14299   0.71675   0.10187   0.00000  Uiso   1.00
C221   C     0.20479   0.77093   0.39988   0.00000  Uiso   1.00
C222   C     0.14292   0.71591   0.05113   0.00000  Uiso   1.00
Cu223  Cu    0.16667   0.74999   0.29822   0.00000  Uiso   1.00
Cu224  Cu    0.16667   0.75000   0.20179   0.00000  Uiso   1.00
H225   H     0.19453   0.53036   0.32669   0.00000  Uiso   1.00
H226   H     0.09585   0.71295   0.45546   0.00000  Uiso   1.00
H227   H     0.20929   0.80948   0.12946   0.00000  Uiso   1.00
H228   H     0.09851   0.71230   0.36742   0.00000  Uiso   1.00
H229   H     0.12413   0.69048   0.11926   0.00000  Uiso   1.00
H230   H     0.23491   0.78759   0.38385   0.00000  Uiso   1.00
H231   H     0.12483   0.68827   0.03101   0.00000  Uiso   1.00
H232   H     0.23748   0.78703   0.47250   0.00000  Uiso   1.00
H233   H     0.02293   0.69324   0.17598   0.00000  Uiso   1.00
H234   H     0.30178   0.68441   0.20671   0.00000  Uiso   1.00
H235   H     0.30269   0.72924   0.16282   0.00000  Uiso   1.00
H236   H     0.19584   0.96976   0.18057   0.00000  Uiso   1.00
H237   H     0.31024   0.80741   0.32334   0.00000  Uiso   1.00
H238   H     0.03026   0.77133   0.33714   0.00000  Uiso   1.00
H239   H     0.03167   0.81577   0.29289   0.00000  Uiso   1.00
H240   H     0.19358   0.61081   0.32691   0.00000  Uiso   1.00
H241   H     0.19496   0.88929   0.18016   0.00000  Uiso   1.00
H242   H     0.13942   0.61082   0.17305   0.00000  Uiso   1.00
H243   H     0.13812   0.88900   0.31972   0.00000  Uiso   1.00
H244   H     0.13831   0.53036   0.17319   0.00000  Uiso   1.00
H245   H     0.13700   0.96945   0.31925   0.00000  Uiso   1.00
H246   H     0.20860   0.81170   0.04103   0.00000  Uiso   1.00
N247   N     0.16667   0.75001   0.12935   0.00000  Uiso   1.00
N248   N     0.16667   0.74999   0.37066   0.00000  Uiso   1.00
O249   O     0.16667   0.68572   0.29072   0.00000  Uiso   1.00
O250   O     0.16666   0.81427   0.20929   0.00000  Uiso   1.00
O251   O     0.16667   0.68573   0.20928   0.00000  Uiso   1.00
O252   O     0.16666   0.81427   0.29072   0.00000  Uiso   1.00
O253   O     0.09161   0.74999   0.28132   0.00000  Uiso   1.00
O254   O     0.24172   0.75000   0.21868   0.00000  Uiso   1.00
O255   O     0.09161   0.75000   0.19989   0.00000  Uiso   1.00
O256   O     0.24172   0.75000   0.30012   0.00000  Uiso   1.00
C257   C     0.49996   0.66493   0.25000   0.00000  Uiso   1.00
C258   C     0.53909   0.77101   0.45073   0.00000  Uiso   1.00
C259   C     0.50002   0.74999   0.02735   0.00000  Uiso   1.00
C260   C     0.50000   0.75000   0.47265   0.00000  Uiso   1.00
C261   C     0.40152   0.74889   0.23802   0.00000  Uiso   1.00
C262   C     0.59848   0.75115   0.26197   0.00000  Uiso   1.00
C263   C     0.34720   0.74165   0.23299   0.00000  Uiso   1.00
C264   C     0.65278   0.75849   0.26693   0.00000  Uiso   1.00
C265   C     0.51507   0.54759   0.29311   0.00000  Uiso   1.00
C266   C     0.51582   0.95247   0.21078   0.00000  Uiso   1.00
C267   C     0.51479   0.59350   0.29320   0.00000  Uiso   1.00
C268   C     0.49999   0.83506   0.24999   0.00000  Uiso   1.00
C269   C     0.51557   0.90655   0.21065   0.00000  Uiso   1.00
C270   C     0.49986   0.61670   0.24998   0.00000  Uiso   1.00
C271   C     0.49991   0.88328   0.24996   0.00000  Uiso   1.00
C272   C     0.48485   0.59350   0.20674   0.00000  Uiso   1.00
C273   C     0.48414   0.90639   0.28922   0.00000  Uiso   1.00
C274   C     0.48446   0.54759   0.20678   0.00000  Uiso   1.00
C275   C     0.48374   0.95230   0.28905   0.00000  Uiso   1.00
C276   C     0.49975   0.52426   0.24994   0.00000  Uiso   1.00
C277   C     0.49975   0.97571   0.24991   0.00000  Uiso   1.00
C278   C     0.65887   0.71051   0.19239   0.00000  Uiso   1.00
C279   C     0.52382   0.78406   0.05682   0.00000  Uiso   1.00
C280   C     0.34103   0.78988   0.30730   0.00000  Uiso   1.00
C281   C     0.46091   0.72897   0.44132   0.00000  Uiso   1.00
C282   C     0.52374   0.78323   0.10755   0.00000  Uiso   1.00
C283   C     0.46190   0.72902   0.39070   0.00000  Uiso   1.00
C284   C     0.47633   0.71675   0.10187   0.00000  Uiso   1.00
C285   C     0.53812   0.77093   0.39988   0.00000  Uiso   1.00
C286   C     0.47625   0.71591   0.05113   0.00000  Uiso   1.00
Cu287  Cu    0.50000   0.74999   0.29822   0.00000  Uiso   1.00
Cu288  Cu    0.50000   0.75000   0.20179   0.00000  Uiso   1.00
H289   H     0.52786   0.53036   0.32669   0.00000  Uiso   1.00
H290   H     0.42919   0.71295   0.45546   0.00000  Uiso   1.00
H291   H     0.54262   0.80948   0.12946   0.00000  Uiso   1.00
H292   H     0.43184   0.71230   0.36742   0.00000  Uiso   1.00
H293   H     0.45747   0.69048   0.11926   0.00000  Uiso   1.00
H294   H     0.56825   0.78759   0.38385   0.00000  Uiso   1.00
H295   H     0.45816   0.68827   0.03101   0.00000  Uiso   1.00
H296   H     0.57082   0.78703   0.47250   0.00000  Uiso   1.00
H297   H     0.35626   0.69324   0.17598   0.00000  Uiso   1.00
H298   H     0.63511   0.68441   0.20671   0.00000  Uiso   1.00
H299   H     0.63603   0.72924   0.16282   0.00000  Uiso   1.00
H300   H     0.52917   0.96976   0.18057   0.00000  Uiso   1.00
H301   H     0.64357   0.80741   0.32334   0.00000  Uiso   1.00
H302   H     0.36359   0.77133   0.33714   0.00000  Uiso   1.00
H303   H     0.36500   0.81577   0.29289   0.00000  Uiso   1.00
H304   H     0.52692   0.61081   0.32691   0.00000  Uiso   1.00
H305   H     0.52829   0.88929   0.18016   0.00000  Uiso   1.00
H306   H     0.47275   0.61082   0.17305   0.00000  Uiso   1.00
H307   H     0.47145   0.88900   0.31972   0.00000  Uiso   1.00
H308   H     0.47164   0.53036   0.17319   0.00000  Uiso   1.00
H309   H     0.47033   0.96945   0.31925   0.00000  Uiso   1.00
H310   H     0.54193   0.81170   0.04103   0.00000  Uiso   1.00
N311   N     0.50000   0.75001   0.12935   0.00000  Uiso   1.00
N312   N     0.50000   0.74999   0.37066   0.00000  Uiso   1.00
O313   O     0.50000   0.68572   0.29072   0.00000  Uiso   1.00
O314   O     0.50000   0.81427   0.20929   0.00000  Uiso   1.00
O315   O     0.50000   0.68573   0.20928   0.00000  Uiso   1.00
O316   O     0.50000   0.81427   0.29072   0.00000  Uiso   1.00
O317   O     0.42495   0.74999   0.28132   0.00000  Uiso   1.00
O318   O     0.57505   0.75000   0.21868   0.00000  Uiso   1.00
O319   O     0.42495   0.75000   0.19989   0.00000  Uiso   1.00
O320   O     0.57505   0.75000   0.30012   0.00000  Uiso   1.00
C321   C     0.83329   0.66493   0.25000   0.00000  Uiso   1.00
C322   C     0.87242   0.77101   0.45073   0.00000  Uiso   1.00
C323   C     0.83335   0.74999   0.02735   0.00000  Uiso   1.00
C324   C     0.83333   0.75000   0.47265   0.00000  Uiso   1.00
C325   C     0.73485   0.74889   0.23802   0.00000  Uiso   1.00
C326   C     0.93181   0.75115   0.26197   0.00000  Uiso   1.00
C327   C     0.68054   0.74165   0.23299   0.00000  Uiso   1.00
C328   C     0.98611   0.75849   0.26693   0.00000  Uiso   1.00
C329   C     0.84840   0.54759   0.29311   0.00000  Uiso   1.00
C330   C     0.84915   0.95247   0.21078   0.00000  Uiso   1.00
C331   C     0.84812   0.59350   0.29320   0.00000  Uiso   1.00
C332   C     0.83332   0.83506   0.24999   0.00000  Uiso   1.00
C333   C     0.84890   0.90655   0.21065   0.00000  Uiso   1.00
C334   C     0.83320   0.61670   0.24998   0.00000  Uiso   1.00
C335   C     0.83324   0.88328   0.24996   0.00000  Uiso   1.00
C336   C     0.81818   0.59350   0.20674   0.00000  Uiso   1.00
C337   C     0.81747   0.90639   0.28922   0.00000  Uiso   1.00
C338   C     0.81780   0.54759   0.20678   0.00000  Uiso   1.00
C339   C     0.81707   0.95230   0.28905   0.00000  Uiso   1.00
C340   C     0.83308   0.52426   0.24994   0.00000  Uiso   1.00
C341   C     0.83309   0.97571   0.24991   0.00000  Uiso   1.00
C342   C     0.99220   0.71051   0.19239   0.00000  Uiso   1.00
C343   C     0.85716   0.78406   0.05682   0.00000  Uiso   1.00
C344   C     0.67436   0.78988   0.30730   0.00000  Uiso   1.00
C345   C     0.79424   0.72897   0.44132   0.00000  Uiso   1.00
C346   C     0.85707   0.78323   0.10755   0.00000  Uiso   1.00
C347   C     0.79523   0.72902   0.39070   0.00000  Uiso   1.00
C348   C     0.80966   0.71675   0.10187   0.00000  Uiso   1.00
C349   C     0.87146   0.77093   0.39988   0.00000  Uiso   1.00
C350   C     0.80959   0.71591   0.05113   0.00000  Uiso   1.00
Cu351  Cu    0.83333   0.74999   0.29822   0.00000  Uiso   1.00
Cu352  Cu    0.83333   0.75000   0.20179   0.00000  Uiso   1.00
H353   H     0.86120   0.53036   0.32669   0.00000  Uiso   1.00
H354   H     0.76252   0.71295   0.45546   0.00000  Uiso   1.00
H355   H     0.87596   0.80948   0.12946   0.00000  Uiso   1.00
H356   H     0.76517   0.71230   0.36742   0.00000  Uiso   1.00
H357   H     0.79080   0.69048   0.11926   0.00000  Uiso   1.00
H358   H     0.90158   0.78759   0.38385   0.00000  Uiso   1.00
H359   H     0.79149   0.68827   0.03101   0.00000  Uiso   1.00
H360   H     0.90415   0.78703   0.47250   0.00000  Uiso   1.00
H361   H     0.68960   0.69324   0.17598   0.00000  Uiso   1.00
H362   H     0.96844   0.68441   0.20671   0.00000  Uiso   1.00
H363   H     0.96936   0.72924   0.16282   0.00000  Uiso   1.00
H364   H     0.86251   0.96976   0.18057   0.00000  Uiso   1.00
H365   H     0.97690   0.80741   0.32334   0.00000  Uiso   1.00
H366   H     0.69692   0.77133   0.33714   0.00000  Uiso   1.00
H367   H     0.69834   0.81577   0.29289   0.00000  Uiso   1.00
H368   H     0.86025   0.61081   0.32691   0.00000  Uiso   1.00
H369   H     0.86163   0.88929   0.18016   0.00000  Uiso   1.00
H370   H     0.80608   0.61082   0.17305   0.00000  Uiso   1.00
H371   H     0.80478   0.88900   0.31972   0.00000  Uiso   1.00
H372   H     0.80497   0.53036   0.17319   0.00000  Uiso   1.00
H373   H     0.80367   0.96945   0.31925   0.00000  Uiso   1.00
H374   H     0.87526   0.81170   0.04103   0.00000  Uiso   1.00
N375   N     0.83333   0.75001   0.12935   0.00000  Uiso   1.00
N376   N     0.83333   0.74999   0.37066   0.00000  Uiso   1.00
O377   O     0.83334   0.68572   0.29072   0.00000  Uiso   1.00
O378   O     0.83333   0.81427   0.20929   0.00000  Uiso   1.00
O379   O     0.83334   0.68573   0.20928   0.00000  Uiso   1.00
O380   O     0.83333   0.81427   0.29072   0.00000  Uiso   1.00
O381   O     0.75828   0.74999   0.28132   0.00000  Uiso   1.00
O382   O     0.90839   0.75000   0.21868   0.00000  Uiso   1.00
O383   O     0.75828   0.75000   0.19989   0.00000  Uiso   1.00
O384   O     0.90839   0.75000   0.30012   0.00000  Uiso   1.00
C385   C     0.16663   0.16493   0.75000   0.00000  Uiso   1.00
C386   C     0.20575   0.27101   0.95073   0.00000  Uiso   1.00
C387   C     0.16669   0.24999   0.52735   0.00000  Uiso   1.00
C388   C     0.16666   0.25000   0.97265   0.00000  Uiso   1.00
C389   C     0.06819   0.24889   0.73802   0.00000  Uiso   1.00
C390   C     0.26514   0.25115   0.76197   0.00000  Uiso   1.00
C391   C     0.01387   0.24165   0.73299   0.00000  Uiso   1.00
C392   C     0.31944   0.25849   0.76693   0.00000  Uiso   1.00
C393   C     0.18173   0.04759   0.79311   0.00000  Uiso   1.00
C394   C     0.18248   0.45247   0.71078   0.00000  Uiso   1.00
C395   C     0.18145   0.09350   0.79320   0.00000  Uiso   1.00
C396   C     0.16665   0.33506   0.74999   0.00000  Uiso   1.00
C397   C     0.18223   0.40655   0.71065   0.00000  Uiso   1.00
C398   C     0.16653   0.11670   0.74998   0.00000  Uiso   1.00
C399   C     0.16657   0.38328   0.74996   0.00000  Uiso   1.00
C400   C     0.15151   0.09350   0.70674   0.00000  Uiso   1.00
C401   C     0.15081   0.40639   0.78922   0.00000  Uiso   1.00
C402   C     0.15113   0.04759   0.70678   0.00000  Uiso   1.00
C403   C     0.15041   0.45230   0.78905   0.00000  Uiso   1.00
C404   C     0.16642   0.02426   0.74994   0.00000  Uiso   1.00
C405   C     0.16642   0.47571   0.74991   0.00000  Uiso   1.00
C406   C     0.32554   0.21051   0.69239   0.00000  Uiso   1.00
C407   C     0.19049   0.28406   0.55682   0.00000  Uiso   1.00
C408   C     0.00769   0.28988   0.80730   0.00000  Uiso   1.00
C409   C     0.12757   0.22897   0.94132   0.00000  Uiso   1.00
C410   C     0.19041   0.28323   0.60755   0.00000  Uiso   1.00
C411   C     0.12856   0.22902   0.89070   0.00000  Uiso   1.00
C412   C     0.14299   0.21675   0.60187   0.00000  Uiso   1.00
C413   C     0.20479   0.27093   0.89988   0.00000  Uiso   1.00
C414   C     0.14292   0.21591   0.55113   0.00000  Uiso   1.00
Cu415  Cu    0.16667   0.24999   0.79822   0.00000  Uiso   1.00
Cu416  Cu    0.16667   0.25000   0.70179   0.00000  Uiso   1.00
H417   H     0.19453   0.03036   0.82669   0.00000  Uiso   1.00
H418   H     0.09585   0.21295   0.95546   0.00000  Uiso   1.00
H419   H     0.20929   0.30948   0.62946   0.00000  Uiso   1.00
H420   H     0.09851   0.21230   0.86742   0.00000  Uiso   1.00
H421   H     0.12413   0.19048   0.61926   0.00000  Uiso   1.00
H422   H     0.23491   0.28759   0.88385   0.00000  Uiso   1.00
H423   H     0.12483   0.18827   0.53101   0.00000  Uiso   1.00
H424   H     0.23748   0.28703   0.97250   0.00000  Uiso   1.00
H425   H     0.02293   0.19324   0.67598   0.00000  Uiso   1.00
H426   H     0.30178   0.18441   0.70671   0.00000  Uiso   1.00
H427   H     0.30269   0.22924   0.66282   0.00000  Uiso   1.00
H428   H     0.19584   0.46976   0.68057   0.00000  Uiso   1.00
H429   H     0.31024   0.30741   0.82334   0.00000  Uiso   1.00
H430   H     0.03026   0.27133   0.83714   0.00000  Uiso   1.00
H431   H     0.03167   0.31577   0.79289   0.00000  Uiso   1.00
H432   H     0.19358   0.11081   0.82691   0.00000  Uiso   1.00
H433   H     0.19496   0.38929   0.68016   0.00000  Uiso   1.00
H434   H     0.13942   0.11082   0.67305   0.00000  Uiso   1.00
H435   H     0.13812   0.38900   0.81972   0.00000  Uiso   1.00
H436   H     0.13831   0.03036   0.67319   0.00000  Uiso   1.00
H437   H     0.13700   0.46945   0.81925   0.00000  Uiso   1.00
H438   H     0.20860   0.31170   0.54103   0.00000  Uiso   1.00
N439   N     0.16667   0.25001   0.62935   0.00000  Uiso   1.00
N440   N     0.16667   0.24999   0.87066   0.00000  Uiso   1.00
O441   O     0.16667   0.18572   0.79072   0.00000  Uiso   1.00
O442   O     0.16666   0.31427   0.70929   0.00000  Uiso   1.00
O443   O     0.16667   0.18573   0.70928   0.00000  Uiso   1.00
O444   O     0.16666   0.31427   0.79072   0.00000  Uiso   1.00
O445   O     0.09161   0.24999   0.78132   0.00000  Uiso   1.00
O446   O     0.24172   0.25000   0.71868   0.00000  Uiso   1.00
O447   O     0.09161   0.25000   0.69989   0.00000  Uiso   1.00
O448   O     0.24172   0.25000   0.80012   0.00000  Uiso   1.00
C449   C     0.49996   0.16493   0.75000   0.00000  Uiso   1.00
C450   C     0.53909   0.27101   0.95073   0.00000  Uiso   1.00
C451   C     0.50002   0.24999   0.52735   0.00000  Uiso   1.00
C452   C     0.50000   0.25000   0.97265   0.00000  Uiso   1.00
C453   C     0.40152   0.24889   0.73802   0.00000  Uiso   1.00
C454   C     0.59848   0.25115   0.76197   0.00000  Uiso   1.00
C455   C     0.34720   0.24165   0.73299   0.00000  Uiso   1.00
C456   C     0.65278   0.25849   0.76693   0.00000  Uiso   1.00
C457   C     0.51507   0.04759   0.79311   0.00000  Uiso   1.00
C458   C     0.51582   0.45247   0.71078   0.00000  Uiso   1.00
C459   C     0.51479   0.09350   0.79320   0.00000  Uiso   1.00
C460   C     0.49999   0.33506   0.74999   0.00000  Uiso   1.00
C461   C     0.51557   0.40655   0.71065   0.00000  Uiso   1.00
C462   C     0.49986   0.11670   0.74998   0.00000  Uiso   1.00
C463   C     0.49991   0.38328   0.74996   0.00000  Uiso   1.00
C464   C     0.48485   0.09350   0.70674   0.00000  Uiso   1.00
C465   C     0.48414   0.40639   0.78922   0.00000  Uiso   1.00
C466   C     0.48446   0.04759   0.70678   0.00000  Uiso   1.00
C467   C     0.48374   0.45230   0.78905   0.00000  Uiso   1.00
C468   C     0.49975   0.02426   0.74994   0.00000  Uiso   1.00
C469   C     0.49975   0.47571   0.74991   0.00000  Uiso   1.00
C470   C     0.65887   0.21051   0.69239   0.00000  Uiso   1.00
C471   C     0.52382   0.28406   0.55682   0.00000  Uiso   1.00
C472   C     0.34103   0.28988   0.80730   0.00000  Uiso   1.00
C473   C     0.46091   0.22897   0.94132   0.00000  Uiso   1.00
C474   C     0.52374   0.28323   0.60755   0.00000  Uiso   1.00
C475   C     0.46190   0.22902   0.89070   0.00000  Uiso   1.00
C476   C     0.47633   0.21675   0.60187   0.00000  Uiso   1.00
C477   C     0.53812   0.27093   0.89988   0.00000  Uiso   1.00
C478   C     0.47625   0.21591   0.55113   0.00000  Uiso   1.00
Cu479  Cu    0.50000   0.24999   0.79822   0.00000  Uiso   1.00
Cu480  Cu    0.50000   0.25000   0.70179   0.00000  Uiso   1.00
H481   H     0.52786   0.03036   0.82669   0.00000  Uiso   1.00
H482   H     0.42919   0.21295   0.95546   0.00000  Uiso   1.00
H483   H     0.54262   0.30948   0.62946   0.00000  Uiso   1.00
H484   H     0.43184   0.21230   0.86742   0.00000  Uiso   1.00
H485   H     0.45747   0.19048   0.61926   0.00000  Uiso   1.00
H486   H     0.56825   0.28759   0.88385   0.00000  Uiso   1.00
H487   H     0.45816   0.18827   0.53101   0.00000  Uiso   1.00
H488   H     0.57082   0.28703   0.97250   0.00000  Uiso   1.00
H489   H     0.35626   0.19324   0.67598   0.00000  Uiso   1.00
H490   H     0.63511   0.18441   0.70671   0.00000  Uiso   1.00
H491   H     0.63603   0.22924   0.66282   0.00000  Uiso   1.00
H492   H     0.52917   0.46976   0.68057   0.00000  Uiso   1.00
H493   H     0.64357   0.30741   0.82334   0.00000  Uiso   1.00
H494   H     0.36359   0.27133   0.83714   0.00000  Uiso   1.00
H495   H     0.36500   0.31577   0.79289   0.00000  Uiso   1.00
H496   H     0.52692   0.11081   0.82691   0.00000  Uiso   1.00
H497   H     0.52829   0.38929   0.68016   0.00000  Uiso   1.00
H498   H     0.47275   0.11082   0.67305   0.00000  Uiso   1.00
H499   H     0.47145   0.38900   0.81972   0.00000  Uiso   1.00
H500   H     0.47164   0.03036   0.67319   0.00000  Uiso   1.00
H501   H     0.47033   0.46945   0.81925   0.00000  Uiso   1.00
H502   H     0.54193   0.31170   0.54103   0.00000  Uiso   1.00
N503   N     0.50000   0.25001   0.62935   0.00000  Uiso   1.00
N504   N     0.50000   0.24999   0.87066   0.00000  Uiso   1.00
O505   O     0.50000   0.18572   0.79072   0.00000  Uiso   1.00
O506   O     0.50000   0.31427   0.70929   0.00000  Uiso   1.00
O507   O     0.50000   0.18573   0.70928   0.00000  Uiso   1.00
O508   O     0.50000   0.31427   0.79072   0.00000  Uiso   1.00
O509   O     0.42495   0.24999   0.78132   0.00000  Uiso   1.00
O510   O     0.57505   0.25000   0.71868   0.00000  Uiso   1.00
O511   O     0.42495   0.25000   0.69989   0.00000  Uiso   1.00
O512   O     0.57505   0.25000   0.80012   0.00000  Uiso   1.00
C513   C     0.83329   0.16493   0.75000   0.00000  Uiso   1.00
C514   C     0.87242   0.27101   0.95073   0.00000  Uiso   1.00
C515   C     0.83335   0.24999   0.52735   0.00000  Uiso   1.00
C516   C     0.83333   0.25000   0.97265   0.00000  Uiso   1.00
C517   C     0.73485   0.24889   0.73802   0.00000  Uiso   1.00
C518   C     0.93181   0.25115   0.76197   0.00000  Uiso   1.00
C519   C     0.68054   0.24165   0.73299   0.00000  Uiso   1.00
C520   C     0.98611   0.25849   0.76693   0.00000  Uiso   1.00
C521   C     0.84840   0.04759   0.79311   0.00000  Uiso   1.00
C522   C     0.84915   0.45247   0.71078   0.00000  Uiso   1.00
C523   C     0.84812   0.09350   0.79320   0.00000  Uiso   1.00
C524   C     0.83332   0.33506   0.74999   0.00000  Uiso   1.00
C525   C     0.84890   0.40655   0.71065   0.00000  Uiso   1.00
C526   C     0.83320   0.11670   0.74998   0.00000  Uiso   1.00
C527   C     0.83324   0.38328   0.74996   0.00000  Uiso   1.00
C528   C     0.81818   0.09350   0.70674   0.00000  Uiso   1.00
C529   C     0.81747   0.40639   0.78922   0.00000  Uiso   1.00
C530   C     0.81780   0.04759   0.70678   0.00000  Uiso   1.00
C531   C     0.81707   0.45230   0.78905   0.00000  Uiso   1.00
C532   C     0.83308   0.02426   0.74994   0.00000  Uiso   1.00
C533   C     0.83309   0.47571   0.74991   0.00000  Uiso   1.00
C534   C     0.99220   0.21051   0.69239   0.00000  Uiso   1.00
C535   C     0.85716   0.28406   0.55682   0.00000  Uiso   1.00
C536   C     0.67436   0.28988   0.80730   0.00000  Uiso   1.00
C537   C     0.79424   0.22897   0.94132   0.00000  Uiso   1.00
C538   C     0.85707   0.28323   0.60755   0.00000  Uiso   1.00
C539   C     0.79523   0.22902   0.89070   0.00000  Uiso   1.00
C540   C     0.80966   0.21675   0.60187   0.00000  Uiso   1.00
C541   C     0.87146   0.27093   0.89988   0.00000  Uiso   1.00
C542   C     0.80959   0.21591   0.55113   0.00000  Uiso   1.00
Cu543  Cu    0.83333   0.24999   0.79822   0.00000  Uiso   1.00
Cu544  Cu    0.83333   0.25000   0.70179   0.00000  Uiso   1.00
H545   H     0.86120   0.03036   0.82669   0.00000  Uiso   1.00
H546   H     0.76252   0.21295   0.95546   0.00000  Uiso   1.00
H547   H     0.87596   0.30948   0.62946   0.00000  Uiso   1.00
H548   H     0.76517   0.21230   0.86742   0.00000  Uiso   1.00
H549   H     0.79080   0.19048   0.61926   0.00000  Uiso   1.00
H550   H     0.90158   0.28759   0.88385   0.00000  Uiso   1.00
H551   H     0.79149   0.18827   0.53101   0.00000  Uiso   1.00
H552   H     0.90415   0.28703   0.97250   0.00000  Uiso   1.00
H553   H     0.68960   0.19324   0.67598   0.00000  Uiso   1.00
H554   H     0.96844   0.18441   0.70671   0.00000  Uiso   1.00
H555   H     0.96936   0.22924   0.66282   0.00000  Uiso   1.00
H556   H     0.86251   0.46976   0.68057   0.00000  Uiso   1.00
H557   H     0.97690   0.30741   0.82334   0.00000  Uiso   1.00
H558   H     0.69692   0.27133   0.83714   0.00000  Uiso   1.00
H559   H     0.69834   0.31577   0.79289   0.00000  Uiso   1.00
H560   H     0.86025   0.11081   0.82691   0.00000  Uiso   1.00
H561   H     0.86163   0.38929   0.68016   0.00000  Uiso   1.00
H562   H     0.80608   0.11082   0.67305   0.00000  Uiso   1.00
H563   H     0.80478   0.38900   0.81972   0.00000  Uiso   1.00
H564   H     0.80497   0.03036   0.67319   0.00000  Uiso   1.00
H565   H     0.80367   0.46945   0.81925   0.00000  Uiso   1.00
H566   H     0.87526   0.31170   0.54103   0.00000  Uiso   1.00
N567   N     0.83333   0.25001   0.62935   0.00000  Uiso   1.00
N568   N     0.83333   0.24999   0.87066   0.00000  Uiso   1.00
O569   O     0.83334   0.18572   0.79072   0.00000  Uiso   1.00
O570   O     0.83333   0.31427   0.70929   0.00000  Uiso   1.00
O571   O     0.83334   0.18573   0.70928   0.00000  Uiso   1.00
O572   O     0.83333   0.31427   0.79072   0.00000  Uiso   1.00
O573   O     0.75828   0.24999   0.78132   0.00000  Uiso   1.00
O574   O     0.90839   0.25000   0.71868   0.00000  Uiso   1.00
O575   O     0.75828   0.25000   0.69989   0.00000  Uiso   1.00
O576   O     0.90839   0.25000   0.80012   0.00000  Uiso   1.00
C577   C     0.16663   0.66493   0.75000   0.00000  Uiso   1.00
C578   C     0.20575   0.77101   0.95073   0.00000  Uiso   1.00
C579   C     0.16669   0.74999   0.52735   0.00000  Uiso   1.00
C580   C     0.16666   0.75000   0.97265   0.00000  Uiso   1.00
C581   C     0.06819   0.74889   0.73802   0.00000  Uiso   1.00
C582   C     0.26514   0.75115   0.76197   0.00000  Uiso   1.00
C583   C     0.01387   0.74165   0.73299   0.00000  Uiso   1.00
C584   C     0.31944   0.75849   0.76693   0.00000  Uiso   1.00
C585   C     0.18173   0.54759   0.79311   0.00000  Uiso   1.00
C586   C     0.18248   0.95247   0.71078   0.00000  Uiso   1.00
C587   C     0.18145   0.59350   0.79320   0.00000  Uiso   1.00
C588   C     0.16665   0.83506   0.74999   0.00000  Uiso   1.00
C589   C     0.18223   0.90655   0.71065   0.00000  Uiso   1.00
C590   C     0.16653   0.61670   0.74998   0.00000  Uiso   1.00
C591   C     0.16657   0.88328   0.74996   0.00000  Uiso   1.00
C592   C     0.15151   0.59350   0.70674   0.00000  Uiso   1.00
C593   C     0.15081   0.90639   0.78922   0.00000  Uiso   1.00
C594   C     0.15113   0.54759   0.70678   0.00000  Uiso   1.00
C595   C     0.15041   0.95230   0.78905   0.00000  Uiso   1.00
C596   C     0.16642   0.52426   0.74994   0.00000  Uiso   1.00
C597   C     0.16642   0.97571   0.74991   0.00000  Uiso   1.00
C598   C     0.32554   0.71051   0.69239   0.00000  Uiso   1.00
C599   C     0.19049   0.78406   0.55682   0.00000  Uiso   1.00
C600   C     0.00769   0.78988   0.80730   0.00000  Uiso   1.00
C601   C     0.12757   0.72897   0.94132   0.00000  Uiso   1.00
C602   C     0.19041   0.78323   0.60755   0.00000  Uiso   1.00
C603   C     0.12856   0.72902   0.89070   0.00000  Uiso   1.00
C604   C     0.14299   0.71675   0.60187   0.00000  Uiso   1.00
C605   C     0.20479   0.77093   0.89988   0.00000  Uiso   1.00
C606   C     0.14292   0.71591   0.55113   0.00000  Uiso   1.00
Cu607  Cu    0.16667   0.74999   0.79822   0.00000  Uiso   1.00
Cu608  Cu    0.16667   0.75000   0.70179   0.00000  Uiso   1.00
H609   H     0.19453   0.53036   0.82669   0.00000  Uiso   1.00
H610   H     0.09585   0.71295   0.95546   0.00000  Uiso   1.00
H611   H     0.20929   0.80948   0.62946   0.00000  Uiso   1.00
H612   H     0.09851   0.71230   0.86742   0.00000  Uiso   1.00
H613   H     0.12413   0.69048   0.61926   0.00000  Uiso   1.00
H614   H     0.23491   0.78759   0.88385   0.00000  Uiso   1.00
H615   H     0.12483   0.68827   0.53101   0.00000  Uiso   1.00
H616   H     0.23748   0.78703   0.97250   0.00000  Uiso   1.00
H617   H     0.02293   0.69324   0.67598   0.00000  Uiso   1.00
H618   H     0.30178   0.68441   0.70671   0.00000  Uiso   1.00
H619   H     0.30269   0.72924   0.66282   0.00000  Uiso   1.00
H620   H     0.19584   0.96976   0.68057   0.00000  Uiso   1.00
H621   H     0.31024   0.80741   0.82334   0.00000  Uiso   1.00
H622   H     0.03026   0.77133   0.83714   0.00000  Uiso   1.00
H623   H     0.03167   0.81577   0.79289   0.00000  Uiso   1.00
H624   H     0.19358   0.61081   0.82691   0.00000  Uiso   1.00
H625   H     0.19496   0.88929   0.68016   0.00000  Uiso   1.00
H626   H     0.13942   0.61082   0.67305   0.00000  Uiso   1.00
H627   H     0.13812   0.88900   0.81972   0.00000  Uiso   1.00
H628   H     0.13831   0.53036   0.67319   0.00000  Uiso   1.00
H629   H     0.13700   0.96945   0.81925   0.00000  Uiso   1.00
H630   H     0.20860   0.81170   0.54103   0.00000  Uiso   1.00
N631   N     0.16667   0.75001   0.62935   0.00000  Uiso   1.00
N632   N     0.16667   0.74999   0.87066   0.00000  Uiso   1.00
O633   O     0.16667   0.68572   0.79072   0.00000  Uiso   1.00
O634   O     0.16666   0.81427   0.70929   0.00000  Uiso   1.00
O635   O     0.16667   0.68573   0.70928   0.00000  Uiso   1.00
O636   O     0.16666   0.81427   0.79072   0.00000  Uiso   1.00
O637   O     0.09161   0.74999   0.78132   0.00000  Uiso   1.00
O638   O     0.24172   0.75000   0.71868   0.00000  Uiso   1.00
O639   O     0.09161   0.75000   0.69989   0.00000  Uiso   1.00
O640   O     0.24172   0.75000   0.80012   0.00000  Uiso   1.00
C641   C     0.49996   0.66493   0.75000   0.00000  Uiso   1.00
C642   C     0.53909   0.77101   0.95073   0.00000  Uiso   1.00
C643   C     0.50002   0.74999   0.52735   0.00000  Uiso   1.00
C644   C     0.50000   0.75000   0.97265   0.00000  Uiso   1.00
C645   C     0.40152   0.74889   0.73802   0.00000  Uiso   1.00
C646   C     0.59848   0.75115   0.76197   0.00000  Uiso   1.00
C647   C     0.34720   0.74165   0.73299   0.00000  Uiso   1.00
C648   C     0.65278   0.75849   0.76693   0.00000  Uiso   1.00
C649   C     0.51507   0.54759   0.79311   0.00000  Uiso   1.00
C650   C     0.51582   0.95247   0.71078   0.00000  Uiso   1.00
C651   C     0.51479   0.59350   0.79320   0.00000  Uiso   1.00
C652   C     0.49999   0.83506   0.74999   0.00000  Uiso   1.00
C653   C     0.51557   0.90655   0.71065   0.00000  Uiso   1.00
C654   C     0.49986   0.61670   0.74998   0.00000  Uiso   1.00
C655   C     0.49991   0.88328   0.74996   0.00000  Uiso   1.00
C656   C     0.48485   0.59350   0.70674   0.00000  Uiso   1.00
C657   C     0.48414   0.90639   0.78922   0.00000  Uiso   1.00
C658   C     0.48446   0.54759   0.70678   0.00000  Uiso   1.00
C659   C     0.48374   0.95230   0.78905   0.00000  Uiso   1.00
C660   C     0.49975   0.52426   0.74994   0.00000  Uiso   1.00
C661   C     0.49975   0.97571   0.74991   0.00000  Uiso   1.00
C662   C     0.65887   0.71051   0.69239   0.00000  Uiso   1.00
C663   C     0.52382   0.78406   0.55682   0.00000  Uiso   1.00
C664   C     0.34103   0.78988   0.80730   0.00000  Uiso   1.00
C665   C     0.46091   0.72897   0.94132   0.00000  Uiso   1.00
C666   C     0.52374   0.78323   0.60755   0.00000  Uiso   1.00
C667   C     0.46190   0.72902   0.89070   0.00000  Uiso   1.00
C668   C     0.47633   0.71675   0.60187   0.00000  Uiso   1.00
C669   C     0.53812   0.77093   0.89988   0.00000  Uiso   1.00
C670   C     0.47625   0.71591   0.55113   0.00000  Uiso   1.00
Cu671  Cu    0.50000   0.74999   0.79822   0.00000  Uiso   1.00
Cu672  Cu    0.50000   0.75000   0.70179   0.00000  Uiso   1.00
H673   H     0.52786   0.53036   0.82669   0.00000  Uiso   1.00
H674   H     0.42919   0.71295   0.95546   0.00000  Uiso   1.00
H675   H     0.54262   0.80948   0.62946   0.00000  Uiso   1.00
H676   H     0.43184   0.71230   0.86742   0.00000  Uiso   1.00
H677   H     0.45747   0.69048   0.61926   0.00000  Uiso   1.00
H678   H     0.56825   0.78759   0.88385   0.00000  Uiso   1.00
H679   H     0.45816   0.68827   0.53101   0.00000  Uiso   1.00
H680   H     0.57082   0.78703   0.97250   0.00000  Uiso   1.00
H681   H     0.35626   0.69324   0.67598   0.00000  Uiso   1.00
H682   H     0.63511   0.68441   0.70671   0.00000  Uiso   1.00
H683   H     0.63603   0.72924   0.66282   0.00000  Uiso   1.00
H684   H     0.52917   0.96976   0.68057   0.00000  Uiso   1.00
H685   H     0.64357   0.80741   0.82334   0.00000  Uiso   1.00
H686   H     0.36359   0.77133   0.83714   0.00000  Uiso   1.00
H687   H     0.36500   0.81577   0.79289   0.00000  Uiso   1.00
H688   H     0.52692   0.61081   0.82691   0.00000  Uiso   1.00
H689   H     0.52829   0.88929   0.68016   0.00000  Uiso   1.00
H690   H     0.47275   0.61082   0.67305   0.00000  Uiso   1.00
H691   H     0.47145   0.88900   0.81972   0.00000  Uiso   1.00
H692   H     0.47164   0.53036   0.67319   0.00000  Uiso   1.00
H693   H     0.47033   0.96945   0.81925   0.00000  Uiso   1.00
H694   H     0.54193   0.81170   0.54103   0.00000  Uiso   1.00
N695   N     0.50000   0.75001   0.62935   0.00000  Uiso   1.00
N696   N     0.50000   0.74999   0.87066   0.00000  Uiso   1.00
O697   O     0.50000   0.68572   0.79072   0.00000  Uiso   1.00
O698   O     0.50000   0.81427   0.70929   0.00000  Uiso   1.00
O699   O     0.50000   0.68573   0.70928   0.00000  Uiso   1.00
O700   O     0.50000   0.81427   0.79072   0.00000  Uiso   1.00
O701   O     0.42495   0.74999   0.78132   0.00000  Uiso   1.00
O702   O     0.57505   0.75000   0.71868   0.00000  Uiso   1.00
O703   O     0.42495   0.75000   0.69989   0.00000  Uiso   1.00
O704   O     0.57505   0.75000   0.80012   0.00000  Uiso   1.00
C705   C     0.83329   0.66493   0.75000   0.00000  Uiso   1.00
C706   C     0.87242   0.77101   0.95073   0.00000  Uiso   1.00
C707   C     0.83335   0.74999   0.52735   0.00000  Uiso   1.00
C708   C     0.83333   0.75000   0.97265   0.00000  Uiso   1.00
C709   C     0.73485   0.74889   0.73802   0.00000  Uiso   1.00
C710   C     0.93181   0.75115   0.76197   0.00000  Uiso   1.00
C711   C     0.68054   0.74165   0.73299   0.00000  Uiso   1.00
C712   C     0.98611   0.75849   0.76693   0.00000  Uiso   1.00
C713   C     0.84840   0.54759   0.79311   0.00000  Uiso   1.00
C714   C     0.84915   0.95247   0.71078   0.00000  Uiso   1.00
C715   C     0.84812   0.59350   0.79320   0.00000  Uiso   1.00
C716   C     0.83332   0.83506   0.74999   0.00000  Uiso   1.00
C717   C     0.84890   0.90655   0.71065   0.00000  Uiso   1.00
C718   C     0.83320   0.61670   0.74998   0.00000  Uiso   1.00
C719   C     0.83324   0.88328   0.74996   0.00000  Uiso   1.00
C720   C     0.81818   0.59350   0.70674   0.00000  Uiso   1.00
C721   C     0.81747   0.90639   0.78922   0.00000  Uiso   1.00
C722   C     0.81780   0.54759   0.70678   0.00000  Uiso   1.00
C723   C     0.81707   0.95230   0.78905   0.00000  Uiso   1.00
C724   C     0.83308   0.52426   0.74994   0.00000  Uiso   1.00
C725   C     0.83309   0.97571   0.74991   0.00000  Uiso   1.00
C726   C     0.99220   0.71051   0.69239   0.00000  Uiso   1.00
C727   C     0.85716   0.78406   0.55682   0.00000  Uiso   1.00
C728   C     0.67436   0.78988   0.80730   0.00000  Uiso   1.00
C729   C     0.79424   0.72897   0.94132   0.00000  Uiso   1.00
C730   C     0.85707   0.78323   0.60755   0.00000  Uiso   1.00
C731   C     0.79523   0.72902   0.89070   0.00000  Uiso   1.00
C732   C     0.80966   0.71675   0.60187   0.00000  Uiso   1.00
C733   C     0.87146   0.77093   0.89988   0.00000  Uiso   1.00
C734   C     0.80959   0.71591   0.55113   0.00000  Uiso   1.00
Cu735  Cu    0.83333   0.74999   0.79822   0.00000  Uiso   1.00
Cu736  Cu    0.83333   0.75000   0.70179   0.00000  Uiso   1.00
H737   H     0.86120   0.53036   0.82669   0.00000  Uiso   1.00
H738   H     0.76252   0.71295   0.95546   0.00000  Uiso   1.00
H739   H     0.87596   0.80948   0.62946   0.00000  Uiso   1.00
H740   H     0.76517   0.71230   0.86742   0.00000  Uiso   1.00
H741   H     0.79080   0.69048   0.61926   0.00000  Uiso   1.00
H742   H     0.90158   0.78759   0.88385   0.00000  Uiso   1.00
H743   H     0.79149   0.68827   0.53101   0.00000  Uiso   1.00
H744   H     0.90415   0.78703   0.97250   0.00000  Uiso   1.00
H745   H     0.68960   0.69324   0.67598   0.00000  Uiso   1.00
H746   H     0.96844   0.68441   0.70671   0.00000  Uiso   1.00
H747   H     0.96936   0.72924   0.66282   0.00000  Uiso   1.00
H748   H     0.86251   0.96976   0.68057   0.00000  Uiso   1.00
H749   H     0.97690   0.80741   0.82334   0.00000  Uiso   1.00
H750   H     0.69692   0.77133   0.83714   0.00000  Uiso   1.00
H751   H     0.69834   0.81577   0.79289   0.00000  Uiso   1.00
H752   H     0.86025   0.61081   0.82691   0.00000  Uiso   1.00
H753   H     0.86163   0.88929   0.68016   0.00000  Uiso   1.00
H754   H     0.80608   0.61082   0.67305   0.00000  Uiso   1.00
H755   H     0.80478   0.88900   0.81972   0.00000  Uiso   1.00
H756   H     0.80497   0.53036   0.67319   0.00000  Uiso   1.00
H757   H     0.80367   0.96945   0.81925   0.00000  Uiso   1.00
H758   H     0.87526   0.81170   0.54103   0.00000  Uiso   1.00
N759   N     0.83333   0.75001   0.62935   0.00000  Uiso   1.00
N760   N     0.83333   0.74999   0.87066   0.00000  Uiso   1.00
O761   O     0.83334   0.68572   0.79072   0.00000  Uiso   1.00
O762   O     0.83333   0.81427   0.70929   0.00000  Uiso   1.00
O763   O     0.83334   0.68573   0.70928   0.00000  Uiso   1.00
O764   O     0.83333   0.81427   0.79072   0.00000  Uiso   1.00
O765   O     0.75828   0.74999   0.78132   0.00000  Uiso   1.00
O766   O     0.90839   0.75000   0.71868   0.00000  Uiso   1.00
O767   O     0.75828   0.75000   0.69989   0.00000  Uiso   1.00
O768   O     0.90839   0.75000   0.80012   0.00000  Uiso   1.00
loop_
_geom_bond_atom_site_label_1
_geom_bond_atom_site_label_2
_geom_bond_distance
_geom_bond_site_symmetry_2
_ccdc_geom_bond_type
C1     C14     1.460   .     S
C1     O57     1.292   .     A
C1     O59     1.292   .     A
C2     C4      1.411   .     A
C2     C29     1.406   .     A
C2     H40     1.081   .     S
C3     C30     1.411   .     A
C3     C23     1.411   .     A
C3     C388    1.516   1_554 S
C4     C25     1.411   .     A
C4     C387    1.516   .     S
C5     C7      1.438   .     S
C5     O63     1.291   .     A
C5     O61     1.279   .     A
C6     O62     1.278   .     A
C6     O64     1.291   .     A
C6     C8      1.438   .     S
C7     C136    1.363   1_455 S
C7     C150    1.522   1_455 S
C8     C71     1.363   .     S
C8     C88     1.521   .     S
C9     H33     1.083   .     S
C9     C11     1.390   .     A
C9     C20     1.404   .     A
C10    C21     1.404   .     A
C10    H44     1.083   .     S
C10    C13     1.390   .     A
C11    H48     1.083   .     S
C11    C14     1.402   .     A
C12    C15     1.460   .     S
C12    O60     1.292   .     A
C12    O58     1.292   .     A
C13    C15     1.402   .     A
C13    H49     1.083   .     S
C14    C16     1.402   .     A
C15    C17     1.402   .     A
C16    H50     1.083   .     S
C16    C18     1.390   .     A
C17    H51     1.083   .     S
C17    C19     1.390   .     A
C18    H52     1.083   .     S
C18    C20     1.404   .     A
C19    H53     1.083   .     S
C19    C21     1.404   .     A
C20    C213    1.470   1_545 S
C21    C212    1.470   .     S
C22    H43     1.110   .     S
C22    H42     1.111   .     S
C22    C71     1.522   .     S
C22    H105    1.111   .     S
C23    H54     1.081   .     S
C23    C26     1.406   .     A
C24    H46     1.109   .     S
C24    H47     1.111   .     S
C24    C136    1.521   1_455 S
C24    H173    1.111   1_455 S
C25    C27     1.407   .     A
C25    H34     1.081   .     S
C26    N55     1.364   .     A
C26    H35     1.081   .     S
C27    H36     1.081   .     S
C27    N56     1.363   .     A
C28    C30     1.406   .     A
C28    H37     1.081   .     S
C28    N55     1.364   .     A
C29    H38     1.081   .     S
C29    N56     1.364   .     A
C30    H39     1.081   .     S
Cu31   O60     1.957   .     S
Cu31   N56     2.008   .     S
Cu31   O61     1.976   .     S
Cu31   O57     1.957   .     S
Cu31   O64     1.974   .     S
Cu31   Cu32    2.673   .     S
Cu32   N55     2.008   .     S
Cu32   O58     1.957   .     S
Cu32   O62     1.976   .     S
Cu32   O59     1.957   .     S
Cu32   O63     1.974   .     S
H41    C150    1.111   1_455 S
H45    C88     1.111   .     S
C65    C78     1.460   .     S
C65    O121    1.292   .     A
C65    O123    1.292   .     A
C66    C68     1.411   .     A
C66    C93     1.406   .     A
C66    H104    1.081   .     S
C67    C94     1.411   .     A
C67    C87     1.411   .     A
C67    C452    1.516   1_554 S
C68    C89     1.411   .     A
C68    C451    1.516   .     S
C69    C71     1.438   .     S
C69    O127    1.291   .     A
C69    O125    1.279   .     A
C70    O126    1.278   .     A
C70    O128    1.291   .     A
C70    C72     1.438   .     S
C72    C135    1.363   .     S
C72    C152    1.521   .     S
C73    H97     1.083   .     S
C73    C75     1.390   .     A
C73    C84     1.404   .     A
C74    C85     1.404   .     A
C74    H108    1.083   .     S
C74    C77     1.390   .     A
C75    H112    1.083   .     S
C75    C78     1.402   .     A
C76    C79     1.460   .     S
C76    O124    1.292   .     A
C76    O122    1.292   .     A
C77    C79     1.402   .     A
C77    H113    1.083   .     S
C78    C80     1.402   .     A
C79    C81     1.402   .     A
C80    H114    1.083   .     S
C80    C82     1.390   .     A
C81    H115    1.083   .     S
C81    C83     1.390   .     A
C82    H116    1.083   .     S
C82    C84     1.404   .     A
C83    H117    1.083   .     S
C83    C85     1.404   .     A
C84    C277    1.470   1_545 S
C85    C276    1.470   .     S
C86    H107    1.110   .     S
C86    H106    1.111   .     S
C86    C135    1.522   .     S
C86    H169    1.111   .     S
C87    H118    1.081   .     S
C87    C90     1.406   .     A
C88    H110    1.109   .     S
C88    H111    1.111   .     S
C89    C91     1.407   .     A
C89    H98     1.081   .     S
C90    N119    1.364   .     A
C90    H99     1.081   .     S
C91    H100    1.081   .     S
C91    N120    1.363   .     A
C92    C94     1.406   .     A
C92    H101    1.081   .     S
C92    N119    1.364   .     A
C93    H102    1.081   .     S
C93    N120    1.364   .     A
C94    H103    1.081   .     S
Cu95   O124    1.957   .     S
Cu95   N120    2.008   .     S
Cu95   O125    1.976   .     S
Cu95   O121    1.957   .     S
Cu95   O128    1.974   .     S
Cu95   Cu96    2.673   .     S
Cu96   N119    2.008   .     S
Cu96   O122    1.957   .     S
Cu96   O126    1.976   .     S
Cu96   O123    1.957   .     S
Cu96   O127    1.974   .     S
H109   C152    1.111   .     S
C129   C142    1.460   .     S
C129   O185    1.292   .     A
C129   O187    1.292   .     A
C130   C132    1.411   .     A
C130   C157    1.406   .     A
C130   H168    1.081   .     S
C131   C158    1.411   .     A
C131   C151    1.411   .     A
C131   C516    1.516   1_554 S
C132   C153    1.411   .     A
C132   C515    1.516   .     S
C133   C135    1.438   .     S
C133   O191    1.291   .     A
C133   O189    1.279   .     A
C134   O190    1.278   .     A
C134   O192    1.291   .     A
C134   C136    1.438   .     S
C136   C7      1.363   1_655 S
C136   C24     1.521   1_655 S
C137   H161    1.083   .     S
C137   C139    1.390   .     A
C137   C148    1.404   .     A
C138   C149    1.404   .     A
C138   H172    1.083   .     S
C138   C141    1.390   .     A
C139   H176    1.083   .     S
C139   C142    1.402   .     A
C140   C143    1.460   .     S
C140   O188    1.292   .     A
C140   O186    1.292   .     A
C141   C143    1.402   .     A
C141   H177    1.083   .     S
C142   C144    1.402   .     A
C143   C145    1.402   .     A
C144   H178    1.083   .     S
C144   C146    1.390   .     A
C145   H179    1.083   .     S
C145   C147    1.390   .     A
C146   H180    1.083   .     S
C146   C148    1.404   .     A
C147   H181    1.083   .     S
C147   C149    1.404   .     A
C148   C341    1.470   1_545 S
C149   C340    1.470   .     S
C150   H171    1.110   .     S
C150   H170    1.111   .     S
C150   C7      1.522   1_655 S
C150   H41     1.111   1_655 S
C151   H182    1.081   .     S
C151   C154    1.406   .     A
C152   H174    1.109   .     S
C152   H175    1.111   .     S
C153   C155    1.407   .     A
C153   H162    1.081   .     S
C154   N183    1.364   .     A
C154   H163    1.081   .     S
C155   H164    1.081   .     S
C155   N184    1.363   .     A
C156   C158    1.406   .     A
C156   H165    1.081   .     S
C156   N183    1.364   .     A
C157   H166    1.081   .     S
C157   N184    1.364   .     A
C158   H167    1.081   .     S
Cu159  O188    1.957   .     S
Cu159  N184    2.008   .     S
Cu159  O189    1.976   .     S
Cu159  O185    1.957   .     S
Cu159  O192    1.974   .     S
Cu159  Cu160   2.673   .     S
Cu160  N183    2.008   .     S
Cu160  O186    1.957   .     S
Cu160  O190    1.976   .     S
Cu160  O187    1.957   .     S
Cu160  O191    1.974   .     S
H173   C24     1.111   1_655 S
C193   C206    1.460   .     S
C193   O249    1.292   .     A
C193   O251    1.292   .     A
C194   C196    1.411   .     A
C194   C221    1.406   .     A
C194   H232    1.081   .     S
C195   C222    1.411   .     A
C195   C215    1.411   .     A
C195   C580    1.516   1_554 S
C196   C217    1.411   .     A
C196   C579    1.516   .     S
C197   C199    1.438   .     S
C197   O255    1.291   .     A
C197   O253    1.279   .     A
C198   O254    1.278   .     A
C198   O256    1.291   .     A
C198   C200    1.438   .     S
C199   C328    1.363   1_455 S
C199   C342    1.522   1_455 S
C200   C263    1.363   .     S
C200   C280    1.521   .     S
C201   H225    1.083   .     S
C201   C203    1.390   .     A
C201   C212    1.404   .     A
C202   C213    1.404   .     A
C202   H236    1.083   .     S
C202   C205    1.390   .     A
C203   H240    1.083   .     S
C203   C206    1.402   .     A
C204   C207    1.460   .     S
C204   O252    1.292   .     A
C204   O250    1.292   .     A
C205   C207    1.402   .     A
C205   H241    1.083   .     S
C206   C208    1.402   .     A
C207   C209    1.402   .     A
C208   H242    1.083   .     S
C208   C210    1.390   .     A
C209   H243    1.083   .     S
C209   C211    1.390   .     A
C210   H244    1.083   .     S
C210   C212    1.404   .     A
C211   H245    1.083   .     S
C211   C213    1.404   .     A
C213   C20     1.470   1_565 S
C214   H235    1.110   .     S
C214   H234    1.111   .     S
C214   C263    1.522   .     S
C214   H297    1.111   .     S
C215   H246    1.081   .     S
C215   C218    1.406   .     A
C216   H238    1.109   .     S
C216   H239    1.111   .     S
C216   C328    1.521   1_455 S
C216   H365    1.111   1_455 S
C217   C219    1.407   .     A
C217   H226    1.081   .     S
C218   N247    1.364   .     A
C218   H227    1.081   .     S
C219   H228    1.081   .     S
C219   N248    1.363   .     A
C220   C222    1.406   .     A
C220   H229    1.081   .     S
C220   N247    1.364   .     A
C221   H230    1.081   .     S
C221   N248    1.364   .     A
C222   H231    1.081   .     S
Cu223  O252    1.957   .     S
Cu223  N248    2.008   .     S
Cu223  O253    1.976   .     S
Cu223  O249    1.957   .     S
Cu223  O256    1.974   .     S
Cu223  Cu224   2.673   .     S
Cu224  N247    2.008   .     S
Cu224  O250    1.957   .     S
Cu224  O254    1.976   .     S
Cu224  O251    1.957   .     S
Cu224  O255    1.974   .     S
H233   C342    1.111   1_455 S
H237   C280    1.111   .     S
C257   C270    1.460   .     S
C257   O313    1.292   .     A
C257   O315    1.292   .     A
C258   C260    1.411   .     A
C258   C285    1.406   .     A
C258   H296    1.081   .     S
C259   C286    1.411   .     A
C259   C279    1.411   .     A
C259   C644    1.516   1_554 S
C260   C281    1.411   .     A
C260   C643    1.516   .     S
C261   C263    1.438   .     S
C261   O319    1.291   .     A
C261   O317    1.279   .     A
C262   O318    1.278   .     A
C262   O320    1.291   .     A
C262   C264    1.438   .     S
C264   C327    1.363   .     S
C264   C344    1.521   .     S
C265   H289    1.083   .     S
C265   C267    1.390   .     A
C265   C276    1.404   .     A
C266   C277    1.404   .     A
C266   H300    1.083   .     S
C266   C269    1.390   .     A
C267   H304    1.083   .     S
C267   C270    1.402   .     A
C268   C271    1.460   .     S
C268   O316    1.292   .     A
C268   O314    1.292   .     A
C269   C271    1.402   .     A
C269   H305    1.083   .     S
C270   C272    1.402   .     A
C271   C273    1.402   .     A
C272   H306    1.083   .     S
C272   C274    1.390   .     A
C273   H307    1.083   .     S
C273   C275    1.390   .     A
C274   H308    1.083   .     S
C274   C276    1.404   .     A
C275   H309    1.083   .     S
C275   C277    1.404   .     A
C277   C84     1.470   1_565 S
C278   H299    1.110   .     S
C278   H298    1.111   .     S
C278   C327    1.522   .     S
C278   H361    1.111   .     S
C279   H310    1.081   .     S
C279   C282    1.406   .     A
C280   H302    1.109   .     S
C280   H303    1.111   .     S
C281   C283    1.407   .     A
C281   H290    1.081   .     S
C282   N311    1.364   .     A
C282   H291    1.081   .     S
C283   H292    1.081   .     S
C283   N312    1.363   .     A
C284   C286    1.406   .     A
C284   H293    1.081   .     S
C284   N311    1.364   .     A
C285   H294    1.081   .     S
C285   N312    1.364   .     A
C286   H295    1.081   .     S
Cu287  O316    1.957   .     S
Cu287  N312    2.008   .     S
Cu287  O317    1.976   .     S
Cu287  O313    1.957   .     S
Cu287  O320    1.974   .     S
Cu287  Cu288   2.673   .     S
Cu288  N311    2.008   .     S
Cu288  O314    1.957   .     S
Cu288  O318    1.976   .     S
Cu288  O315    1.957   .     S
Cu288  O319    1.974   .     S
H301   C344    1.111   .     S
C321   C334    1.460   .     S
C321   O377    1.292   .     A
C321   O379    1.292   .     A
C322   C324    1.411   .     A
C322   C349    1.406   .     A
C322   H360    1.081   .     S
C323   C350    1.411   .     A
C323   C343    1.411   .     A
C323   C708    1.516   1_554 S
C324   C345    1.411   .     A
C324   C707    1.516   .     S
C325   C327    1.438   .     S
C325   O383    1.291   .     A
C325   O381    1.279   .     A
C326   O382    1.278   .     A
C326   O384    1.291   .     A
C326   C328    1.438   .     S
C328   C199    1.363   1_655 S
C328   C216    1.521   1_655 S
C329   H353    1.083   .     S
C329   C331    1.390   .     A
C329   C340    1.404   .     A
C330   C341    1.404   .     A
C330   H364    1.083   .     S
C330   C333    1.390   .     A
C331   H368    1.083   .     S
C331   C334    1.402   .     A
C332   C335    1.460   .     S
C332   O380    1.292   .     A
C332   O378    1.292   .     A
C333   C335    1.402   .     A
C333   H369    1.083   .     S
C334   C336    1.402   .     A
C335   C337    1.402   .     A
C336   H370    1.083   .     S
C336   C338    1.390   .     A
C337   H371    1.083   .     S
C337   C339    1.390   .     A
C338   H372    1.083   .     S
C338   C340    1.404   .     A
C339   H373    1.083   .     S
C339   C341    1.404   .     A
C341   C148    1.470   1_565 S
C342   H363    1.110   .     S
C342   H362    1.111   .     S
C342   C199    1.522   1_655 S
C342   H233    1.111   1_655 S
C343   H374    1.081   .     S
C343   C346    1.406   .     A
C344   H366    1.109   .     S
C344   H367    1.111   .     S
C345   C347    1.407   .     A
C345   H354    1.081   .     S
C346   N375    1.364   .     A
C346   H355    1.081   .     S
C347   H356    1.081   .     S
C347   N376    1.363   .     A
C348   C350    1.406   .     A
C348   H357    1.081   .     S
C348   N375    1.364   .     A
C349   H358    1.081   .     S
C349   N376    1.364   .     A
C350   H359    1.081   .     S
Cu351  O380    1.957   .     S
Cu351  N376    2.008   .     S
Cu351  O381    1.976   .     S
Cu351  O377    1.957   .     S
Cu351  O384    1.974   .     S
Cu351  Cu352   2.673   .     S
Cu352  N375    2.008   .     S
Cu352  O378    1.957   .     S
Cu352  O382    1.976   .     S
Cu352  O379    1.957   .     S
Cu352  O383    1.974   .     S
H365   C216    1.111   1_655 S
C385   C398    1.460   .     S
C385   O441    1.292   .     A
C385   O443    1.292   .     A
C386   C388    1.411   .     A
C386   C413    1.406   .     A
C386   H424    1.081   .     S
C387   C414    1.411   .     A
C387   C407    1.411   .     A
C388   C409    1.411   .     A
C388   C3      1.516   1_556 S
C389   C391    1.438   .     S
C389   O447    1.291   .     A
C389   O445    1.279   .     A
C390   O446    1.278   .     A
C390   O448    1.291   .     A
C390   C392    1.438   .     S
C391   C520    1.363   1_455 S
C391   C534    1.522   1_455 S
C392   C455    1.363   .     S
C392   C472    1.521   .     S
C393   H417    1.083   .     S
C393   C395    1.390   .     A
C393   C404    1.404   .     A
C394   C405    1.404   .     A
C394   H428    1.083   .     S
C394   C397    1.390   .     A
C395   H432    1.083   .     S
C395   C398    1.402   .     A
C396   C399    1.460   .     S
C396   O444    1.292   .     A
C396   O442    1.292   .     A
C397   C399    1.402   .     A
C397   H433    1.083   .     S
C398   C400    1.402   .     A
C399   C401    1.402   .     A
C400   H434    1.083   .     S
C400   C402    1.390   .     A
C401   H435    1.083   .     S
C401   C403    1.390   .     A
C402   H436    1.083   .     S
C402   C404    1.404   .     A
C403   H437    1.083   .     S
C403   C405    1.404   .     A
C404   C597    1.470   1_545 S
C405   C596    1.470   .     S
C406   H427    1.110   .     S
C406   H426    1.111   .     S
C406   C455    1.522   .     S
C406   H489    1.111   .     S
C407   H438    1.081   .     S
C407   C410    1.406   .     A
C408   H430    1.109   .     S
C408   H431    1.111   .     S
C408   C520    1.521   1_455 S
C408   H557    1.111   1_455 S
C409   C411    1.407   .     A
C409   H418    1.081   .     S
C410   N439    1.364   .     A
C410   H419    1.081   .     S
C411   H420    1.081   .     S
C411   N440    1.363   .     A
C412   C414    1.406   .     A
C412   H421    1.081   .     S
C412   N439    1.364   .     A
C413   H422    1.081   .     S
C413   N440    1.364   .     A
C414   H423    1.081   .     S
Cu415  O444    1.957   .     S
Cu415  N440    2.008   .     S
Cu415  O445    1.976   .     S
Cu415  O441    1.957   .     S
Cu415  O448    1.974   .     S
Cu415  Cu416   2.673   .     S
Cu416  N439    2.008   .     S
Cu416  O442    1.957   .     S
Cu416  O446    1.976   .     S
Cu416  O443    1.957   .     S
Cu416  O447    1.974   .     S
H425   C534    1.111   1_455 S
H429   C472    1.111   .     S
C449   C462    1.460   .     S
C449   O505    1.292   .     A
C449   O507    1.292   .     A
C450   C452    1.411   .     A
C450   C477    1.406   .     A
C450   H488    1.081   .     S
C451   C478    1.411   .     A
C451   C471    1.411   .     A
C452   C473    1.411   .     A
C452   C67     1.516   1_556 S
C453   C455    1.438   .     S
C453   O511    1.291   .     A
C453   O509    1.279   .     A
C454   O510    1.278   .     A
C454   O512    1.291   .     A
C454   C456    1.438   .     S
C456   C519    1.363   .     S
C456   C536    1.521   .     S
C457   H481    1.083   .     S
C457   C459    1.390   .     A
C457   C468    1.404   .     A
C458   C469    1.404   .     A
C458   H492    1.083   .     S
C458   C461    1.390   .     A
C459   H496    1.083   .     S
C459   C462    1.402   .     A
C460   C463    1.460   .     S
C460   O508    1.292   .     A
C460   O506    1.292   .     A
C461   C463    1.402   .     A
C461   H497    1.083   .     S
C462   C464    1.402   .     A
C463   C465    1.402   .     A
C464   H498    1.083   .     S
C464   C466    1.390   .     A
C465   H499    1.083   .     S
C465   C467    1.390   .     A
C466   H500    1.083   .     S
C466   C468    1.404   .     A
C467   H501    1.083   .     S
C467   C469    1.404   .     A
C468   C661    1.470   1_545 S
C469   C660    1.470   .     S
C470   H491    1.110   .     S
C470   H490    1.111   .     S
C470   C519    1.522   .     S
C470   H553    1.111   .     S
C471   H502    1.081   .     S
C471   C474    1.406   .     A
C472   H494    1.109   .     S
C472   H495    1.111   .     S
C473   C475    1.407   .     A
C473   H482    1.081   .     S
C474   N503    1.364   .     A
C474   H483    1.081   .     S
C475   H484    1.081   .     S
C475   N504    1.363   .     A
C476   C478    1.406   .     A
C476   H485    1.081   .     S
C476   N503    1.364   .     A
C477   H486    1.081   .     S
C477   N504    1.364   .     A
C478   H487    1.081   .     S
Cu479  O508    1.957   .     S
Cu479  N504    2.008   .     S
Cu479  O509    1.976   .     S
Cu479  O505    1.957   .     S
Cu479  O512    1.974   .     S
Cu479  Cu480   2.673   .     S
Cu480  N503    2.008   .     S
Cu480  O506    1.957   .     S
Cu480  O510    1.976   .     S
Cu480  O507    1.957   .     S
Cu480  O511    1.974   .     S
H493   C536    1.111   .     S
C513   C526    1.460   .     S
C513   O569    1.292   .     A
C513   O571    1.292   .     A
C514   C516    1.411   .     A
C514   C541    1.406   .     A
C514   H552    1.081   .     S
C515   C542    1.411   .     A
C515   C535    1.411   .     A
C516   C537    1.411   .     A
C516   C131    1.516   1_556 S
C517   C519    1.438   .     S
C517   O575    1.291   .     A
C517   O573    1.279   .     A
C518   O574    1.278   .     A
C518   O576    1.291   .     A
C518   C520    1.438   .     S
C520   C391    1.363   1_655 S
C520   C408    1.521   1_655 S
C521   H545    1.083   .     S
C521   C523    1.390   .     A
C521   C532    1.404   .     A
C522   C533    1.404   .     A
C522   H556    1.083   .     S
C522   C525    1.390   .     A
C523   H560    1.083   .     S
C523   C526    1.402   .     A
C524   C527    1.460   .     S
C524   O572    1.292   .     A
C524   O570    1.292   .     A
C525   C527    1.402   .     A
C525   H561    1.083   .     S
C526   C528    1.402   .     A
C527   C529    1.402   .     A
C528   H562    1.083   .     S
C528   C530    1.390   .     A
C529   H563    1.083   .     S
C529   C531    1.390   .     A
C530   H564    1.083   .     S
C530   C532    1.404   .     A
C531   H565    1.083   .     S
C531   C533    1.404   .     A
C532   C725    1.470   1_545 S
C533   C724    1.470   .     S
C534   H555    1.110   .     S
C534   H554    1.111   .     S
C534   C391    1.522   1_655 S
C534   H425    1.111   1_655 S
C535   H566    1.081   .     S
C535   C538    1.406   .     A
C536   H558    1.109   .     S
C536   H559    1.111   .     S
C537   C539    1.407   .     A
C537   H546    1.081   .     S
C538   N567    1.364   .     A
C538   H547    1.081   .     S
C539   H548    1.081   .     S
C539   N568    1.363   .     A
C540   C542    1.406   .     A
C540   H549    1.081   .     S
C540   N567    1.364   .     A
C541   H550    1.081   .     S
C541   N568    1.364   .     A
C542   H551    1.081   .     S
Cu543  O572    1.957   .     S
Cu543  N568    2.008   .     S
Cu543  O573    1.976   .     S
Cu543  O569    1.957   .     S
Cu543  O576    1.974   .     S
Cu543  Cu544   2.673   .     S
Cu544  N567    2.008   .     S
Cu544  O570    1.957   .     S
Cu544  O574    1.976   .     S
Cu544  O571    1.957   .     S
Cu544  O575    1.974   .     S
H557   C408    1.111   1_655 S
C577   C590    1.460   .     S
C577   O633    1.292   .     A
C577   O635    1.292   .     A
C578   C580    1.411   .     A
C578   C605    1.406   .     A
C578   H616    1.081   .     S
C579   C606    1.411   .     A
C579   C599    1.411   .     A
C580   C601    1.411   .     A
C580   C195    1.516   1_556 S
C581   C583    1.438   .     S
C581   O639    1.291   .     A
C581   O637    1.279   .     A
C582   O638    1.278   .     A
C582   O640    1.291   .     A
C582   C584    1.438   .     S
C583   C712    1.363   1_455 S
C583   C726    1.522   1_455 S
C584   C647    1.363   .     S
C584   C664    1.521   .     S
C585   H609    1.083   .     S
C585   C587    1.390   .     A
C585   C596    1.404   .     A
C586   C597    1.404   .     A
C586   H620    1.083   .     S
C586   C589    1.390   .     A
C587   H624    1.083   .     S
C587   C590    1.402   .     A
C588   C591    1.460   .     S
C588   O636    1.292   .     A
C588   O634    1.292   .     A
C589   C591    1.402   .     A
C589   H625    1.083   .     S
C590   C592    1.402   .     A
C591   C593    1.402   .     A
C592   H626    1.083   .     S
C592   C594    1.390   .     A
C593   H627    1.083   .     S
C593   C595    1.390   .     A
C594   H628    1.083   .     S
C594   C596    1.404   .     A
C595   H629    1.083   .     S
C595   C597    1.404   .     A
C597   C404    1.470   1_565 S
C598   H619    1.110   .     S
C598   H618    1.111   .     S
C598   C647    1.522   .     S
C598   H681    1.111   .     S
C599   H630    1.081   .     S
C599   C602    1.406   .     A
C600   H622    1.109   .     S
C600   H623    1.111   .     S
C600   C712    1.521   1_455 S
C600   H749    1.111   1_455 S
C601   C603    1.407   .     A
C601   H610    1.081   .     S
C602   N631    1.364   .     A
C602   H611    1.081   .     S
C603   H612    1.081   .     S
C603   N632    1.363   .     A
C604   C606    1.406   .     A
C604   H613    1.081   .     S
C604   N631    1.364   .     A
C605   H614    1.081   .     S
C605   N632    1.364   .     A
C606   H615    1.081   .     S
Cu607  O636    1.957   .     S
Cu607  N632    2.008   .     S
Cu607  O637    1.976   .     S
Cu607  O633    1.957   .     S
Cu607  O640    1.974   .     S
Cu607  Cu608   2.673   .     S
Cu608  N631    2.008   .     S
Cu608  O634    1.957   .     S
Cu608  O638    1.976   .     S
Cu608  O635    1.957   .     S
Cu608  O639    1.974   .     S
H617   C726    1.111   1_455 S
H621   C664    1.111   .     S
C641   C654    1.460   .     S
C641   O697    1.292   .     A
C641   O699    1.292   .     A
C642   C644    1.411   .     A
C642   C669    1.406   .     A
C642   H680    1.081   .     S
C643   C670    1.411   .     A
C643   C663    1.411   .     A
C644   C665    1.411   .     A
C644   C259    1.516   1_556 S
C645   C647    1.438   .     S
C645   O703    1.291   .     A
C645   O701    1.279   .     A
C646   O702    1.278   .     A
C646   O704    1.291   .     A
C646   C648    1.438   .     S
C648   C711    1.363   .     S
C648   C728    1.521   .     S
C649   H673    1.083   .     S
C649   C651    1.390   .     A
C649   C660    1.404   .     A
C650   C661    1.404   .     A
C650   H684    1.083   .     S
C650   C653    1.390   .     A
C651   H688    1.083   .     S
C651   C654    1.402   .     A
C652   C655    1.460   .     S
C652   O700    1.292   .     A
C652   O698    1.292   .     A
C653   C655    1.402   .     A
C653   H689    1.083   .     S
C654   C656    1.402   .     A
C655   C657    1.402   .     A
C656   H690    1.083   .     S
C656   C658    1.390   .     A
C657   H691    1.083   .     S
C657   C659    1.390   .     A
C658   H692    1.083   .     S
C658   C660    1.404   .     A
C659   H693    1.083   .     S
C659   C661    1.404   .     A
C661   C468    1.470   1_565 S
C662   H683    1.110   .     S
C662   H682    1.111   .     S
C662   C711    1.522   .     S
C662   H745    1.111   .     S
C663   H694    1.081   .     S
C663   C666    1.406   .     A
C664   H686    1.109   .     S
C664   H687    1.111   .     S
C665   C667    1.407   .     A
C665   H674    1.081   .     S
C666   N695    1.364   .     A
C666   H675    1.081   .     S
C667   H676    1.081   .     S
C667   N696    1.363   .     A
C668   C670    1.406   .     A
C668   H677    1.081   .     S
C668   N695    1.364   .     A
C669   H678    1.081   .     S
C669   N696    1.364   .     A
C670   H679    1.081   .     S
Cu671  O700    1.957   .     S
Cu671  N696    2.008   .     S
Cu671  O701    1.976   .     S
Cu671  O697    1.957   .     S
Cu671  O704    1.974   .     S
Cu671  Cu672   2.673   .     S
Cu672  N695    2.008   .     S
Cu672  O698    1.957   .     S
Cu672  O702    1.976   .     S
Cu672  O699    1.957   .     S
Cu672  O703    1.974   .     S
H685   C728    1.111   .     S
C705   C718    1.460   .     S
C705   O761    1.292   .     A
C705   O763    1.292   .     A
C706   C708    1.411   .     A
C706   C733    1.406   .     A
C706   H744    1.081   .     S
C707   C734    1.411   .     A
C707   C727    1.411   .     A
C708   C729    1.411   .     A
C708   C323    1.516   1_556 S
C709   C711    1.438   .     S
C709   O767    1.291   .     A
C709   O765    1.279   .     A
C710   O766    1.278   .     A
C710   O768    1.291   .     A
C710   C712    1.438   .     S
C712   C583    1.363   1_655 S
C712   C600    1.521   1_655 S
C713   H737    1.083   .     S
C713   C715    1.390   .     A
C713   C724    1.404   .     A
C714   C725    1.404   .     A
C714   H748    1.083   .     S
C714   C717    1.390   .     A
C715   H752    1.083   .     S
C715   C718    1.402   .     A
C716   C719    1.460   .     S
C716   O764    1.292   .     A
C716   O762    1.292   .     A
C717   C719    1.402   .     A
C717   H753    1.083   .     S
C718   C720    1.402   .     A
C719   C721    1.402   .     A
C720   H754    1.083   .     S
C720   C722    1.390   .     A
C721   H755    1.083   .     S
C721   C723    1.390   .     A
C722   H756    1.083   .     S
C722   C724    1.404   .     A
C723   H757    1.083   .     S
C723   C725    1.404   .     A
C725   C532    1.470   1_565 S
C726   H747    1.110   .     S
C726   H746    1.111   .     S
C726   C583    1.522   1_655 S
C726   H617    1.111   1_655 S
C727   H758    1.081   .     S
C727   C730    1.406   .     A
C728   H750    1.109   .     S
C728   H751    1.111   .     S
C729   C731    1.407   .     A
C729   H738    1.081   .     S
C730   N759    1.364   .     A
C730   H739    1.081   .     S
C731   H740    1.081   .     S
C731   N760    1.363   .     A
C732   C734    1.406   .     A
C732   H741    1.081   .     S
C732   N759    1.364   .     A
C733   H742    1.081   .     S
C733   N760    1.364   .     A
C734   H743    1.081   .     S
Cu735  O764    1.957   .     S
Cu735  N760    2.008   .     S
Cu735  O765    1.976   .     S
Cu735  O761    1.957   .     S
Cu735  O768    1.974   .     S
Cu735  Cu736   2.673   .     S
Cu736  N759    2.008   .     S
Cu736  O762    1.957   .     S
Cu736  O766    1.976   .     S
Cu736  O763    1.957   .     S
Cu736  O767    1.974   .     S
H749   C600    1.111   1_655 S
