data_str_m3_o10_o17_pcu_sym.108
_audit_creation_date              2020-01-03
_audit_creation_method            'Materials Studio'
_symmetry_space_group_name_H-M    'P1'
_symmetry_Int_Tables_number       1
_symmetry_cell_setting            triclinic
loop_
_symmetry_equiv_pos_as_xyz
  x,y,z
_cell_length_a                    23.3178
_cell_length_b                    25.6545
_cell_length_c                    29.7478
_cell_angle_alpha                 91.1109
_cell_angle_beta                  85.9379
_cell_angle_gamma                 93.5781
loop_
_atom_site_label
_atom_site_type_symbol
_atom_site_fract_x
_atom_site_fract_y
_atom_site_fract_z
_atom_site_U_iso_or_equiv
_atom_site_adp_type
_atom_site_occupancy
C1     C     0.18190   0.26489   0.24884   0.00000  Uiso   1.00
C2     C     0.20072   0.20524   0.40542   0.00000  Uiso   1.00
C3     C     0.16449   0.16753   0.11606   0.00000  Uiso   1.00
C4     C     0.16885   0.16581   0.38394   0.00000  Uiso   1.00
C5     C     0.19681   0.20670   0.09241   0.00000  Uiso   1.00
C6     C     0.13652   0.12663   0.40759   0.00000  Uiso   1.00
C7     C     0.19725   0.20709   0.04592   0.00000  Uiso   1.00
C8     C     0.13608   0.12625   0.45408   0.00000  Uiso   1.00
C9     C     0.16598   0.16682   0.02342   0.00000  Uiso   1.00
C10    C     0.16735   0.16652   0.47658   0.00000  Uiso   1.00
C11    C     0.13374   0.12669   0.04784   0.00000  Uiso   1.00
C12    C     0.15143   0.06844   0.25117   0.00000  Uiso   1.00
C13    C     0.19960   0.20664   0.45216   0.00000  Uiso   1.00
C14    C     0.22868   0.24687   0.02180   0.00000  Uiso   1.00
C15    C     0.10465   0.08647   0.47820   0.00000  Uiso   1.00
C16    C     0.23055   0.33248   0.45429   0.00000  Uiso   1.00
C17    C     0.10285   0.00087   0.04575   0.00000  Uiso   1.00
C18    C     0.22908   0.24761   0.47489   0.00000  Uiso   1.00
C19    C     0.10426   0.08572   0.02511   0.00000  Uiso   1.00
C20    C     0.18995   0.31938   0.24816   0.00000  Uiso   1.00
C21    C     0.14339   0.01395   0.25184   0.00000  Uiso   1.00
C22    C     0.16741   0.16656   0.33640   0.00000  Uiso   1.00
C23    C     0.16592   0.16677   0.16360   0.00000  Uiso   1.00
C24    C     0.13261   0.12809   0.09458   0.00000  Uiso   1.00
H25    H     0.10853   0.09800   0.11444   0.00000  Uiso   1.00
H26    H     0.32877   0.20583   0.28402   0.00000  Uiso   1.00
H27    H     0.22732   0.01489   0.48943   0.00000  Uiso   1.00
H28    H     0.18687   0.32579   0.44153   0.00000  Uiso   1.00
H29    H     0.25445   0.02938   0.43294   0.00000  Uiso   1.00
H30    H     0.14647   0.00760   0.05859   0.00000  Uiso   1.00
H31    H     0.07892   0.30394   0.06704   0.00000  Uiso   1.00
H32    H     0.10621   0.31849   0.01061   0.00000  Uiso   1.00
H33    H     0.22481   0.23533   0.38556   0.00000  Uiso   1.00
H34    H     0.22112   0.23689   0.11037   0.00000  Uiso   1.00
H35    H     0.11220   0.09645   0.38963   0.00000  Uiso   1.00
H36    H     0.25288   0.27747   0.03928   0.00000  Uiso   1.00
H37    H     0.08045   0.05587   0.46072   0.00000  Uiso   1.00
H38    H     0.23394   0.00302   0.24463   0.00000  Uiso   1.00
H39    H     0.09939   0.33031   0.25537   0.00000  Uiso   1.00
H40    H     0.00456   0.12750   0.21598   0.00000  Uiso   1.00
N41    N     0.31678   0.15265   0.23783   0.00000  Uiso   1.00
N42    N     0.01656   0.18068   0.26217   0.00000  Uiso   1.00
O43    O     0.12975   0.24619   0.25299   0.00000  Uiso   1.00
O44    O     0.07229   0.04672   0.04886   0.00000  Uiso   1.00
O45    O     0.20358   0.08714   0.24702   0.00000  Uiso   1.00
O46    O     0.22613   0.23721   0.24519   0.00000  Uiso   1.00
O47    O     0.10720   0.09613   0.25482   0.00000  Uiso   1.00
O48    O     0.11847   0.17117   0.31998   0.00000  Uiso   1.00
O49    O     0.21486   0.16216   0.18003   0.00000  Uiso   1.00
O50    O     0.21485   0.16219   0.31218   0.00000  Uiso   1.00
O51    O     0.11848   0.17115   0.18783   0.00000  Uiso   1.00
O52    O     0.26106   0.28660   0.45113   0.00000  Uiso   1.00
Zn53   Zn    0.10231   0.17266   0.25521   0.00000  Uiso   1.00
Zn54   Zn    0.23102   0.16067   0.24479   0.00000  Uiso   1.00
C55    C     0.51523   0.26489   0.24884   0.00000  Uiso   1.00
C56    C     0.53406   0.20524   0.40542   0.00000  Uiso   1.00
C57    C     0.49782   0.16753   0.11606   0.00000  Uiso   1.00
C58    C     0.50218   0.16581   0.38394   0.00000  Uiso   1.00
C59    C     0.53014   0.20670   0.09241   0.00000  Uiso   1.00
C60    C     0.46985   0.12663   0.40759   0.00000  Uiso   1.00
C61    C     0.53058   0.20709   0.04592   0.00000  Uiso   1.00
C62    C     0.46941   0.12625   0.45408   0.00000  Uiso   1.00
C63    C     0.49932   0.16682   0.02342   0.00000  Uiso   1.00
C64    C     0.50068   0.16652   0.47658   0.00000  Uiso   1.00
C65    C     0.46707   0.12669   0.04784   0.00000  Uiso   1.00
C66    C     0.48477   0.06844   0.25117   0.00000  Uiso   1.00
C67    C     0.53293   0.20664   0.45216   0.00000  Uiso   1.00
C68    C     0.56201   0.24687   0.02180   0.00000  Uiso   1.00
C69    C     0.43798   0.08647   0.47820   0.00000  Uiso   1.00
C70    C     0.56388   0.33248   0.45429   0.00000  Uiso   1.00
C71    C     0.43618   0.00087   0.04575   0.00000  Uiso   1.00
C72    C     0.56241   0.24761   0.47489   0.00000  Uiso   1.00
C73    C     0.43759   0.08572   0.02511   0.00000  Uiso   1.00
C74    C     0.52328   0.31938   0.24816   0.00000  Uiso   1.00
C75    C     0.47672   0.01395   0.25184   0.00000  Uiso   1.00
C76    C     0.50074   0.16656   0.33640   0.00000  Uiso   1.00
C77    C     0.49926   0.16677   0.16360   0.00000  Uiso   1.00
C78    C     0.46595   0.12809   0.09458   0.00000  Uiso   1.00
H79    H     0.44186   0.09800   0.11444   0.00000  Uiso   1.00
H80    H     0.66211   0.20583   0.28402   0.00000  Uiso   1.00
H81    H     0.56065   0.01489   0.48943   0.00000  Uiso   1.00
H82    H     0.52020   0.32579   0.44153   0.00000  Uiso   1.00
H83    H     0.58779   0.02938   0.43294   0.00000  Uiso   1.00
H84    H     0.47981   0.00760   0.05859   0.00000  Uiso   1.00
H85    H     0.41225   0.30394   0.06704   0.00000  Uiso   1.00
H86    H     0.43954   0.31849   0.01061   0.00000  Uiso   1.00
H87    H     0.55814   0.23533   0.38556   0.00000  Uiso   1.00
H88    H     0.55446   0.23689   0.11037   0.00000  Uiso   1.00
H89    H     0.44553   0.09645   0.38963   0.00000  Uiso   1.00
H90    H     0.58621   0.27747   0.03928   0.00000  Uiso   1.00
H91    H     0.41379   0.05587   0.46072   0.00000  Uiso   1.00
H92    H     0.56727   0.00302   0.24463   0.00000  Uiso   1.00
H93    H     0.43273   0.33031   0.25537   0.00000  Uiso   1.00
H94    H     0.33789   0.12750   0.21598   0.00000  Uiso   1.00
N95    N     0.65011   0.15265   0.23783   0.00000  Uiso   1.00
N96    N     0.34989   0.18068   0.26217   0.00000  Uiso   1.00
O97    O     0.46308   0.24619   0.25299   0.00000  Uiso   1.00
O98    O     0.40563   0.04672   0.04886   0.00000  Uiso   1.00
O99    O     0.53692   0.08714   0.24702   0.00000  Uiso   1.00
O100   O     0.55946   0.23721   0.24519   0.00000  Uiso   1.00
O101   O     0.44054   0.09613   0.25482   0.00000  Uiso   1.00
O102   O     0.45181   0.17117   0.31998   0.00000  Uiso   1.00
O103   O     0.54819   0.16216   0.18003   0.00000  Uiso   1.00
O104   O     0.54819   0.16219   0.31218   0.00000  Uiso   1.00
O105   O     0.45181   0.17115   0.18783   0.00000  Uiso   1.00
O106   O     0.59439   0.28660   0.45113   0.00000  Uiso   1.00
Zn107  Zn    0.43565   0.17266   0.25521   0.00000  Uiso   1.00
Zn108  Zn    0.56435   0.16067   0.24479   0.00000  Uiso   1.00
C109   C     0.84857   0.26489   0.24884   0.00000  Uiso   1.00
C110   C     0.86739   0.20524   0.40542   0.00000  Uiso   1.00
C111   C     0.83115   0.16753   0.11606   0.00000  Uiso   1.00
C112   C     0.83551   0.16581   0.38394   0.00000  Uiso   1.00
C113   C     0.86348   0.20670   0.09241   0.00000  Uiso   1.00
C114   C     0.80318   0.12663   0.40759   0.00000  Uiso   1.00
C115   C     0.86392   0.20709   0.04592   0.00000  Uiso   1.00
C116   C     0.80275   0.12625   0.45408   0.00000  Uiso   1.00
C117   C     0.83265   0.16682   0.02342   0.00000  Uiso   1.00
C118   C     0.83402   0.16652   0.47658   0.00000  Uiso   1.00
C119   C     0.80040   0.12669   0.04784   0.00000  Uiso   1.00
C120   C     0.81810   0.06844   0.25117   0.00000  Uiso   1.00
C121   C     0.86627   0.20664   0.45216   0.00000  Uiso   1.00
C122   C     0.89535   0.24687   0.02180   0.00000  Uiso   1.00
C123   C     0.77132   0.08647   0.47820   0.00000  Uiso   1.00
C124   C     0.89722   0.33248   0.45429   0.00000  Uiso   1.00
C125   C     0.76952   0.00087   0.04575   0.00000  Uiso   1.00
C126   C     0.89575   0.24761   0.47489   0.00000  Uiso   1.00
C127   C     0.77093   0.08572   0.02511   0.00000  Uiso   1.00
C128   C     0.85661   0.31938   0.24816   0.00000  Uiso   1.00
C129   C     0.81005   0.01395   0.25184   0.00000  Uiso   1.00
C130   C     0.83408   0.16656   0.33640   0.00000  Uiso   1.00
C131   C     0.83259   0.16677   0.16360   0.00000  Uiso   1.00
C132   C     0.79928   0.12809   0.09458   0.00000  Uiso   1.00
H133   H     0.77520   0.09800   0.11444   0.00000  Uiso   1.00
H134   H     0.99544   0.20583   0.28402   0.00000  Uiso   1.00
H135   H     0.89398   0.01489   0.48943   0.00000  Uiso   1.00
H136   H     0.85354   0.32579   0.44153   0.00000  Uiso   1.00
H137   H     0.92112   0.02938   0.43294   0.00000  Uiso   1.00
H138   H     0.81314   0.00760   0.05859   0.00000  Uiso   1.00
H139   H     0.74559   0.30394   0.06704   0.00000  Uiso   1.00
H140   H     0.77288   0.31849   0.01061   0.00000  Uiso   1.00
H141   H     0.89148   0.23533   0.38556   0.00000  Uiso   1.00
H142   H     0.88779   0.23689   0.11037   0.00000  Uiso   1.00
H143   H     0.77887   0.09645   0.38963   0.00000  Uiso   1.00
H144   H     0.91954   0.27747   0.03928   0.00000  Uiso   1.00
H145   H     0.74712   0.05587   0.46072   0.00000  Uiso   1.00
H146   H     0.90061   0.00302   0.24463   0.00000  Uiso   1.00
H147   H     0.76606   0.33031   0.25537   0.00000  Uiso   1.00
H148   H     0.67123   0.12750   0.21598   0.00000  Uiso   1.00
N149   N     0.98344   0.15265   0.23783   0.00000  Uiso   1.00
N150   N     0.68322   0.18068   0.26217   0.00000  Uiso   1.00
O151   O     0.79642   0.24619   0.25299   0.00000  Uiso   1.00
O152   O     0.73896   0.04672   0.04886   0.00000  Uiso   1.00
O153   O     0.87025   0.08714   0.24702   0.00000  Uiso   1.00
O154   O     0.89280   0.23721   0.24519   0.00000  Uiso   1.00
O155   O     0.77387   0.09613   0.25482   0.00000  Uiso   1.00
O156   O     0.78514   0.17117   0.31998   0.00000  Uiso   1.00
O157   O     0.88153   0.16216   0.18003   0.00000  Uiso   1.00
O158   O     0.88152   0.16219   0.31218   0.00000  Uiso   1.00
O159   O     0.78515   0.17115   0.18783   0.00000  Uiso   1.00
O160   O     0.92772   0.28660   0.45113   0.00000  Uiso   1.00
Zn161  Zn    0.76898   0.17266   0.25521   0.00000  Uiso   1.00
Zn162  Zn    0.89769   0.16067   0.24479   0.00000  Uiso   1.00
C163   C     0.18190   0.59822   0.24884   0.00000  Uiso   1.00
C164   C     0.20072   0.53858   0.40542   0.00000  Uiso   1.00
C165   C     0.16449   0.50086   0.11606   0.00000  Uiso   1.00
C166   C     0.16885   0.49914   0.38394   0.00000  Uiso   1.00
C167   C     0.19681   0.54004   0.09241   0.00000  Uiso   1.00
C168   C     0.13652   0.45997   0.40759   0.00000  Uiso   1.00
C169   C     0.19725   0.54042   0.04592   0.00000  Uiso   1.00
C170   C     0.13608   0.45958   0.45408   0.00000  Uiso   1.00
C171   C     0.16598   0.50015   0.02342   0.00000  Uiso   1.00
C172   C     0.16735   0.49985   0.47658   0.00000  Uiso   1.00
C173   C     0.13374   0.46002   0.04784   0.00000  Uiso   1.00
C174   C     0.15143   0.40178   0.25117   0.00000  Uiso   1.00
C175   C     0.19960   0.53998   0.45216   0.00000  Uiso   1.00
C176   C     0.22868   0.58020   0.02180   0.00000  Uiso   1.00
C177   C     0.10465   0.41980   0.47820   0.00000  Uiso   1.00
C178   C     0.23055   0.66581   0.45429   0.00000  Uiso   1.00
C179   C     0.10285   0.33421   0.04575   0.00000  Uiso   1.00
C180   C     0.22908   0.58094   0.47489   0.00000  Uiso   1.00
C181   C     0.10426   0.41905   0.02511   0.00000  Uiso   1.00
C182   C     0.18995   0.65272   0.24816   0.00000  Uiso   1.00
C183   C     0.14339   0.34728   0.25184   0.00000  Uiso   1.00
C184   C     0.16741   0.49990   0.33640   0.00000  Uiso   1.00
C185   C     0.16592   0.50010   0.16360   0.00000  Uiso   1.00
C186   C     0.13261   0.46142   0.09458   0.00000  Uiso   1.00
H187   H     0.10853   0.43133   0.11444   0.00000  Uiso   1.00
H188   H     0.32877   0.53917   0.28402   0.00000  Uiso   1.00
H189   H     0.22732   0.34822   0.48943   0.00000  Uiso   1.00
H190   H     0.18687   0.65912   0.44153   0.00000  Uiso   1.00
H191   H     0.25445   0.36271   0.43294   0.00000  Uiso   1.00
H192   H     0.14647   0.34093   0.05859   0.00000  Uiso   1.00
H193   H     0.07892   0.63728   0.06704   0.00000  Uiso   1.00
H194   H     0.10621   0.65182   0.01061   0.00000  Uiso   1.00
H195   H     0.22481   0.56866   0.38556   0.00000  Uiso   1.00
H196   H     0.22112   0.57022   0.11037   0.00000  Uiso   1.00
H197   H     0.11220   0.42978   0.38963   0.00000  Uiso   1.00
H198   H     0.25288   0.61080   0.03928   0.00000  Uiso   1.00
H199   H     0.08045   0.38920   0.46072   0.00000  Uiso   1.00
H200   H     0.23394   0.33636   0.24463   0.00000  Uiso   1.00
H201   H     0.09939   0.66364   0.25537   0.00000  Uiso   1.00
H202   H     0.00456   0.46083   0.21598   0.00000  Uiso   1.00
N203   N     0.31678   0.48598   0.23783   0.00000  Uiso   1.00
N204   N     0.01656   0.51402   0.26217   0.00000  Uiso   1.00
O205   O     0.12975   0.57952   0.25299   0.00000  Uiso   1.00
O206   O     0.07229   0.38006   0.04886   0.00000  Uiso   1.00
O207   O     0.20358   0.42048   0.24702   0.00000  Uiso   1.00
O208   O     0.22613   0.57054   0.24519   0.00000  Uiso   1.00
O209   O     0.10720   0.42946   0.25482   0.00000  Uiso   1.00
O210   O     0.11847   0.50450   0.31998   0.00000  Uiso   1.00
O211   O     0.21486   0.49550   0.18003   0.00000  Uiso   1.00
O212   O     0.21485   0.49552   0.31218   0.00000  Uiso   1.00
O213   O     0.11848   0.50448   0.18783   0.00000  Uiso   1.00
O214   O     0.26106   0.61993   0.45113   0.00000  Uiso   1.00
Zn215  Zn    0.10231   0.50600   0.25521   0.00000  Uiso   1.00
Zn216  Zn    0.23102   0.49400   0.24479   0.00000  Uiso   1.00
C217   C     0.51523   0.59822   0.24884   0.00000  Uiso   1.00
C218   C     0.53406   0.53858   0.40542   0.00000  Uiso   1.00
C219   C     0.49782   0.50086   0.11606   0.00000  Uiso   1.00
C220   C     0.50218   0.49914   0.38394   0.00000  Uiso   1.00
C221   C     0.53014   0.54004   0.09241   0.00000  Uiso   1.00
C222   C     0.46985   0.45997   0.40759   0.00000  Uiso   1.00
C223   C     0.53058   0.54042   0.04592   0.00000  Uiso   1.00
C224   C     0.46941   0.45958   0.45408   0.00000  Uiso   1.00
C225   C     0.49932   0.50015   0.02342   0.00000  Uiso   1.00
C226   C     0.50068   0.49985   0.47658   0.00000  Uiso   1.00
C227   C     0.46707   0.46002   0.04784   0.00000  Uiso   1.00
C228   C     0.48477   0.40178   0.25117   0.00000  Uiso   1.00
C229   C     0.53293   0.53998   0.45216   0.00000  Uiso   1.00
C230   C     0.56201   0.58020   0.02180   0.00000  Uiso   1.00
C231   C     0.43798   0.41980   0.47820   0.00000  Uiso   1.00
C232   C     0.56388   0.66581   0.45429   0.00000  Uiso   1.00
C233   C     0.43618   0.33421   0.04575   0.00000  Uiso   1.00
C234   C     0.56241   0.58094   0.47489   0.00000  Uiso   1.00
C235   C     0.43759   0.41905   0.02511   0.00000  Uiso   1.00
C236   C     0.52328   0.65272   0.24816   0.00000  Uiso   1.00
C237   C     0.47672   0.34728   0.25184   0.00000  Uiso   1.00
C238   C     0.50074   0.49990   0.33640   0.00000  Uiso   1.00
C239   C     0.49926   0.50010   0.16360   0.00000  Uiso   1.00
C240   C     0.46595   0.46142   0.09458   0.00000  Uiso   1.00
H241   H     0.44186   0.43133   0.11444   0.00000  Uiso   1.00
H242   H     0.66211   0.53917   0.28402   0.00000  Uiso   1.00
H243   H     0.56065   0.34822   0.48943   0.00000  Uiso   1.00
H244   H     0.52020   0.65912   0.44153   0.00000  Uiso   1.00
H245   H     0.58779   0.36271   0.43294   0.00000  Uiso   1.00
H246   H     0.47981   0.34093   0.05859   0.00000  Uiso   1.00
H247   H     0.41225   0.63728   0.06704   0.00000  Uiso   1.00
H248   H     0.43954   0.65182   0.01061   0.00000  Uiso   1.00
H249   H     0.55814   0.56866   0.38556   0.00000  Uiso   1.00
H250   H     0.55446   0.57022   0.11037   0.00000  Uiso   1.00
H251   H     0.44553   0.42978   0.38963   0.00000  Uiso   1.00
H252   H     0.58621   0.61080   0.03928   0.00000  Uiso   1.00
H253   H     0.41379   0.38920   0.46072   0.00000  Uiso   1.00
H254   H     0.56727   0.33636   0.24463   0.00000  Uiso   1.00
H255   H     0.43273   0.66364   0.25537   0.00000  Uiso   1.00
H256   H     0.33789   0.46083   0.21598   0.00000  Uiso   1.00
N257   N     0.65011   0.48598   0.23783   0.00000  Uiso   1.00
N258   N     0.34989   0.51402   0.26217   0.00000  Uiso   1.00
O259   O     0.46308   0.57952   0.25299   0.00000  Uiso   1.00
O260   O     0.40563   0.38006   0.04886   0.00000  Uiso   1.00
O261   O     0.53692   0.42048   0.24702   0.00000  Uiso   1.00
O262   O     0.55946   0.57054   0.24519   0.00000  Uiso   1.00
O263   O     0.44054   0.42946   0.25482   0.00000  Uiso   1.00
O264   O     0.45181   0.50450   0.31998   0.00000  Uiso   1.00
O265   O     0.54819   0.49550   0.18003   0.00000  Uiso   1.00
O266   O     0.54819   0.49552   0.31218   0.00000  Uiso   1.00
O267   O     0.45181   0.50448   0.18783   0.00000  Uiso   1.00
O268   O     0.59439   0.61993   0.45113   0.00000  Uiso   1.00
Zn269  Zn    0.43565   0.50600   0.25521   0.00000  Uiso   1.00
Zn270  Zn    0.56435   0.49400   0.24479   0.00000  Uiso   1.00
C271   C     0.84857   0.59822   0.24884   0.00000  Uiso   1.00
C272   C     0.86739   0.53858   0.40542   0.00000  Uiso   1.00
C273   C     0.83115   0.50086   0.11606   0.00000  Uiso   1.00
C274   C     0.83551   0.49914   0.38394   0.00000  Uiso   1.00
C275   C     0.86348   0.54004   0.09241   0.00000  Uiso   1.00
C276   C     0.80318   0.45997   0.40759   0.00000  Uiso   1.00
C277   C     0.86392   0.54042   0.04592   0.00000  Uiso   1.00
C278   C     0.80275   0.45958   0.45408   0.00000  Uiso   1.00
C279   C     0.83265   0.50015   0.02342   0.00000  Uiso   1.00
C280   C     0.83402   0.49985   0.47658   0.00000  Uiso   1.00
C281   C     0.80040   0.46002   0.04784   0.00000  Uiso   1.00
C282   C     0.81810   0.40178   0.25117   0.00000  Uiso   1.00
C283   C     0.86627   0.53998   0.45216   0.00000  Uiso   1.00
C284   C     0.89535   0.58020   0.02180   0.00000  Uiso   1.00
C285   C     0.77132   0.41980   0.47820   0.00000  Uiso   1.00
C286   C     0.89722   0.66581   0.45429   0.00000  Uiso   1.00
C287   C     0.76952   0.33421   0.04575   0.00000  Uiso   1.00
C288   C     0.89575   0.58094   0.47489   0.00000  Uiso   1.00
C289   C     0.77093   0.41905   0.02511   0.00000  Uiso   1.00
C290   C     0.85661   0.65272   0.24816   0.00000  Uiso   1.00
C291   C     0.81005   0.34728   0.25184   0.00000  Uiso   1.00
C292   C     0.83408   0.49990   0.33640   0.00000  Uiso   1.00
C293   C     0.83259   0.50010   0.16360   0.00000  Uiso   1.00
C294   C     0.79928   0.46142   0.09458   0.00000  Uiso   1.00
H295   H     0.77520   0.43133   0.11444   0.00000  Uiso   1.00
H296   H     0.99544   0.53917   0.28402   0.00000  Uiso   1.00
H297   H     0.89398   0.34822   0.48943   0.00000  Uiso   1.00
H298   H     0.85354   0.65912   0.44153   0.00000  Uiso   1.00
H299   H     0.92112   0.36271   0.43294   0.00000  Uiso   1.00
H300   H     0.81314   0.34093   0.05859   0.00000  Uiso   1.00
H301   H     0.74559   0.63728   0.06704   0.00000  Uiso   1.00
H302   H     0.77288   0.65182   0.01061   0.00000  Uiso   1.00
H303   H     0.89148   0.56866   0.38556   0.00000  Uiso   1.00
H304   H     0.88779   0.57022   0.11037   0.00000  Uiso   1.00
H305   H     0.77887   0.42978   0.38963   0.00000  Uiso   1.00
H306   H     0.91954   0.61080   0.03928   0.00000  Uiso   1.00
H307   H     0.74712   0.38920   0.46072   0.00000  Uiso   1.00
H308   H     0.90061   0.33636   0.24463   0.00000  Uiso   1.00
H309   H     0.76606   0.66364   0.25537   0.00000  Uiso   1.00
H310   H     0.67123   0.46083   0.21598   0.00000  Uiso   1.00
N311   N     0.98344   0.48598   0.23783   0.00000  Uiso   1.00
N312   N     0.68322   0.51402   0.26217   0.00000  Uiso   1.00
O313   O     0.79642   0.57952   0.25299   0.00000  Uiso   1.00
O314   O     0.73896   0.38006   0.04886   0.00000  Uiso   1.00
O315   O     0.87025   0.42048   0.24702   0.00000  Uiso   1.00
O316   O     0.89280   0.57054   0.24519   0.00000  Uiso   1.00
O317   O     0.77387   0.42946   0.25482   0.00000  Uiso   1.00
O318   O     0.78514   0.50450   0.31998   0.00000  Uiso   1.00
O319   O     0.88153   0.49550   0.18003   0.00000  Uiso   1.00
O320   O     0.88152   0.49552   0.31218   0.00000  Uiso   1.00
O321   O     0.78515   0.50448   0.18783   0.00000  Uiso   1.00
O322   O     0.92772   0.61993   0.45113   0.00000  Uiso   1.00
Zn323  Zn    0.76898   0.50600   0.25521   0.00000  Uiso   1.00
Zn324  Zn    0.89769   0.49400   0.24479   0.00000  Uiso   1.00
C325   C     0.18190   0.93156   0.24884   0.00000  Uiso   1.00
C326   C     0.20072   0.87191   0.40542   0.00000  Uiso   1.00
C327   C     0.16449   0.83419   0.11606   0.00000  Uiso   1.00
C328   C     0.16885   0.83247   0.38394   0.00000  Uiso   1.00
C329   C     0.19681   0.87337   0.09241   0.00000  Uiso   1.00
C330   C     0.13652   0.79330   0.40759   0.00000  Uiso   1.00
C331   C     0.19725   0.87376   0.04592   0.00000  Uiso   1.00
C332   C     0.13608   0.79291   0.45408   0.00000  Uiso   1.00
C333   C     0.16598   0.83349   0.02342   0.00000  Uiso   1.00
C334   C     0.16735   0.83318   0.47658   0.00000  Uiso   1.00
C335   C     0.13374   0.79335   0.04784   0.00000  Uiso   1.00
C336   C     0.15143   0.73511   0.25117   0.00000  Uiso   1.00
C337   C     0.19960   0.87331   0.45216   0.00000  Uiso   1.00
C338   C     0.22868   0.91354   0.02180   0.00000  Uiso   1.00
C339   C     0.10465   0.75313   0.47820   0.00000  Uiso   1.00
C340   C     0.23055   0.99915   0.45429   0.00000  Uiso   1.00
C341   C     0.10285   0.66754   0.04575   0.00000  Uiso   1.00
C342   C     0.22908   0.91428   0.47489   0.00000  Uiso   1.00
C343   C     0.10426   0.75239   0.02511   0.00000  Uiso   1.00
C344   C     0.18995   0.98605   0.24816   0.00000  Uiso   1.00
C345   C     0.14339   0.68062   0.25184   0.00000  Uiso   1.00
C346   C     0.16741   0.83323   0.33640   0.00000  Uiso   1.00
C347   C     0.16592   0.83344   0.16360   0.00000  Uiso   1.00
C348   C     0.13261   0.79476   0.09458   0.00000  Uiso   1.00
H349   H     0.10853   0.76467   0.11444   0.00000  Uiso   1.00
H350   H     0.32877   0.87250   0.28402   0.00000  Uiso   1.00
H351   H     0.22732   0.68155   0.48943   0.00000  Uiso   1.00
H352   H     0.18687   0.99246   0.44153   0.00000  Uiso   1.00
H353   H     0.25445   0.69604   0.43294   0.00000  Uiso   1.00
H354   H     0.14647   0.67427   0.05859   0.00000  Uiso   1.00
H355   H     0.07892   0.97061   0.06704   0.00000  Uiso   1.00
H356   H     0.10621   0.98516   0.01061   0.00000  Uiso   1.00
H357   H     0.22481   0.90200   0.38556   0.00000  Uiso   1.00
H358   H     0.22112   0.90355   0.11037   0.00000  Uiso   1.00
H359   H     0.11220   0.76312   0.38963   0.00000  Uiso   1.00
H360   H     0.25288   0.94413   0.03928   0.00000  Uiso   1.00
H361   H     0.08045   0.72253   0.46072   0.00000  Uiso   1.00
H362   H     0.23394   0.66969   0.24463   0.00000  Uiso   1.00
H363   H     0.09939   0.99698   0.25537   0.00000  Uiso   1.00
H364   H     0.00456   0.79417   0.21598   0.00000  Uiso   1.00
N365   N     0.31678   0.81932   0.23783   0.00000  Uiso   1.00
N366   N     0.01656   0.84735   0.26217   0.00000  Uiso   1.00
O367   O     0.12975   0.91286   0.25299   0.00000  Uiso   1.00
O368   O     0.07229   0.71339   0.04886   0.00000  Uiso   1.00
O369   O     0.20358   0.75381   0.24702   0.00000  Uiso   1.00
O370   O     0.22613   0.90387   0.24519   0.00000  Uiso   1.00
O371   O     0.10720   0.76279   0.25482   0.00000  Uiso   1.00
O372   O     0.11847   0.83784   0.31998   0.00000  Uiso   1.00
O373   O     0.21486   0.82883   0.18003   0.00000  Uiso   1.00
O374   O     0.21485   0.82885   0.31218   0.00000  Uiso   1.00
O375   O     0.11848   0.83781   0.18783   0.00000  Uiso   1.00
O376   O     0.26106   0.95327   0.45113   0.00000  Uiso   1.00
Zn377  Zn    0.10231   0.83933   0.25521   0.00000  Uiso   1.00
Zn378  Zn    0.23102   0.82734   0.24479   0.00000  Uiso   1.00
C379   C     0.51523   0.93156   0.24884   0.00000  Uiso   1.00
C380   C     0.53406   0.87191   0.40542   0.00000  Uiso   1.00
C381   C     0.49782   0.83419   0.11606   0.00000  Uiso   1.00
C382   C     0.50218   0.83247   0.38394   0.00000  Uiso   1.00
C383   C     0.53014   0.87337   0.09241   0.00000  Uiso   1.00
C384   C     0.46985   0.79330   0.40759   0.00000  Uiso   1.00
C385   C     0.53058   0.87376   0.04592   0.00000  Uiso   1.00
C386   C     0.46941   0.79291   0.45408   0.00000  Uiso   1.00
C387   C     0.49932   0.83349   0.02342   0.00000  Uiso   1.00
C388   C     0.50068   0.83318   0.47658   0.00000  Uiso   1.00
C389   C     0.46707   0.79335   0.04784   0.00000  Uiso   1.00
C390   C     0.48477   0.73511   0.25117   0.00000  Uiso   1.00
C391   C     0.53293   0.87331   0.45216   0.00000  Uiso   1.00
C392   C     0.56201   0.91354   0.02180   0.00000  Uiso   1.00
C393   C     0.43798   0.75313   0.47820   0.00000  Uiso   1.00
C394   C     0.56388   0.99915   0.45429   0.00000  Uiso   1.00
C395   C     0.43618   0.66754   0.04575   0.00000  Uiso   1.00
C396   C     0.56241   0.91428   0.47489   0.00000  Uiso   1.00
C397   C     0.43759   0.75239   0.02511   0.00000  Uiso   1.00
C398   C     0.52328   0.98605   0.24816   0.00000  Uiso   1.00
C399   C     0.47672   0.68062   0.25184   0.00000  Uiso   1.00
C400   C     0.50074   0.83323   0.33640   0.00000  Uiso   1.00
C401   C     0.49926   0.83344   0.16360   0.00000  Uiso   1.00
C402   C     0.46595   0.79476   0.09458   0.00000  Uiso   1.00
H403   H     0.44186   0.76467   0.11444   0.00000  Uiso   1.00
H404   H     0.66211   0.87250   0.28402   0.00000  Uiso   1.00
H405   H     0.56065   0.68155   0.48943   0.00000  Uiso   1.00
H406   H     0.52020   0.99246   0.44153   0.00000  Uiso   1.00
H407   H     0.58779   0.69604   0.43294   0.00000  Uiso   1.00
H408   H     0.47981   0.67427   0.05859   0.00000  Uiso   1.00
H409   H     0.41225   0.97061   0.06704   0.00000  Uiso   1.00
H410   H     0.43954   0.98516   0.01061   0.00000  Uiso   1.00
H411   H     0.55814   0.90200   0.38556   0.00000  Uiso   1.00
H412   H     0.55446   0.90355   0.11037   0.00000  Uiso   1.00
H413   H     0.44553   0.76312   0.38963   0.00000  Uiso   1.00
H414   H     0.58621   0.94413   0.03928   0.00000  Uiso   1.00
H415   H     0.41379   0.72253   0.46072   0.00000  Uiso   1.00
H416   H     0.56727   0.66969   0.24463   0.00000  Uiso   1.00
H417   H     0.43273   0.99698   0.25537   0.00000  Uiso   1.00
H418   H     0.33789   0.79417   0.21598   0.00000  Uiso   1.00
N419   N     0.65011   0.81932   0.23783   0.00000  Uiso   1.00
N420   N     0.34989   0.84735   0.26217   0.00000  Uiso   1.00
O421   O     0.46308   0.91286   0.25299   0.00000  Uiso   1.00
O422   O     0.40563   0.71339   0.04886   0.00000  Uiso   1.00
O423   O     0.53692   0.75381   0.24702   0.00000  Uiso   1.00
O424   O     0.55946   0.90387   0.24519   0.00000  Uiso   1.00
O425   O     0.44054   0.76279   0.25482   0.00000  Uiso   1.00
O426   O     0.45181   0.83784   0.31998   0.00000  Uiso   1.00
O427   O     0.54819   0.82883   0.18003   0.00000  Uiso   1.00
O428   O     0.54819   0.82885   0.31218   0.00000  Uiso   1.00
O429   O     0.45181   0.83781   0.18783   0.00000  Uiso   1.00
O430   O     0.59439   0.95327   0.45113   0.00000  Uiso   1.00
Zn431  Zn    0.43565   0.83933   0.25521   0.00000  Uiso   1.00
Zn432  Zn    0.56435   0.82734   0.24479   0.00000  Uiso   1.00
C433   C     0.84857   0.93156   0.24884   0.00000  Uiso   1.00
C434   C     0.86739   0.87191   0.40542   0.00000  Uiso   1.00
C435   C     0.83115   0.83419   0.11606   0.00000  Uiso   1.00
C436   C     0.83551   0.83247   0.38394   0.00000  Uiso   1.00
C437   C     0.86348   0.87337   0.09241   0.00000  Uiso   1.00
C438   C     0.80318   0.79330   0.40759   0.00000  Uiso   1.00
C439   C     0.86392   0.87376   0.04592   0.00000  Uiso   1.00
C440   C     0.80275   0.79291   0.45408   0.00000  Uiso   1.00
C441   C     0.83265   0.83349   0.02342   0.00000  Uiso   1.00
C442   C     0.83402   0.83318   0.47658   0.00000  Uiso   1.00
C443   C     0.80040   0.79335   0.04784   0.00000  Uiso   1.00
C444   C     0.81810   0.73511   0.25117   0.00000  Uiso   1.00
C445   C     0.86627   0.87331   0.45216   0.00000  Uiso   1.00
C446   C     0.89535   0.91354   0.02180   0.00000  Uiso   1.00
C447   C     0.77132   0.75313   0.47820   0.00000  Uiso   1.00
C448   C     0.89722   0.99915   0.45429   0.00000  Uiso   1.00
C449   C     0.76952   0.66754   0.04575   0.00000  Uiso   1.00
C450   C     0.89575   0.91428   0.47489   0.00000  Uiso   1.00
C451   C     0.77093   0.75239   0.02511   0.00000  Uiso   1.00
C452   C     0.85661   0.98605   0.24816   0.00000  Uiso   1.00
C453   C     0.81005   0.68062   0.25184   0.00000  Uiso   1.00
C454   C     0.83408   0.83323   0.33640   0.00000  Uiso   1.00
C455   C     0.83259   0.83344   0.16360   0.00000  Uiso   1.00
C456   C     0.79928   0.79476   0.09458   0.00000  Uiso   1.00
H457   H     0.77520   0.76467   0.11444   0.00000  Uiso   1.00
H458   H     0.99544   0.87250   0.28402   0.00000  Uiso   1.00
H459   H     0.89398   0.68155   0.48943   0.00000  Uiso   1.00
H460   H     0.85354   0.99246   0.44153   0.00000  Uiso   1.00
H461   H     0.92112   0.69604   0.43294   0.00000  Uiso   1.00
H462   H     0.81314   0.67427   0.05859   0.00000  Uiso   1.00
H463   H     0.74559   0.97061   0.06704   0.00000  Uiso   1.00
H464   H     0.77288   0.98516   0.01061   0.00000  Uiso   1.00
H465   H     0.89148   0.90200   0.38556   0.00000  Uiso   1.00
H466   H     0.88779   0.90355   0.11037   0.00000  Uiso   1.00
H467   H     0.77887   0.76312   0.38963   0.00000  Uiso   1.00
H468   H     0.91954   0.94413   0.03928   0.00000  Uiso   1.00
H469   H     0.74712   0.72253   0.46072   0.00000  Uiso   1.00
H470   H     0.90061   0.66969   0.24463   0.00000  Uiso   1.00
H471   H     0.76606   0.99698   0.25537   0.00000  Uiso   1.00
H472   H     0.67123   0.79417   0.21598   0.00000  Uiso   1.00
N473   N     0.98344   0.81932   0.23783   0.00000  Uiso   1.00
N474   N     0.68322   0.84735   0.26217   0.00000  Uiso   1.00
O475   O     0.79642   0.91286   0.25299   0.00000  Uiso   1.00
O476   O     0.73896   0.71339   0.04886   0.00000  Uiso   1.00
O477   O     0.87025   0.75381   0.24702   0.00000  Uiso   1.00
O478   O     0.89280   0.90387   0.24519   0.00000  Uiso   1.00
O479   O     0.77387   0.76279   0.25482   0.00000  Uiso   1.00
O480   O     0.78514   0.83784   0.31998   0.00000  Uiso   1.00
O481   O     0.88153   0.82883   0.18003   0.00000  Uiso   1.00
O482   O     0.88152   0.82885   0.31218   0.00000  Uiso   1.00
O483   O     0.78515   0.83781   0.18783   0.00000  Uiso   1.00
O484   O     0.92772   0.95327   0.45113   0.00000  Uiso   1.00
Zn485  Zn    0.76898   0.83933   0.25521   0.00000  Uiso   1.00
Zn486  Zn    0.89769   0.82734   0.24479   0.00000  Uiso   1.00
C487   C     0.18190   0.26489   0.74884   0.00000  Uiso   1.00
C488   C     0.20072   0.20524   0.90542   0.00000  Uiso   1.00
C489   C     0.16449   0.16753   0.61606   0.00000  Uiso   1.00
C490   C     0.16885   0.16581   0.88394   0.00000  Uiso   1.00
C491   C     0.19681   0.20670   0.59241   0.00000  Uiso   1.00
C492   C     0.13652   0.12663   0.90759   0.00000  Uiso   1.00
C493   C     0.19725   0.20709   0.54592   0.00000  Uiso   1.00
C494   C     0.13608   0.12625   0.95408   0.00000  Uiso   1.00
C495   C     0.16598   0.16682   0.52342   0.00000  Uiso   1.00
C496   C     0.16735   0.16652   0.97658   0.00000  Uiso   1.00
C497   C     0.13374   0.12669   0.54784   0.00000  Uiso   1.00
C498   C     0.15143   0.06844   0.75117   0.00000  Uiso   1.00
C499   C     0.19960   0.20664   0.95216   0.00000  Uiso   1.00
C500   C     0.22868   0.24687   0.52180   0.00000  Uiso   1.00
C501   C     0.10465   0.08647   0.97820   0.00000  Uiso   1.00
C502   C     0.23055   0.33248   0.95429   0.00000  Uiso   1.00
C503   C     0.10285   0.00087   0.54575   0.00000  Uiso   1.00
C504   C     0.22908   0.24761   0.97489   0.00000  Uiso   1.00
C505   C     0.10426   0.08572   0.52511   0.00000  Uiso   1.00
C506   C     0.18995   0.31938   0.74816   0.00000  Uiso   1.00
C507   C     0.14339   0.01395   0.75184   0.00000  Uiso   1.00
C508   C     0.16741   0.16656   0.83640   0.00000  Uiso   1.00
C509   C     0.16592   0.16677   0.66360   0.00000  Uiso   1.00
C510   C     0.13261   0.12809   0.59458   0.00000  Uiso   1.00
H511   H     0.10853   0.09800   0.61444   0.00000  Uiso   1.00
H512   H     0.32877   0.20583   0.78402   0.00000  Uiso   1.00
H513   H     0.22732   0.01489   0.98943   0.00000  Uiso   1.00
H514   H     0.18687   0.32579   0.94153   0.00000  Uiso   1.00
H515   H     0.25445   0.02938   0.93294   0.00000  Uiso   1.00
H516   H     0.14647   0.00760   0.55859   0.00000  Uiso   1.00
H517   H     0.07892   0.30394   0.56704   0.00000  Uiso   1.00
H518   H     0.10621   0.31849   0.51061   0.00000  Uiso   1.00
H519   H     0.22481   0.23533   0.88556   0.00000  Uiso   1.00
H520   H     0.22112   0.23689   0.61037   0.00000  Uiso   1.00
H521   H     0.11220   0.09645   0.88963   0.00000  Uiso   1.00
H522   H     0.25288   0.27747   0.53928   0.00000  Uiso   1.00
H523   H     0.08045   0.05587   0.96072   0.00000  Uiso   1.00
H524   H     0.23394   0.00302   0.74463   0.00000  Uiso   1.00
H525   H     0.09939   0.33031   0.75537   0.00000  Uiso   1.00
H526   H     0.00456   0.12750   0.71598   0.00000  Uiso   1.00
N527   N     0.31678   0.15265   0.73783   0.00000  Uiso   1.00
N528   N     0.01656   0.18068   0.76217   0.00000  Uiso   1.00
O529   O     0.12975   0.24619   0.75299   0.00000  Uiso   1.00
O530   O     0.07229   0.04672   0.54886   0.00000  Uiso   1.00
O531   O     0.20358   0.08714   0.74702   0.00000  Uiso   1.00
O532   O     0.22613   0.23721   0.74519   0.00000  Uiso   1.00
O533   O     0.10720   0.09613   0.75482   0.00000  Uiso   1.00
O534   O     0.11847   0.17117   0.81998   0.00000  Uiso   1.00
O535   O     0.21486   0.16216   0.68003   0.00000  Uiso   1.00
O536   O     0.21485   0.16219   0.81218   0.00000  Uiso   1.00
O537   O     0.11848   0.17115   0.68783   0.00000  Uiso   1.00
O538   O     0.26106   0.28660   0.95113   0.00000  Uiso   1.00
Zn539  Zn    0.10231   0.17266   0.75521   0.00000  Uiso   1.00
Zn540  Zn    0.23102   0.16067   0.74479   0.00000  Uiso   1.00
C541   C     0.51523   0.26489   0.74884   0.00000  Uiso   1.00
C542   C     0.53406   0.20524   0.90542   0.00000  Uiso   1.00
C543   C     0.49782   0.16753   0.61606   0.00000  Uiso   1.00
C544   C     0.50218   0.16581   0.88394   0.00000  Uiso   1.00
C545   C     0.53014   0.20670   0.59241   0.00000  Uiso   1.00
C546   C     0.46985   0.12663   0.90759   0.00000  Uiso   1.00
C547   C     0.53058   0.20709   0.54592   0.00000  Uiso   1.00
C548   C     0.46941   0.12625   0.95408   0.00000  Uiso   1.00
C549   C     0.49932   0.16682   0.52342   0.00000  Uiso   1.00
C550   C     0.50068   0.16652   0.97658   0.00000  Uiso   1.00
C551   C     0.46707   0.12669   0.54784   0.00000  Uiso   1.00
C552   C     0.48477   0.06844   0.75117   0.00000  Uiso   1.00
C553   C     0.53293   0.20664   0.95216   0.00000  Uiso   1.00
C554   C     0.56201   0.24687   0.52180   0.00000  Uiso   1.00
C555   C     0.43798   0.08647   0.97820   0.00000  Uiso   1.00
C556   C     0.56388   0.33248   0.95429   0.00000  Uiso   1.00
C557   C     0.43618   0.00087   0.54575   0.00000  Uiso   1.00
C558   C     0.56241   0.24761   0.97489   0.00000  Uiso   1.00
C559   C     0.43759   0.08572   0.52511   0.00000  Uiso   1.00
C560   C     0.52328   0.31938   0.74816   0.00000  Uiso   1.00
C561   C     0.47672   0.01395   0.75184   0.00000  Uiso   1.00
C562   C     0.50074   0.16656   0.83640   0.00000  Uiso   1.00
C563   C     0.49926   0.16677   0.66360   0.00000  Uiso   1.00
C564   C     0.46595   0.12809   0.59458   0.00000  Uiso   1.00
H565   H     0.44186   0.09800   0.61444   0.00000  Uiso   1.00
H566   H     0.66211   0.20583   0.78402   0.00000  Uiso   1.00
H567   H     0.56065   0.01489   0.98943   0.00000  Uiso   1.00
H568   H     0.52020   0.32579   0.94153   0.00000  Uiso   1.00
H569   H     0.58779   0.02938   0.93294   0.00000  Uiso   1.00
H570   H     0.47981   0.00760   0.55859   0.00000  Uiso   1.00
H571   H     0.41225   0.30394   0.56704   0.00000  Uiso   1.00
H572   H     0.43954   0.31849   0.51061   0.00000  Uiso   1.00
H573   H     0.55814   0.23533   0.88556   0.00000  Uiso   1.00
H574   H     0.55446   0.23689   0.61037   0.00000  Uiso   1.00
H575   H     0.44553   0.09645   0.88963   0.00000  Uiso   1.00
H576   H     0.58621   0.27747   0.53928   0.00000  Uiso   1.00
H577   H     0.41379   0.05587   0.96072   0.00000  Uiso   1.00
H578   H     0.56727   0.00302   0.74463   0.00000  Uiso   1.00
H579   H     0.43273   0.33031   0.75537   0.00000  Uiso   1.00
H580   H     0.33789   0.12750   0.71598   0.00000  Uiso   1.00
N581   N     0.65011   0.15265   0.73783   0.00000  Uiso   1.00
N582   N     0.34989   0.18068   0.76217   0.00000  Uiso   1.00
O583   O     0.46308   0.24619   0.75299   0.00000  Uiso   1.00
O584   O     0.40563   0.04672   0.54886   0.00000  Uiso   1.00
O585   O     0.53692   0.08714   0.74702   0.00000  Uiso   1.00
O586   O     0.55946   0.23721   0.74519   0.00000  Uiso   1.00
O587   O     0.44054   0.09613   0.75482   0.00000  Uiso   1.00
O588   O     0.45181   0.17117   0.81998   0.00000  Uiso   1.00
O589   O     0.54819   0.16216   0.68003   0.00000  Uiso   1.00
O590   O     0.54819   0.16219   0.81218   0.00000  Uiso   1.00
O591   O     0.45181   0.17115   0.68783   0.00000  Uiso   1.00
O592   O     0.59439   0.28660   0.95113   0.00000  Uiso   1.00
Zn593  Zn    0.43565   0.17266   0.75521   0.00000  Uiso   1.00
Zn594  Zn    0.56435   0.16067   0.74479   0.00000  Uiso   1.00
C595   C     0.84857   0.26489   0.74884   0.00000  Uiso   1.00
C596   C     0.86739   0.20524   0.90542   0.00000  Uiso   1.00
C597   C     0.83115   0.16753   0.61606   0.00000  Uiso   1.00
C598   C     0.83551   0.16581   0.88394   0.00000  Uiso   1.00
C599   C     0.86348   0.20670   0.59241   0.00000  Uiso   1.00
C600   C     0.80318   0.12663   0.90759   0.00000  Uiso   1.00
C601   C     0.86392   0.20709   0.54592   0.00000  Uiso   1.00
C602   C     0.80275   0.12625   0.95408   0.00000  Uiso   1.00
C603   C     0.83265   0.16682   0.52342   0.00000  Uiso   1.00
C604   C     0.83402   0.16652   0.97658   0.00000  Uiso   1.00
C605   C     0.80040   0.12669   0.54784   0.00000  Uiso   1.00
C606   C     0.81810   0.06844   0.75117   0.00000  Uiso   1.00
C607   C     0.86627   0.20664   0.95216   0.00000  Uiso   1.00
C608   C     0.89535   0.24687   0.52180   0.00000  Uiso   1.00
C609   C     0.77132   0.08647   0.97820   0.00000  Uiso   1.00
C610   C     0.89722   0.33248   0.95429   0.00000  Uiso   1.00
C611   C     0.76952   0.00087   0.54575   0.00000  Uiso   1.00
C612   C     0.89575   0.24761   0.97489   0.00000  Uiso   1.00
C613   C     0.77093   0.08572   0.52511   0.00000  Uiso   1.00
C614   C     0.85661   0.31938   0.74816   0.00000  Uiso   1.00
C615   C     0.81005   0.01395   0.75184   0.00000  Uiso   1.00
C616   C     0.83408   0.16656   0.83640   0.00000  Uiso   1.00
C617   C     0.83259   0.16677   0.66360   0.00000  Uiso   1.00
C618   C     0.79928   0.12809   0.59458   0.00000  Uiso   1.00
H619   H     0.77520   0.09800   0.61444   0.00000  Uiso   1.00
H620   H     0.99544   0.20583   0.78402   0.00000  Uiso   1.00
H621   H     0.89398   0.01489   0.98943   0.00000  Uiso   1.00
H622   H     0.85354   0.32579   0.94153   0.00000  Uiso   1.00
H623   H     0.92112   0.02938   0.93294   0.00000  Uiso   1.00
H624   H     0.81314   0.00760   0.55859   0.00000  Uiso   1.00
H625   H     0.74559   0.30394   0.56704   0.00000  Uiso   1.00
H626   H     0.77288   0.31849   0.51061   0.00000  Uiso   1.00
H627   H     0.89148   0.23533   0.88556   0.00000  Uiso   1.00
H628   H     0.88779   0.23689   0.61037   0.00000  Uiso   1.00
H629   H     0.77887   0.09645   0.88963   0.00000  Uiso   1.00
H630   H     0.91954   0.27747   0.53928   0.00000  Uiso   1.00
H631   H     0.74712   0.05587   0.96072   0.00000  Uiso   1.00
H632   H     0.90061   0.00302   0.74463   0.00000  Uiso   1.00
H633   H     0.76606   0.33031   0.75537   0.00000  Uiso   1.00
H634   H     0.67123   0.12750   0.71598   0.00000  Uiso   1.00
N635   N     0.98344   0.15265   0.73783   0.00000  Uiso   1.00
N636   N     0.68322   0.18068   0.76217   0.00000  Uiso   1.00
O637   O     0.79642   0.24619   0.75299   0.00000  Uiso   1.00
O638   O     0.73896   0.04672   0.54886   0.00000  Uiso   1.00
O639   O     0.87025   0.08714   0.74702   0.00000  Uiso   1.00
O640   O     0.89280   0.23721   0.74519   0.00000  Uiso   1.00
O641   O     0.77387   0.09613   0.75482   0.00000  Uiso   1.00
O642   O     0.78514   0.17117   0.81998   0.00000  Uiso   1.00
O643   O     0.88153   0.16216   0.68003   0.00000  Uiso   1.00
O644   O     0.88152   0.16219   0.81218   0.00000  Uiso   1.00
O645   O     0.78515   0.17115   0.68783   0.00000  Uiso   1.00
O646   O     0.92772   0.28660   0.95113   0.00000  Uiso   1.00
Zn647  Zn    0.76898   0.17266   0.75521   0.00000  Uiso   1.00
Zn648  Zn    0.89769   0.16067   0.74479   0.00000  Uiso   1.00
C649   C     0.18190   0.59822   0.74884   0.00000  Uiso   1.00
C650   C     0.20072   0.53858   0.90542   0.00000  Uiso   1.00
C651   C     0.16449   0.50086   0.61606   0.00000  Uiso   1.00
C652   C     0.16885   0.49914   0.88394   0.00000  Uiso   1.00
C653   C     0.19681   0.54004   0.59241   0.00000  Uiso   1.00
C654   C     0.13652   0.45997   0.90759   0.00000  Uiso   1.00
C655   C     0.19725   0.54042   0.54592   0.00000  Uiso   1.00
C656   C     0.13608   0.45958   0.95408   0.00000  Uiso   1.00
C657   C     0.16598   0.50015   0.52342   0.00000  Uiso   1.00
C658   C     0.16735   0.49985   0.97658   0.00000  Uiso   1.00
C659   C     0.13374   0.46002   0.54784   0.00000  Uiso   1.00
C660   C     0.15143   0.40178   0.75117   0.00000  Uiso   1.00
C661   C     0.19960   0.53998   0.95216   0.00000  Uiso   1.00
C662   C     0.22868   0.58020   0.52180   0.00000  Uiso   1.00
C663   C     0.10465   0.41980   0.97820   0.00000  Uiso   1.00
C664   C     0.23055   0.66581   0.95429   0.00000  Uiso   1.00
C665   C     0.10285   0.33421   0.54575   0.00000  Uiso   1.00
C666   C     0.22908   0.58094   0.97489   0.00000  Uiso   1.00
C667   C     0.10426   0.41905   0.52511   0.00000  Uiso   1.00
C668   C     0.18995   0.65272   0.74816   0.00000  Uiso   1.00
C669   C     0.14339   0.34728   0.75184   0.00000  Uiso   1.00
C670   C     0.16741   0.49990   0.83640   0.00000  Uiso   1.00
C671   C     0.16592   0.50010   0.66360   0.00000  Uiso   1.00
C672   C     0.13261   0.46142   0.59458   0.00000  Uiso   1.00
H673   H     0.10853   0.43133   0.61444   0.00000  Uiso   1.00
H674   H     0.32877   0.53917   0.78402   0.00000  Uiso   1.00
H675   H     0.22732   0.34822   0.98943   0.00000  Uiso   1.00
H676   H     0.18687   0.65912   0.94153   0.00000  Uiso   1.00
H677   H     0.25445   0.36271   0.93294   0.00000  Uiso   1.00
H678   H     0.14647   0.34093   0.55859   0.00000  Uiso   1.00
H679   H     0.07892   0.63728   0.56704   0.00000  Uiso   1.00
H680   H     0.10621   0.65182   0.51061   0.00000  Uiso   1.00
H681   H     0.22481   0.56866   0.88556   0.00000  Uiso   1.00
H682   H     0.22112   0.57022   0.61037   0.00000  Uiso   1.00
H683   H     0.11220   0.42978   0.88963   0.00000  Uiso   1.00
H684   H     0.25288   0.61080   0.53928   0.00000  Uiso   1.00
H685   H     0.08045   0.38920   0.96072   0.00000  Uiso   1.00
H686   H     0.23394   0.33636   0.74463   0.00000  Uiso   1.00
H687   H     0.09939   0.66364   0.75537   0.00000  Uiso   1.00
H688   H     0.00456   0.46083   0.71598   0.00000  Uiso   1.00
N689   N     0.31678   0.48598   0.73783   0.00000  Uiso   1.00
N690   N     0.01656   0.51402   0.76217   0.00000  Uiso   1.00
O691   O     0.12975   0.57952   0.75299   0.00000  Uiso   1.00
O692   O     0.07229   0.38006   0.54886   0.00000  Uiso   1.00
O693   O     0.20358   0.42048   0.74702   0.00000  Uiso   1.00
O694   O     0.22613   0.57054   0.74519   0.00000  Uiso   1.00
O695   O     0.10720   0.42946   0.75482   0.00000  Uiso   1.00
O696   O     0.11847   0.50450   0.81998   0.00000  Uiso   1.00
O697   O     0.21486   0.49550   0.68003   0.00000  Uiso   1.00
O698   O     0.21485   0.49552   0.81218   0.00000  Uiso   1.00
O699   O     0.11848   0.50448   0.68783   0.00000  Uiso   1.00
O700   O     0.26106   0.61993   0.95113   0.00000  Uiso   1.00
Zn701  Zn    0.10231   0.50600   0.75521   0.00000  Uiso   1.00
Zn702  Zn    0.23102   0.49400   0.74479   0.00000  Uiso   1.00
C703   C     0.51523   0.59822   0.74884   0.00000  Uiso   1.00
C704   C     0.53406   0.53858   0.90542   0.00000  Uiso   1.00
C705   C     0.49782   0.50086   0.61606   0.00000  Uiso   1.00
C706   C     0.50218   0.49914   0.88394   0.00000  Uiso   1.00
C707   C     0.53014   0.54004   0.59241   0.00000  Uiso   1.00
C708   C     0.46985   0.45997   0.90759   0.00000  Uiso   1.00
C709   C     0.53058   0.54042   0.54592   0.00000  Uiso   1.00
C710   C     0.46941   0.45958   0.95408   0.00000  Uiso   1.00
C711   C     0.49932   0.50015   0.52342   0.00000  Uiso   1.00
C712   C     0.50068   0.49985   0.97658   0.00000  Uiso   1.00
C713   C     0.46707   0.46002   0.54784   0.00000  Uiso   1.00
C714   C     0.48477   0.40178   0.75117   0.00000  Uiso   1.00
C715   C     0.53293   0.53998   0.95216   0.00000  Uiso   1.00
C716   C     0.56201   0.58020   0.52180   0.00000  Uiso   1.00
C717   C     0.43798   0.41980   0.97820   0.00000  Uiso   1.00
C718   C     0.56388   0.66581   0.95429   0.00000  Uiso   1.00
C719   C     0.43618   0.33421   0.54575   0.00000  Uiso   1.00
C720   C     0.56241   0.58094   0.97489   0.00000  Uiso   1.00
C721   C     0.43759   0.41905   0.52511   0.00000  Uiso   1.00
C722   C     0.52328   0.65272   0.74816   0.00000  Uiso   1.00
C723   C     0.47672   0.34728   0.75184   0.00000  Uiso   1.00
C724   C     0.50074   0.49990   0.83640   0.00000  Uiso   1.00
C725   C     0.49926   0.50010   0.66360   0.00000  Uiso   1.00
C726   C     0.46595   0.46142   0.59458   0.00000  Uiso   1.00
H727   H     0.44186   0.43133   0.61444   0.00000  Uiso   1.00
H728   H     0.66211   0.53917   0.78402   0.00000  Uiso   1.00
H729   H     0.56065   0.34822   0.98943   0.00000  Uiso   1.00
H730   H     0.52020   0.65912   0.94153   0.00000  Uiso   1.00
H731   H     0.58779   0.36271   0.93294   0.00000  Uiso   1.00
H732   H     0.47981   0.34093   0.55859   0.00000  Uiso   1.00
H733   H     0.41225   0.63728   0.56704   0.00000  Uiso   1.00
H734   H     0.43954   0.65182   0.51061   0.00000  Uiso   1.00
H735   H     0.55814   0.56866   0.88556   0.00000  Uiso   1.00
H736   H     0.55446   0.57022   0.61037   0.00000  Uiso   1.00
H737   H     0.44553   0.42978   0.88963   0.00000  Uiso   1.00
H738   H     0.58621   0.61080   0.53928   0.00000  Uiso   1.00
H739   H     0.41379   0.38920   0.96072   0.00000  Uiso   1.00
H740   H     0.56727   0.33636   0.74463   0.00000  Uiso   1.00
H741   H     0.43273   0.66364   0.75537   0.00000  Uiso   1.00
H742   H     0.33789   0.46083   0.71598   0.00000  Uiso   1.00
N743   N     0.65011   0.48598   0.73783   0.00000  Uiso   1.00
N744   N     0.34989   0.51402   0.76217   0.00000  Uiso   1.00
O745   O     0.46308   0.57952   0.75299   0.00000  Uiso   1.00
O746   O     0.40563   0.38006   0.54886   0.00000  Uiso   1.00
O747   O     0.53692   0.42048   0.74702   0.00000  Uiso   1.00
O748   O     0.55946   0.57054   0.74519   0.00000  Uiso   1.00
O749   O     0.44054   0.42946   0.75482   0.00000  Uiso   1.00
O750   O     0.45181   0.50450   0.81998   0.00000  Uiso   1.00
O751   O     0.54819   0.49550   0.68003   0.00000  Uiso   1.00
O752   O     0.54819   0.49552   0.81218   0.00000  Uiso   1.00
O753   O     0.45181   0.50448   0.68783   0.00000  Uiso   1.00
O754   O     0.59439   0.61993   0.95113   0.00000  Uiso   1.00
Zn755  Zn    0.43565   0.50600   0.75521   0.00000  Uiso   1.00
Zn756  Zn    0.56435   0.49400   0.74479   0.00000  Uiso   1.00
C757   C     0.84857   0.59822   0.74884   0.00000  Uiso   1.00
C758   C     0.86739   0.53858   0.90542   0.00000  Uiso   1.00
C759   C     0.83115   0.50086   0.61606   0.00000  Uiso   1.00
C760   C     0.83551   0.49914   0.88394   0.00000  Uiso   1.00
C761   C     0.86348   0.54004   0.59241   0.00000  Uiso   1.00
C762   C     0.80318   0.45997   0.90759   0.00000  Uiso   1.00
C763   C     0.86392   0.54042   0.54592   0.00000  Uiso   1.00
C764   C     0.80275   0.45958   0.95408   0.00000  Uiso   1.00
C765   C     0.83265   0.50015   0.52342   0.00000  Uiso   1.00
C766   C     0.83402   0.49985   0.97658   0.00000  Uiso   1.00
C767   C     0.80040   0.46002   0.54784   0.00000  Uiso   1.00
C768   C     0.81810   0.40178   0.75117   0.00000  Uiso   1.00
C769   C     0.86627   0.53998   0.95216   0.00000  Uiso   1.00
C770   C     0.89535   0.58020   0.52180   0.00000  Uiso   1.00
C771   C     0.77132   0.41980   0.97820   0.00000  Uiso   1.00
C772   C     0.89722   0.66581   0.95429   0.00000  Uiso   1.00
C773   C     0.76952   0.33421   0.54575   0.00000  Uiso   1.00
C774   C     0.89575   0.58094   0.97489   0.00000  Uiso   1.00
C775   C     0.77093   0.41905   0.52511   0.00000  Uiso   1.00
C776   C     0.85661   0.65272   0.74816   0.00000  Uiso   1.00
C777   C     0.81005   0.34728   0.75184   0.00000  Uiso   1.00
C778   C     0.83408   0.49990   0.83640   0.00000  Uiso   1.00
C779   C     0.83259   0.50010   0.66360   0.00000  Uiso   1.00
C780   C     0.79928   0.46142   0.59458   0.00000  Uiso   1.00
H781   H     0.77520   0.43133   0.61444   0.00000  Uiso   1.00
H782   H     0.99544   0.53917   0.78402   0.00000  Uiso   1.00
H783   H     0.89398   0.34822   0.98943   0.00000  Uiso   1.00
H784   H     0.85354   0.65912   0.94153   0.00000  Uiso   1.00
H785   H     0.92112   0.36271   0.93294   0.00000  Uiso   1.00
H786   H     0.81314   0.34093   0.55859   0.00000  Uiso   1.00
H787   H     0.74559   0.63728   0.56704   0.00000  Uiso   1.00
H788   H     0.77288   0.65182   0.51061   0.00000  Uiso   1.00
H789   H     0.89148   0.56866   0.88556   0.00000  Uiso   1.00
H790   H     0.88779   0.57022   0.61037   0.00000  Uiso   1.00
H791   H     0.77887   0.42978   0.88963   0.00000  Uiso   1.00
H792   H     0.91954   0.61080   0.53928   0.00000  Uiso   1.00
H793   H     0.74712   0.38920   0.96072   0.00000  Uiso   1.00
H794   H     0.90061   0.33636   0.74463   0.00000  Uiso   1.00
H795   H     0.76606   0.66364   0.75537   0.00000  Uiso   1.00
H796   H     0.67123   0.46083   0.71598   0.00000  Uiso   1.00
N797   N     0.98344   0.48598   0.73783   0.00000  Uiso   1.00
N798   N     0.68322   0.51402   0.76217   0.00000  Uiso   1.00
O799   O     0.79642   0.57952   0.75299   0.00000  Uiso   1.00
O800   O     0.73896   0.38006   0.54886   0.00000  Uiso   1.00
O801   O     0.87025   0.42048   0.74702   0.00000  Uiso   1.00
O802   O     0.89280   0.57054   0.74519   0.00000  Uiso   1.00
O803   O     0.77387   0.42946   0.75482   0.00000  Uiso   1.00
O804   O     0.78514   0.50450   0.81998   0.00000  Uiso   1.00
O805   O     0.88153   0.49550   0.68003   0.00000  Uiso   1.00
O806   O     0.88152   0.49552   0.81218   0.00000  Uiso   1.00
O807   O     0.78515   0.50448   0.68783   0.00000  Uiso   1.00
O808   O     0.92772   0.61993   0.95113   0.00000  Uiso   1.00
Zn809  Zn    0.76898   0.50600   0.75521   0.00000  Uiso   1.00
Zn810  Zn    0.89769   0.49400   0.74479   0.00000  Uiso   1.00
C811   C     0.18190   0.93156   0.74884   0.00000  Uiso   1.00
C812   C     0.20072   0.87191   0.90542   0.00000  Uiso   1.00
C813   C     0.16449   0.83419   0.61606   0.00000  Uiso   1.00
C814   C     0.16885   0.83247   0.88394   0.00000  Uiso   1.00
C815   C     0.19681   0.87337   0.59241   0.00000  Uiso   1.00
C816   C     0.13652   0.79330   0.90759   0.00000  Uiso   1.00
C817   C     0.19725   0.87376   0.54592   0.00000  Uiso   1.00
C818   C     0.13608   0.79291   0.95408   0.00000  Uiso   1.00
C819   C     0.16598   0.83349   0.52342   0.00000  Uiso   1.00
C820   C     0.16735   0.83318   0.97658   0.00000  Uiso   1.00
C821   C     0.13374   0.79335   0.54784   0.00000  Uiso   1.00
C822   C     0.15143   0.73511   0.75117   0.00000  Uiso   1.00
C823   C     0.19960   0.87331   0.95216   0.00000  Uiso   1.00
C824   C     0.22868   0.91354   0.52180   0.00000  Uiso   1.00
C825   C     0.10465   0.75313   0.97820   0.00000  Uiso   1.00
C826   C     0.23055   0.99915   0.95429   0.00000  Uiso   1.00
C827   C     0.10285   0.66754   0.54575   0.00000  Uiso   1.00
C828   C     0.22908   0.91428   0.97489   0.00000  Uiso   1.00
C829   C     0.10426   0.75239   0.52511   0.00000  Uiso   1.00
C830   C     0.18995   0.98605   0.74816   0.00000  Uiso   1.00
C831   C     0.14339   0.68062   0.75184   0.00000  Uiso   1.00
C832   C     0.16741   0.83323   0.83640   0.00000  Uiso   1.00
C833   C     0.16592   0.83344   0.66360   0.00000  Uiso   1.00
C834   C     0.13261   0.79476   0.59458   0.00000  Uiso   1.00
H835   H     0.10853   0.76467   0.61444   0.00000  Uiso   1.00
H836   H     0.32877   0.87250   0.78402   0.00000  Uiso   1.00
H837   H     0.22732   0.68155   0.98943   0.00000  Uiso   1.00
H838   H     0.18687   0.99246   0.94153   0.00000  Uiso   1.00
H839   H     0.25445   0.69604   0.93294   0.00000  Uiso   1.00
H840   H     0.14647   0.67427   0.55859   0.00000  Uiso   1.00
H841   H     0.07892   0.97061   0.56704   0.00000  Uiso   1.00
H842   H     0.10621   0.98516   0.51061   0.00000  Uiso   1.00
H843   H     0.22481   0.90200   0.88556   0.00000  Uiso   1.00
H844   H     0.22112   0.90355   0.61037   0.00000  Uiso   1.00
H845   H     0.11220   0.76312   0.88963   0.00000  Uiso   1.00
H846   H     0.25288   0.94413   0.53928   0.00000  Uiso   1.00
H847   H     0.08045   0.72253   0.96072   0.00000  Uiso   1.00
H848   H     0.23394   0.66969   0.74463   0.00000  Uiso   1.00
H849   H     0.09939   0.99698   0.75537   0.00000  Uiso   1.00
H850   H     0.00456   0.79417   0.71598   0.00000  Uiso   1.00
N851   N     0.31678   0.81932   0.73783   0.00000  Uiso   1.00
N852   N     0.01656   0.84735   0.76217   0.00000  Uiso   1.00
O853   O     0.12975   0.91286   0.75299   0.00000  Uiso   1.00
O854   O     0.07229   0.71339   0.54886   0.00000  Uiso   1.00
O855   O     0.20358   0.75381   0.74702   0.00000  Uiso   1.00
O856   O     0.22613   0.90387   0.74519   0.00000  Uiso   1.00
O857   O     0.10720   0.76279   0.75482   0.00000  Uiso   1.00
O858   O     0.11847   0.83784   0.81998   0.00000  Uiso   1.00
O859   O     0.21486   0.82883   0.68003   0.00000  Uiso   1.00
O860   O     0.21485   0.82885   0.81218   0.00000  Uiso   1.00
O861   O     0.11848   0.83781   0.68783   0.00000  Uiso   1.00
O862   O     0.26106   0.95327   0.95113   0.00000  Uiso   1.00
Zn863  Zn    0.10231   0.83933   0.75521   0.00000  Uiso   1.00
Zn864  Zn    0.23102   0.82734   0.74479   0.00000  Uiso   1.00
C865   C     0.51523   0.93156   0.74884   0.00000  Uiso   1.00
C866   C     0.53406   0.87191   0.90542   0.00000  Uiso   1.00
C867   C     0.49782   0.83419   0.61606   0.00000  Uiso   1.00
C868   C     0.50218   0.83247   0.88394   0.00000  Uiso   1.00
C869   C     0.53014   0.87337   0.59241   0.00000  Uiso   1.00
C870   C     0.46985   0.79330   0.90759   0.00000  Uiso   1.00
C871   C     0.53058   0.87376   0.54592   0.00000  Uiso   1.00
C872   C     0.46941   0.79291   0.95408   0.00000  Uiso   1.00
C873   C     0.49932   0.83349   0.52342   0.00000  Uiso   1.00
C874   C     0.50068   0.83318   0.97658   0.00000  Uiso   1.00
C875   C     0.46707   0.79335   0.54784   0.00000  Uiso   1.00
C876   C     0.48477   0.73511   0.75117   0.00000  Uiso   1.00
C877   C     0.53293   0.87331   0.95216   0.00000  Uiso   1.00
C878   C     0.56201   0.91354   0.52180   0.00000  Uiso   1.00
C879   C     0.43798   0.75313   0.97820   0.00000  Uiso   1.00
C880   C     0.56388   0.99915   0.95429   0.00000  Uiso   1.00
C881   C     0.43618   0.66754   0.54575   0.00000  Uiso   1.00
C882   C     0.56241   0.91428   0.97489   0.00000  Uiso   1.00
C883   C     0.43759   0.75239   0.52511   0.00000  Uiso   1.00
C884   C     0.52328   0.98605   0.74816   0.00000  Uiso   1.00
C885   C     0.47672   0.68062   0.75184   0.00000  Uiso   1.00
C886   C     0.50074   0.83323   0.83640   0.00000  Uiso   1.00
C887   C     0.49926   0.83344   0.66360   0.00000  Uiso   1.00
C888   C     0.46595   0.79476   0.59458   0.00000  Uiso   1.00
H889   H     0.44186   0.76467   0.61444   0.00000  Uiso   1.00
H890   H     0.66211   0.87250   0.78402   0.00000  Uiso   1.00
H891   H     0.56065   0.68155   0.98943   0.00000  Uiso   1.00
H892   H     0.52020   0.99246   0.94153   0.00000  Uiso   1.00
H893   H     0.58779   0.69604   0.93294   0.00000  Uiso   1.00
H894   H     0.47981   0.67427   0.55859   0.00000  Uiso   1.00
H895   H     0.41225   0.97061   0.56704   0.00000  Uiso   1.00
H896   H     0.43954   0.98516   0.51061   0.00000  Uiso   1.00
H897   H     0.55814   0.90200   0.88556   0.00000  Uiso   1.00
H898   H     0.55446   0.90355   0.61037   0.00000  Uiso   1.00
H899   H     0.44553   0.76312   0.88963   0.00000  Uiso   1.00
H900   H     0.58621   0.94413   0.53928   0.00000  Uiso   1.00
H901   H     0.41379   0.72253   0.96072   0.00000  Uiso   1.00
H902   H     0.56727   0.66969   0.74463   0.00000  Uiso   1.00
H903   H     0.43273   0.99698   0.75537   0.00000  Uiso   1.00
H904   H     0.33789   0.79417   0.71598   0.00000  Uiso   1.00
N905   N     0.65011   0.81932   0.73783   0.00000  Uiso   1.00
N906   N     0.34989   0.84735   0.76217   0.00000  Uiso   1.00
O907   O     0.46308   0.91286   0.75299   0.00000  Uiso   1.00
O908   O     0.40563   0.71339   0.54886   0.00000  Uiso   1.00
O909   O     0.53692   0.75381   0.74702   0.00000  Uiso   1.00
O910   O     0.55946   0.90387   0.74519   0.00000  Uiso   1.00
O911   O     0.44054   0.76279   0.75482   0.00000  Uiso   1.00
O912   O     0.45181   0.83784   0.81998   0.00000  Uiso   1.00
O913   O     0.54819   0.82883   0.68003   0.00000  Uiso   1.00
O914   O     0.54819   0.82885   0.81218   0.00000  Uiso   1.00
O915   O     0.45181   0.83781   0.68783   0.00000  Uiso   1.00
O916   O     0.59439   0.95327   0.95113   0.00000  Uiso   1.00
Zn917  Zn    0.43565   0.83933   0.75521   0.00000  Uiso   1.00
Zn918  Zn    0.56435   0.82734   0.74479   0.00000  Uiso   1.00
C919   C     0.84857   0.93156   0.74884   0.00000  Uiso   1.00
C920   C     0.86739   0.87191   0.90542   0.00000  Uiso   1.00
C921   C     0.83115   0.83419   0.61606   0.00000  Uiso   1.00
C922   C     0.83551   0.83247   0.88394   0.00000  Uiso   1.00
C923   C     0.86348   0.87337   0.59241   0.00000  Uiso   1.00
C924   C     0.80318   0.79330   0.90759   0.00000  Uiso   1.00
C925   C     0.86392   0.87376   0.54592   0.00000  Uiso   1.00
C926   C     0.80275   0.79291   0.95408   0.00000  Uiso   1.00
C927   C     0.83265   0.83349   0.52342   0.00000  Uiso   1.00
C928   C     0.83402   0.83318   0.97658   0.00000  Uiso   1.00
C929   C     0.80040   0.79335   0.54784   0.00000  Uiso   1.00
C930   C     0.81810   0.73511   0.75117   0.00000  Uiso   1.00
C931   C     0.86627   0.87331   0.95216   0.00000  Uiso   1.00
C932   C     0.89535   0.91354   0.52180   0.00000  Uiso   1.00
C933   C     0.77132   0.75313   0.97820   0.00000  Uiso   1.00
C934   C     0.89722   0.99915   0.95429   0.00000  Uiso   1.00
C935   C     0.76952   0.66754   0.54575   0.00000  Uiso   1.00
C936   C     0.89575   0.91428   0.97489   0.00000  Uiso   1.00
C937   C     0.77093   0.75239   0.52511   0.00000  Uiso   1.00
C938   C     0.85661   0.98605   0.74816   0.00000  Uiso   1.00
C939   C     0.81005   0.68062   0.75184   0.00000  Uiso   1.00
C940   C     0.83408   0.83323   0.83640   0.00000  Uiso   1.00
C941   C     0.83259   0.83344   0.66360   0.00000  Uiso   1.00
C942   C     0.79928   0.79476   0.59458   0.00000  Uiso   1.00
H943   H     0.77520   0.76467   0.61444   0.00000  Uiso   1.00
H944   H     0.99544   0.87250   0.78402   0.00000  Uiso   1.00
H945   H     0.89398   0.68155   0.98943   0.00000  Uiso   1.00
H946   H     0.85354   0.99246   0.94153   0.00000  Uiso   1.00
H947   H     0.92112   0.69604   0.93294   0.00000  Uiso   1.00
H948   H     0.81314   0.67427   0.55859   0.00000  Uiso   1.00
H949   H     0.74559   0.97061   0.56704   0.00000  Uiso   1.00
H950   H     0.77288   0.98516   0.51061   0.00000  Uiso   1.00
H951   H     0.89148   0.90200   0.88556   0.00000  Uiso   1.00
H952   H     0.88779   0.90355   0.61037   0.00000  Uiso   1.00
H953   H     0.77887   0.76312   0.88963   0.00000  Uiso   1.00
H954   H     0.91954   0.94413   0.53928   0.00000  Uiso   1.00
H955   H     0.74712   0.72253   0.96072   0.00000  Uiso   1.00
H956   H     0.90061   0.66969   0.74463   0.00000  Uiso   1.00
H957   H     0.76606   0.99698   0.75537   0.00000  Uiso   1.00
H958   H     0.67123   0.79417   0.71598   0.00000  Uiso   1.00
N959   N     0.98344   0.81932   0.73783   0.00000  Uiso   1.00
N960   N     0.68322   0.84735   0.76217   0.00000  Uiso   1.00
O961   O     0.79642   0.91286   0.75299   0.00000  Uiso   1.00
O962   O     0.73896   0.71339   0.54886   0.00000  Uiso   1.00
O963   O     0.87025   0.75381   0.74702   0.00000  Uiso   1.00
O964   O     0.89280   0.90387   0.74519   0.00000  Uiso   1.00
O965   O     0.77387   0.76279   0.75482   0.00000  Uiso   1.00
O966   O     0.78514   0.83784   0.81998   0.00000  Uiso   1.00
O967   O     0.88153   0.82883   0.68003   0.00000  Uiso   1.00
O968   O     0.88152   0.82885   0.81218   0.00000  Uiso   1.00
O969   O     0.78515   0.83781   0.68783   0.00000  Uiso   1.00
O970   O     0.92772   0.95327   0.95113   0.00000  Uiso   1.00
Zn971  Zn    0.76898   0.83933   0.75521   0.00000  Uiso   1.00
Zn972  Zn    0.89769   0.82734   0.74479   0.00000  Uiso   1.00
loop_
_geom_bond_atom_site_label_1
_geom_bond_atom_site_label_2
_geom_bond_distance
_geom_bond_site_symmetry_2
_ccdc_geom_bond_type
C1     O46     1.285   .     A
C1     C20     1.399   .     S
C1     O43     1.278   .     A
C2     C4      1.390   .     A
C2     H33     1.085   .     S
C2     C13     1.388   .     A
C3     C24     1.390   .     A
C3     C5      1.390   .     A
C3     C23     1.418   .     S
C4     C6      1.390   .     A
C4     C22     1.418   .     S
C5     H34     1.086   .     S
C5     C7      1.382   .     A
C6     H35     1.086   .     S
C6     C8      1.382   .     A
C7     C9      1.413   .     A
C7     C14     1.398   .     A
C8     C15     1.398   .     A
C8     C10     1.413   .     A
C9     C11     1.417   .     A
C9     C496    1.391   1_554 S
C10    C13     1.417   .     A
C10    C495    1.391   .     S
C11    C19     1.408   .     A
C11    C24     1.388   .     A
C12    O47     1.285   .     A
C12    C21     1.399   .     S
C12    O45     1.278   .     A
C13    C18     1.408   .     A
C14    H36     1.084   .     S
C14    C504    1.395   1_554 S
C15    H37     1.084   .     S
C15    C505    1.395   .     S
C16    H28     1.114   .     S
C16    O52     1.411   .     S
C16    H189    1.113   .     S
C16    H191    1.109   .     S
C17    O44     1.411   .     S
C17    H30     1.114   .     S
C17    H355    1.109   1_545 S
C17    H356    1.112   1_545 S
C18    O52     1.384   .     S
C18    C500    1.395   .     S
C19    O44     1.384   .     S
C19    C501    1.395   1_554 S
C20    C183    1.334   .     S
C20    H200    1.088   .     S
C21    C344    1.334   1_545 S
C21    H363    1.088   1_545 S
C22    O48     1.286   .     A
C22    O50     1.287   .     A
C23    O51     1.287   .     A
C23    O49     1.286   .     A
C24    H25     1.085   .     S
H26    N96     1.029   .     S
H27    C340    1.113   1_545 S
H29    C340    1.109   1_545 S
H31    C179    1.109   .     S
H32    C179    1.112   .     S
H38    C344    1.088   1_545 S
H39    C183    1.088   .     S
H40    N149    1.029   1_455 S
N41    Zn54    2.019   .     S
N41    H94     1.029   .     S
N41    N96     1.276   .     S
N42    Zn53    2.019   .     S
N42    H134    1.029   1_455 S
N42    N149    1.276   1_455 S
O43    Zn53    1.954   .     S
O45    Zn54    1.954   .     S
O46    Zn54    1.974   .     S
O47    Zn53    1.974   .     S
O48    Zn53    1.991   .     S
O49    Zn54    1.991   .     S
O50    Zn54    2.013   .     S
O51    Zn53    2.013   .     S
C55    O100    1.285   .     A
C55    C74     1.399   .     S
C55    O97     1.278   .     A
C56    C58     1.390   .     A
C56    H87     1.085   .     S
C56    C67     1.388   .     A
C57    C78     1.390   .     A
C57    C59     1.390   .     A
C57    C77     1.418   .     S
C58    C60     1.390   .     A
C58    C76     1.418   .     S
C59    H88     1.086   .     S
C59    C61     1.382   .     A
C60    H89     1.086   .     S
C60    C62     1.382   .     A
C61    C63     1.413   .     A
C61    C68     1.398   .     A
C62    C69     1.398   .     A
C62    C64     1.413   .     A
C63    C65     1.417   .     A
C63    C550    1.391   1_554 S
C64    C67     1.417   .     A
C64    C549    1.391   .     S
C65    C73     1.408   .     A
C65    C78     1.388   .     A
C66    O101    1.285   .     A
C66    C75     1.399   .     S
C66    O99     1.278   .     A
C67    C72     1.408   .     A
C68    H90     1.084   .     S
C68    C558    1.395   1_554 S
C69    H91     1.084   .     S
C69    C559    1.395   .     S
C70    H82     1.114   .     S
C70    O106    1.411   .     S
C70    H243    1.113   .     S
C70    H245    1.109   .     S
C71    O98     1.411   .     S
C71    H84     1.114   .     S
C71    H409    1.109   1_545 S
C71    H410    1.112   1_545 S
C72    O106    1.384   .     S
C72    C554    1.395   .     S
C73    O98     1.384   .     S
C73    C555    1.395   1_554 S
C74    C237    1.334   .     S
C74    H254    1.088   .     S
C75    C398    1.334   1_545 S
C75    H417    1.088   1_545 S
C76    O102    1.286   .     A
C76    O104    1.287   .     A
C77    O105    1.287   .     A
C77    O103    1.286   .     A
C78    H79     1.085   .     S
H80    N150    1.029   .     S
H81    C394    1.113   1_545 S
H83    C394    1.109   1_545 S
H85    C233    1.109   .     S
H86    C233    1.112   .     S
H92    C398    1.088   1_545 S
H93    C237    1.088   .     S
N95    Zn108   2.019   .     S
N95    H148    1.029   .     S
N95    N150    1.276   .     S
N96    Zn107   2.019   .     S
O97    Zn107   1.954   .     S
O99    Zn108   1.954   .     S
O100   Zn108   1.974   .     S
O101   Zn107   1.974   .     S
O102   Zn107   1.991   .     S
O103   Zn108   1.991   .     S
O104   Zn108   2.013   .     S
O105   Zn107   2.013   .     S
C109   O154    1.285   .     A
C109   C128    1.399   .     S
C109   O151    1.278   .     A
C110   C112    1.390   .     A
C110   H141    1.085   .     S
C110   C121    1.388   .     A
C111   C132    1.390   .     A
C111   C113    1.390   .     A
C111   C131    1.418   .     S
C112   C114    1.390   .     A
C112   C130    1.418   .     S
C113   H142    1.086   .     S
C113   C115    1.382   .     A
C114   H143    1.086   .     S
C114   C116    1.382   .     A
C115   C117    1.413   .     A
C115   C122    1.398   .     A
C116   C123    1.398   .     A
C116   C118    1.413   .     A
C117   C119    1.417   .     A
C117   C604    1.391   1_554 S
C118   C121    1.417   .     A
C118   C603    1.391   .     S
C119   C127    1.408   .     A
C119   C132    1.388   .     A
C120   O155    1.285   .     A
C120   C129    1.399   .     S
C120   O153    1.278   .     A
C121   C126    1.408   .     A
C122   H144    1.084   .     S
C122   C612    1.395   1_554 S
C123   H145    1.084   .     S
C123   C613    1.395   .     S
C124   H136    1.114   .     S
C124   O160    1.411   .     S
C124   H297    1.113   .     S
C124   H299    1.109   .     S
C125   O152    1.411   .     S
C125   H138    1.114   .     S
C125   H463    1.109   1_545 S
C125   H464    1.112   1_545 S
C126   O160    1.384   .     S
C126   C608    1.395   .     S
C127   O152    1.384   .     S
C127   C609    1.395   1_554 S
C128   C291    1.334   .     S
C128   H308    1.088   .     S
C129   C452    1.334   1_545 S
C129   H471    1.088   1_545 S
C130   O156    1.286   .     A
C130   O158    1.287   .     A
C131   O159    1.287   .     A
C131   O157    1.286   .     A
C132   H133    1.085   .     S
H134   N42     1.029   1_655 S
H135   C448    1.113   1_545 S
H137   C448    1.109   1_545 S
H139   C287    1.109   .     S
H140   C287    1.112   .     S
H146   C452    1.088   1_545 S
H147   C291    1.088   .     S
N149   Zn162   2.019   .     S
N149   H40     1.029   1_655 S
N149   N42     1.276   1_655 S
N150   Zn161   2.019   .     S
O151   Zn161   1.954   .     S
O153   Zn162   1.954   .     S
O154   Zn162   1.974   .     S
O155   Zn161   1.974   .     S
O156   Zn161   1.991   .     S
O157   Zn162   1.991   .     S
O158   Zn162   2.013   .     S
O159   Zn161   2.013   .     S
C163   O208    1.285   .     A
C163   C182    1.399   .     S
C163   O205    1.278   .     A
C164   C166    1.390   .     A
C164   H195    1.085   .     S
C164   C175    1.388   .     A
C165   C186    1.390   .     A
C165   C167    1.390   .     A
C165   C185    1.418   .     S
C166   C168    1.390   .     A
C166   C184    1.418   .     S
C167   H196    1.086   .     S
C167   C169    1.382   .     A
C168   H197    1.086   .     S
C168   C170    1.382   .     A
C169   C171    1.413   .     A
C169   C176    1.398   .     A
C170   C177    1.398   .     A
C170   C172    1.413   .     A
C171   C173    1.417   .     A
C171   C658    1.391   1_554 S
C172   C175    1.417   .     A
C172   C657    1.391   .     S
C173   C181    1.408   .     A
C173   C186    1.388   .     A
C174   O209    1.285   .     A
C174   C183    1.399   .     S
C174   O207    1.278   .     A
C175   C180    1.408   .     A
C176   H198    1.084   .     S
C176   C666    1.395   1_554 S
C177   H199    1.084   .     S
C177   C667    1.395   .     S
C178   H190    1.114   .     S
C178   O214    1.411   .     S
C178   H351    1.113   .     S
C178   H353    1.109   .     S
C179   O206    1.411   .     S
C179   H192    1.114   .     S
C180   O214    1.384   .     S
C180   C662    1.395   .     S
C181   O206    1.384   .     S
C181   C663    1.395   1_554 S
C182   C345    1.334   .     S
C182   H362    1.088   .     S
C184   O210    1.286   .     A
C184   O212    1.287   .     A
C185   O213    1.287   .     A
C185   O211    1.286   .     A
C186   H187    1.085   .     S
H188   N258    1.029   .     S
H193   C341    1.109   .     S
H194   C341    1.112   .     S
H201   C345    1.088   .     S
H202   N311    1.029   1_455 S
N203   Zn216   2.019   .     S
N203   H256    1.029   .     S
N203   N258    1.276   .     S
N204   Zn215   2.019   .     S
N204   H296    1.029   1_455 S
N204   N311    1.276   1_455 S
O205   Zn215   1.954   .     S
O207   Zn216   1.954   .     S
O208   Zn216   1.974   .     S
O209   Zn215   1.974   .     S
O210   Zn215   1.991   .     S
O211   Zn216   1.991   .     S
O212   Zn216   2.013   .     S
O213   Zn215   2.013   .     S
C217   O262    1.285   .     A
C217   C236    1.399   .     S
C217   O259    1.278   .     A
C218   C220    1.390   .     A
C218   H249    1.085   .     S
C218   C229    1.388   .     A
C219   C240    1.390   .     A
C219   C221    1.390   .     A
C219   C239    1.418   .     S
C220   C222    1.390   .     A
C220   C238    1.418   .     S
C221   H250    1.086   .     S
C221   C223    1.382   .     A
C222   H251    1.086   .     S
C222   C224    1.382   .     A
C223   C225    1.413   .     A
C223   C230    1.398   .     A
C224   C231    1.398   .     A
C224   C226    1.413   .     A
C225   C227    1.417   .     A
C225   C712    1.391   1_554 S
C226   C229    1.417   .     A
C226   C711    1.391   .     S
C227   C235    1.408   .     A
C227   C240    1.388   .     A
C228   O263    1.285   .     A
C228   C237    1.399   .     S
C228   O261    1.278   .     A
C229   C234    1.408   .     A
C230   H252    1.084   .     S
C230   C720    1.395   1_554 S
C231   H253    1.084   .     S
C231   C721    1.395   .     S
C232   H244    1.114   .     S
C232   O268    1.411   .     S
C232   H405    1.113   .     S
C232   H407    1.109   .     S
C233   O260    1.411   .     S
C233   H246    1.114   .     S
C234   O268    1.384   .     S
C234   C716    1.395   .     S
C235   O260    1.384   .     S
C235   C717    1.395   1_554 S
C236   C399    1.334   .     S
C236   H416    1.088   .     S
C238   O264    1.286   .     A
C238   O266    1.287   .     A
C239   O267    1.287   .     A
C239   O265    1.286   .     A
C240   H241    1.085   .     S
H242   N312    1.029   .     S
H247   C395    1.109   .     S
H248   C395    1.112   .     S
H255   C399    1.088   .     S
N257   Zn270   2.019   .     S
N257   H310    1.029   .     S
N257   N312    1.276   .     S
N258   Zn269   2.019   .     S
O259   Zn269   1.954   .     S
O261   Zn270   1.954   .     S
O262   Zn270   1.974   .     S
O263   Zn269   1.974   .     S
O264   Zn269   1.991   .     S
O265   Zn270   1.991   .     S
O266   Zn270   2.013   .     S
O267   Zn269   2.013   .     S
C271   O316    1.285   .     A
C271   C290    1.399   .     S
C271   O313    1.278   .     A
C272   C274    1.390   .     A
C272   H303    1.085   .     S
C272   C283    1.388   .     A
C273   C294    1.390   .     A
C273   C275    1.390   .     A
C273   C293    1.418   .     S
C274   C276    1.390   .     A
C274   C292    1.418   .     S
C275   H304    1.086   .     S
C275   C277    1.382   .     A
C276   H305    1.086   .     S
C276   C278    1.382   .     A
C277   C279    1.413   .     A
C277   C284    1.398   .     A
C278   C285    1.398   .     A
C278   C280    1.413   .     A
C279   C281    1.417   .     A
C279   C766    1.391   1_554 S
C280   C283    1.417   .     A
C280   C765    1.391   .     S
C281   C289    1.408   .     A
C281   C294    1.388   .     A
C282   O317    1.285   .     A
C282   C291    1.399   .     S
C282   O315    1.278   .     A
C283   C288    1.408   .     A
C284   H306    1.084   .     S
C284   C774    1.395   1_554 S
C285   H307    1.084   .     S
C285   C775    1.395   .     S
C286   H298    1.114   .     S
C286   O322    1.411   .     S
C286   H459    1.113   .     S
C286   H461    1.109   .     S
C287   O314    1.411   .     S
C287   H300    1.114   .     S
C288   O322    1.384   .     S
C288   C770    1.395   .     S
C289   O314    1.384   .     S
C289   C771    1.395   1_554 S
C290   C453    1.334   .     S
C290   H470    1.088   .     S
C292   O318    1.286   .     A
C292   O320    1.287   .     A
C293   O321    1.287   .     A
C293   O319    1.286   .     A
C294   H295    1.085   .     S
H296   N204    1.029   1_655 S
H301   C449    1.109   .     S
H302   C449    1.112   .     S
H309   C453    1.088   .     S
N311   Zn324   2.019   .     S
N311   H202    1.029   1_655 S
N311   N204    1.276   1_655 S
N312   Zn323   2.019   .     S
O313   Zn323   1.954   .     S
O315   Zn324   1.954   .     S
O316   Zn324   1.974   .     S
O317   Zn323   1.974   .     S
O318   Zn323   1.991   .     S
O319   Zn324   1.991   .     S
O320   Zn324   2.013   .     S
O321   Zn323   2.013   .     S
C325   O370    1.285   .     A
C325   C344    1.399   .     S
C325   O367    1.278   .     A
C326   C328    1.390   .     A
C326   H357    1.085   .     S
C326   C337    1.388   .     A
C327   C348    1.390   .     A
C327   C329    1.390   .     A
C327   C347    1.418   .     S
C328   C330    1.390   .     A
C328   C346    1.418   .     S
C329   H358    1.086   .     S
C329   C331    1.382   .     A
C330   H359    1.086   .     S
C330   C332    1.382   .     A
C331   C333    1.413   .     A
C331   C338    1.398   .     A
C332   C339    1.398   .     A
C332   C334    1.413   .     A
C333   C335    1.417   .     A
C333   C820    1.391   1_554 S
C334   C337    1.417   .     A
C334   C819    1.391   .     S
C335   C343    1.408   .     A
C335   C348    1.388   .     A
C336   O371    1.285   .     A
C336   C345    1.399   .     S
C336   O369    1.278   .     A
C337   C342    1.408   .     A
C338   H360    1.084   .     S
C338   C828    1.395   1_554 S
C339   H361    1.084   .     S
C339   C829    1.395   .     S
C340   H352    1.114   .     S
C340   O376    1.411   .     S
C340   H27     1.113   1_565 S
C340   H29     1.109   1_565 S
C341   O368    1.411   .     S
C341   H354    1.114   .     S
C342   O376    1.384   .     S
C342   C824    1.395   .     S
C343   O368    1.384   .     S
C343   C825    1.395   1_554 S
C344   C21     1.334   1_565 S
C344   H38     1.088   1_565 S
C346   O372    1.286   .     A
C346   O374    1.287   .     A
C347   O375    1.287   .     A
C347   O373    1.286   .     A
C348   H349    1.085   .     S
H350   N420    1.029   .     S
H355   C17     1.109   1_565 S
H356   C17     1.112   1_565 S
H363   C21     1.088   1_565 S
H364   N473    1.029   1_455 S
N365   Zn378   2.019   .     S
N365   H418    1.029   .     S
N365   N420    1.276   .     S
N366   Zn377   2.019   .     S
N366   H458    1.029   1_455 S
N366   N473    1.276   1_455 S
O367   Zn377   1.954   .     S
O369   Zn378   1.954   .     S
O370   Zn378   1.974   .     S
O371   Zn377   1.974   .     S
O372   Zn377   1.991   .     S
O373   Zn378   1.991   .     S
O374   Zn378   2.013   .     S
O375   Zn377   2.013   .     S
C379   O424    1.285   .     A
C379   C398    1.399   .     S
C379   O421    1.278   .     A
C380   C382    1.390   .     A
C380   H411    1.085   .     S
C380   C391    1.388   .     A
C381   C402    1.390   .     A
C381   C383    1.390   .     A
C381   C401    1.418   .     S
C382   C384    1.390   .     A
C382   C400    1.418   .     S
C383   H412    1.086   .     S
C383   C385    1.382   .     A
C384   H413    1.086   .     S
C384   C386    1.382   .     A
C385   C387    1.413   .     A
C385   C392    1.398   .     A
C386   C393    1.398   .     A
C386   C388    1.413   .     A
C387   C389    1.417   .     A
C387   C874    1.391   1_554 S
C388   C391    1.417   .     A
C388   C873    1.391   .     S
C389   C397    1.408   .     A
C389   C402    1.388   .     A
C390   O425    1.285   .     A
C390   C399    1.399   .     S
C390   O423    1.278   .     A
C391   C396    1.408   .     A
C392   H414    1.084   .     S
C392   C882    1.395   1_554 S
C393   H415    1.084   .     S
C393   C883    1.395   .     S
C394   H406    1.114   .     S
C394   O430    1.411   .     S
C394   H81     1.113   1_565 S
C394   H83     1.109   1_565 S
C395   O422    1.411   .     S
C395   H408    1.114   .     S
C396   O430    1.384   .     S
C396   C878    1.395   .     S
C397   O422    1.384   .     S
C397   C879    1.395   1_554 S
C398   C75     1.334   1_565 S
C398   H92     1.088   1_565 S
C400   O426    1.286   .     A
C400   O428    1.287   .     A
C401   O429    1.287   .     A
C401   O427    1.286   .     A
C402   H403    1.085   .     S
H404   N474    1.029   .     S
H409   C71     1.109   1_565 S
H410   C71     1.112   1_565 S
H417   C75     1.088   1_565 S
N419   Zn432   2.019   .     S
N419   H472    1.029   .     S
N419   N474    1.276   .     S
N420   Zn431   2.019   .     S
O421   Zn431   1.954   .     S
O423   Zn432   1.954   .     S
O424   Zn432   1.974   .     S
O425   Zn431   1.974   .     S
O426   Zn431   1.991   .     S
O427   Zn432   1.991   .     S
O428   Zn432   2.013   .     S
O429   Zn431   2.013   .     S
C433   O478    1.285   .     A
C433   C452    1.399   .     S
C433   O475    1.278   .     A
C434   C436    1.390   .     A
C434   H465    1.085   .     S
C434   C445    1.388   .     A
C435   C456    1.390   .     A
C435   C437    1.390   .     A
C435   C455    1.418   .     S
C436   C438    1.390   .     A
C436   C454    1.418   .     S
C437   H466    1.086   .     S
C437   C439    1.382   .     A
C438   H467    1.086   .     S
C438   C440    1.382   .     A
C439   C441    1.413   .     A
C439   C446    1.398   .     A
C440   C447    1.398   .     A
C440   C442    1.413   .     A
C441   C443    1.417   .     A
C441   C928    1.391   1_554 S
C442   C445    1.417   .     A
C442   C927    1.391   .     S
C443   C451    1.408   .     A
C443   C456    1.388   .     A
C444   O479    1.285   .     A
C444   C453    1.399   .     S
C444   O477    1.278   .     A
C445   C450    1.408   .     A
C446   H468    1.084   .     S
C446   C936    1.395   1_554 S
C447   H469    1.084   .     S
C447   C937    1.395   .     S
C448   H460    1.114   .     S
C448   O484    1.411   .     S
C448   H135    1.113   1_565 S
C448   H137    1.109   1_565 S
C449   O476    1.411   .     S
C449   H462    1.114   .     S
C450   O484    1.384   .     S
C450   C932    1.395   .     S
C451   O476    1.384   .     S
C451   C933    1.395   1_554 S
C452   C129    1.334   1_565 S
C452   H146    1.088   1_565 S
C454   O480    1.286   .     A
C454   O482    1.287   .     A
C455   O483    1.287   .     A
C455   O481    1.286   .     A
C456   H457    1.085   .     S
H458   N366    1.029   1_655 S
H463   C125    1.109   1_565 S
H464   C125    1.112   1_565 S
H471   C129    1.088   1_565 S
N473   Zn486   2.019   .     S
N473   H364    1.029   1_655 S
N473   N366    1.276   1_655 S
N474   Zn485   2.019   .     S
O475   Zn485   1.954   .     S
O477   Zn486   1.954   .     S
O478   Zn486   1.974   .     S
O479   Zn485   1.974   .     S
O480   Zn485   1.991   .     S
O481   Zn486   1.991   .     S
O482   Zn486   2.013   .     S
O483   Zn485   2.013   .     S
C487   O532    1.285   .     A
C487   C506    1.399   .     S
C487   O529    1.278   .     A
C488   C490    1.390   .     A
C488   H519    1.085   .     S
C488   C499    1.388   .     A
C489   C510    1.390   .     A
C489   C491    1.390   .     A
C489   C509    1.418   .     S
C490   C492    1.390   .     A
C490   C508    1.418   .     S
C491   H520    1.086   .     S
C491   C493    1.382   .     A
C492   H521    1.086   .     S
C492   C494    1.382   .     A
C493   C495    1.413   .     A
C493   C500    1.398   .     A
C494   C501    1.398   .     A
C494   C496    1.413   .     A
C495   C497    1.417   .     A
C496   C499    1.417   .     A
C496   C9      1.391   1_556 S
C497   C505    1.408   .     A
C497   C510    1.388   .     A
C498   O533    1.285   .     A
C498   C507    1.399   .     S
C498   O531    1.278   .     A
C499   C504    1.408   .     A
C500   H522    1.084   .     S
C501   H523    1.084   .     S
C501   C19     1.395   1_556 S
C502   H514    1.114   .     S
C502   O538    1.411   .     S
C502   H675    1.113   .     S
C502   H677    1.109   .     S
C503   O530    1.411   .     S
C503   H516    1.114   .     S
C503   H841    1.109   1_545 S
C503   H842    1.112   1_545 S
C504   O538    1.384   .     S
C504   C14     1.395   1_556 S
C505   O530    1.384   .     S
C506   C669    1.334   .     S
C506   H686    1.088   .     S
C507   C830    1.334   1_545 S
C507   H849    1.088   1_545 S
C508   O534    1.286   .     A
C508   O536    1.287   .     A
C509   O537    1.287   .     A
C509   O535    1.286   .     A
C510   H511    1.085   .     S
H512   N582    1.029   .     S
H513   C826    1.113   1_545 S
H515   C826    1.109   1_545 S
H517   C665    1.109   .     S
H518   C665    1.112   .     S
H524   C830    1.088   1_545 S
H525   C669    1.088   .     S
H526   N635    1.029   1_455 S
N527   Zn540   2.019   .     S
N527   H580    1.029   .     S
N527   N582    1.276   .     S
N528   Zn539   2.019   .     S
N528   H620    1.029   1_455 S
N528   N635    1.276   1_455 S
O529   Zn539   1.954   .     S
O531   Zn540   1.954   .     S
O532   Zn540   1.974   .     S
O533   Zn539   1.974   .     S
O534   Zn539   1.991   .     S
O535   Zn540   1.991   .     S
O536   Zn540   2.013   .     S
O537   Zn539   2.013   .     S
C541   O586    1.285   .     A
C541   C560    1.399   .     S
C541   O583    1.278   .     A
C542   C544    1.390   .     A
C542   H573    1.085   .     S
C542   C553    1.388   .     A
C543   C564    1.390   .     A
C543   C545    1.390   .     A
C543   C563    1.418   .     S
C544   C546    1.390   .     A
C544   C562    1.418   .     S
C545   H574    1.086   .     S
C545   C547    1.382   .     A
C546   H575    1.086   .     S
C546   C548    1.382   .     A
C547   C549    1.413   .     A
C547   C554    1.398   .     A
C548   C555    1.398   .     A
C548   C550    1.413   .     A
C549   C551    1.417   .     A
C550   C553    1.417   .     A
C550   C63     1.391   1_556 S
C551   C559    1.408   .     A
C551   C564    1.388   .     A
C552   O587    1.285   .     A
C552   C561    1.399   .     S
C552   O585    1.278   .     A
C553   C558    1.408   .     A
C554   H576    1.084   .     S
C555   H577    1.084   .     S
C555   C73     1.395   1_556 S
C556   H568    1.114   .     S
C556   O592    1.411   .     S
C556   H729    1.113   .     S
C556   H731    1.109   .     S
C557   O584    1.411   .     S
C557   H570    1.114   .     S
C557   H895    1.109   1_545 S
C557   H896    1.112   1_545 S
C558   O592    1.384   .     S
C558   C68     1.395   1_556 S
C559   O584    1.384   .     S
C560   C723    1.334   .     S
C560   H740    1.088   .     S
C561   C884    1.334   1_545 S
C561   H903    1.088   1_545 S
C562   O588    1.286   .     A
C562   O590    1.287   .     A
C563   O591    1.287   .     A
C563   O589    1.286   .     A
C564   H565    1.085   .     S
H566   N636    1.029   .     S
H567   C880    1.113   1_545 S
H569   C880    1.109   1_545 S
H571   C719    1.109   .     S
H572   C719    1.112   .     S
H578   C884    1.088   1_545 S
H579   C723    1.088   .     S
N581   Zn594   2.019   .     S
N581   H634    1.029   .     S
N581   N636    1.276   .     S
N582   Zn593   2.019   .     S
O583   Zn593   1.954   .     S
O585   Zn594   1.954   .     S
O586   Zn594   1.974   .     S
O587   Zn593   1.974   .     S
O588   Zn593   1.991   .     S
O589   Zn594   1.991   .     S
O590   Zn594   2.013   .     S
O591   Zn593   2.013   .     S
C595   O640    1.285   .     A
C595   C614    1.399   .     S
C595   O637    1.278   .     A
C596   C598    1.390   .     A
C596   H627    1.085   .     S
C596   C607    1.388   .     A
C597   C618    1.390   .     A
C597   C599    1.390   .     A
C597   C617    1.418   .     S
C598   C600    1.390   .     A
C598   C616    1.418   .     S
C599   H628    1.086   .     S
C599   C601    1.382   .     A
C600   H629    1.086   .     S
C600   C602    1.382   .     A
C601   C603    1.413   .     A
C601   C608    1.398   .     A
C602   C609    1.398   .     A
C602   C604    1.413   .     A
C603   C605    1.417   .     A
C604   C607    1.417   .     A
C604   C117    1.391   1_556 S
C605   C613    1.408   .     A
C605   C618    1.388   .     A
C606   O641    1.285   .     A
C606   C615    1.399   .     S
C606   O639    1.278   .     A
C607   C612    1.408   .     A
C608   H630    1.084   .     S
C609   H631    1.084   .     S
C609   C127    1.395   1_556 S
C610   H622    1.114   .     S
C610   O646    1.411   .     S
C610   H783    1.113   .     S
C610   H785    1.109   .     S
C611   O638    1.411   .     S
C611   H624    1.114   .     S
C611   H949    1.109   1_545 S
C611   H950    1.112   1_545 S
C612   O646    1.384   .     S
C612   C122    1.395   1_556 S
C613   O638    1.384   .     S
C614   C777    1.334   .     S
C614   H794    1.088   .     S
C615   C938    1.334   1_545 S
C615   H957    1.088   1_545 S
C616   O642    1.286   .     A
C616   O644    1.287   .     A
C617   O645    1.287   .     A
C617   O643    1.286   .     A
C618   H619    1.085   .     S
H620   N528    1.029   1_655 S
H621   C934    1.113   1_545 S
H623   C934    1.109   1_545 S
H625   C773    1.109   .     S
H626   C773    1.112   .     S
H632   C938    1.088   1_545 S
H633   C777    1.088   .     S
N635   Zn648   2.019   .     S
N635   H526    1.029   1_655 S
N635   N528    1.276   1_655 S
N636   Zn647   2.019   .     S
O637   Zn647   1.954   .     S
O639   Zn648   1.954   .     S
O640   Zn648   1.974   .     S
O641   Zn647   1.974   .     S
O642   Zn647   1.991   .     S
O643   Zn648   1.991   .     S
O644   Zn648   2.013   .     S
O645   Zn647   2.013   .     S
C649   O694    1.285   .     A
C649   C668    1.399   .     S
C649   O691    1.278   .     A
C650   C652    1.390   .     A
C650   H681    1.085   .     S
C650   C661    1.388   .     A
C651   C672    1.390   .     A
C651   C653    1.390   .     A
C651   C671    1.418   .     S
C652   C654    1.390   .     A
C652   C670    1.418   .     S
C653   H682    1.086   .     S
C653   C655    1.382   .     A
C654   H683    1.086   .     S
C654   C656    1.382   .     A
C655   C657    1.413   .     A
C655   C662    1.398   .     A
C656   C663    1.398   .     A
C656   C658    1.413   .     A
C657   C659    1.417   .     A
C658   C661    1.417   .     A
C658   C171    1.391   1_556 S
C659   C667    1.408   .     A
C659   C672    1.388   .     A
C660   O695    1.285   .     A
C660   C669    1.399   .     S
C660   O693    1.278   .     A
C661   C666    1.408   .     A
C662   H684    1.084   .     S
C663   H685    1.084   .     S
C663   C181    1.395   1_556 S
C664   H676    1.114   .     S
C664   O700    1.411   .     S
C664   H837    1.113   .     S
C664   H839    1.109   .     S
C665   O692    1.411   .     S
C665   H678    1.114   .     S
C666   O700    1.384   .     S
C666   C176    1.395   1_556 S
C667   O692    1.384   .     S
C668   C831    1.334   .     S
C668   H848    1.088   .     S
C670   O696    1.286   .     A
C670   O698    1.287   .     A
C671   O699    1.287   .     A
C671   O697    1.286   .     A
C672   H673    1.085   .     S
H674   N744    1.029   .     S
H679   C827    1.109   .     S
H680   C827    1.112   .     S
H687   C831    1.088   .     S
H688   N797    1.029   1_455 S
N689   Zn702   2.019   .     S
N689   H742    1.029   .     S
N689   N744    1.276   .     S
N690   Zn701   2.019   .     S
N690   H782    1.029   1_455 S
N690   N797    1.276   1_455 S
O691   Zn701   1.954   .     S
O693   Zn702   1.954   .     S
O694   Zn702   1.974   .     S
O695   Zn701   1.974   .     S
O696   Zn701   1.991   .     S
O697   Zn702   1.991   .     S
O698   Zn702   2.013   .     S
O699   Zn701   2.013   .     S
C703   O748    1.285   .     A
C703   C722    1.399   .     S
C703   O745    1.278   .     A
C704   C706    1.390   .     A
C704   H735    1.085   .     S
C704   C715    1.388   .     A
C705   C726    1.390   .     A
C705   C707    1.390   .     A
C705   C725    1.418   .     S
C706   C708    1.390   .     A
C706   C724    1.418   .     S
C707   H736    1.086   .     S
C707   C709    1.382   .     A
C708   H737    1.086   .     S
C708   C710    1.382   .     A
C709   C711    1.413   .     A
C709   C716    1.398   .     A
C710   C717    1.398   .     A
C710   C712    1.413   .     A
C711   C713    1.417   .     A
C712   C715    1.417   .     A
C712   C225    1.391   1_556 S
C713   C721    1.408   .     A
C713   C726    1.388   .     A
C714   O749    1.285   .     A
C714   C723    1.399   .     S
C714   O747    1.278   .     A
C715   C720    1.408   .     A
C716   H738    1.084   .     S
C717   H739    1.084   .     S
C717   C235    1.395   1_556 S
C718   H730    1.114   .     S
C718   O754    1.411   .     S
C718   H891    1.113   .     S
C718   H893    1.109   .     S
C719   O746    1.411   .     S
C719   H732    1.114   .     S
C720   O754    1.384   .     S
C720   C230    1.395   1_556 S
C721   O746    1.384   .     S
C722   C885    1.334   .     S
C722   H902    1.088   .     S
C724   O750    1.286   .     A
C724   O752    1.287   .     A
C725   O753    1.287   .     A
C725   O751    1.286   .     A
C726   H727    1.085   .     S
H728   N798    1.029   .     S
H733   C881    1.109   .     S
H734   C881    1.112   .     S
H741   C885    1.088   .     S
N743   Zn756   2.019   .     S
N743   H796    1.029   .     S
N743   N798    1.276   .     S
N744   Zn755   2.019   .     S
O745   Zn755   1.954   .     S
O747   Zn756   1.954   .     S
O748   Zn756   1.974   .     S
O749   Zn755   1.974   .     S
O750   Zn755   1.991   .     S
O751   Zn756   1.991   .     S
O752   Zn756   2.013   .     S
O753   Zn755   2.013   .     S
C757   O802    1.285   .     A
C757   C776    1.399   .     S
C757   O799    1.278   .     A
C758   C760    1.390   .     A
C758   H789    1.085   .     S
C758   C769    1.388   .     A
C759   C780    1.390   .     A
C759   C761    1.390   .     A
C759   C779    1.418   .     S
C760   C762    1.390   .     A
C760   C778    1.418   .     S
C761   H790    1.086   .     S
C761   C763    1.382   .     A
C762   H791    1.086   .     S
C762   C764    1.382   .     A
C763   C765    1.413   .     A
C763   C770    1.398   .     A
C764   C771    1.398   .     A
C764   C766    1.413   .     A
C765   C767    1.417   .     A
C766   C769    1.417   .     A
C766   C279    1.391   1_556 S
C767   C775    1.408   .     A
C767   C780    1.388   .     A
C768   O803    1.285   .     A
C768   C777    1.399   .     S
C768   O801    1.278   .     A
C769   C774    1.408   .     A
C770   H792    1.084   .     S
C771   H793    1.084   .     S
C771   C289    1.395   1_556 S
C772   H784    1.114   .     S
C772   O808    1.411   .     S
C772   H945    1.113   .     S
C772   H947    1.109   .     S
C773   O800    1.411   .     S
C773   H786    1.114   .     S
C774   O808    1.384   .     S
C774   C284    1.395   1_556 S
C775   O800    1.384   .     S
C776   C939    1.334   .     S
C776   H956    1.088   .     S
C778   O804    1.286   .     A
C778   O806    1.287   .     A
C779   O807    1.287   .     A
C779   O805    1.286   .     A
C780   H781    1.085   .     S
H782   N690    1.029   1_655 S
H787   C935    1.109   .     S
H788   C935    1.112   .     S
H795   C939    1.088   .     S
N797   Zn810   2.019   .     S
N797   H688    1.029   1_655 S
N797   N690    1.276   1_655 S
N798   Zn809   2.019   .     S
O799   Zn809   1.954   .     S
O801   Zn810   1.954   .     S
O802   Zn810   1.974   .     S
O803   Zn809   1.974   .     S
O804   Zn809   1.991   .     S
O805   Zn810   1.991   .     S
O806   Zn810   2.013   .     S
O807   Zn809   2.013   .     S
C811   O856    1.285   .     A
C811   C830    1.399   .     S
C811   O853    1.278   .     A
C812   C814    1.390   .     A
C812   H843    1.085   .     S
C812   C823    1.388   .     A
C813   C834    1.390   .     A
C813   C815    1.390   .     A
C813   C833    1.418   .     S
C814   C816    1.390   .     A
C814   C832    1.418   .     S
C815   H844    1.086   .     S
C815   C817    1.382   .     A
C816   H845    1.086   .     S
C816   C818    1.382   .     A
C817   C819    1.413   .     A
C817   C824    1.398   .     A
C818   C825    1.398   .     A
C818   C820    1.413   .     A
C819   C821    1.417   .     A
C820   C823    1.417   .     A
C820   C333    1.391   1_556 S
C821   C829    1.408   .     A
C821   C834    1.388   .     A
C822   O857    1.285   .     A
C822   C831    1.399   .     S
C822   O855    1.278   .     A
C823   C828    1.408   .     A
C824   H846    1.084   .     S
C825   H847    1.084   .     S
C825   C343    1.395   1_556 S
C826   H838    1.114   .     S
C826   O862    1.411   .     S
C826   H513    1.113   1_565 S
C826   H515    1.109   1_565 S
C827   O854    1.411   .     S
C827   H840    1.114   .     S
C828   O862    1.384   .     S
C828   C338    1.395   1_556 S
C829   O854    1.384   .     S
C830   C507    1.334   1_565 S
C830   H524    1.088   1_565 S
C832   O858    1.286   .     A
C832   O860    1.287   .     A
C833   O861    1.287   .     A
C833   O859    1.286   .     A
C834   H835    1.085   .     S
H836   N906    1.029   .     S
H841   C503    1.109   1_565 S
H842   C503    1.112   1_565 S
H849   C507    1.088   1_565 S
H850   N959    1.029   1_455 S
N851   Zn864   2.019   .     S
N851   H904    1.029   .     S
N851   N906    1.276   .     S
N852   Zn863   2.019   .     S
N852   H944    1.029   1_455 S
N852   N959    1.276   1_455 S
O853   Zn863   1.954   .     S
O855   Zn864   1.954   .     S
O856   Zn864   1.974   .     S
O857   Zn863   1.974   .     S
O858   Zn863   1.991   .     S
O859   Zn864   1.991   .     S
O860   Zn864   2.013   .     S
O861   Zn863   2.013   .     S
C865   O910    1.285   .     A
C865   C884    1.399   .     S
C865   O907    1.278   .     A
C866   C868    1.390   .     A
C866   H897    1.085   .     S
C866   C877    1.388   .     A
C867   C888    1.390   .     A
C867   C869    1.390   .     A
C867   C887    1.418   .     S
C868   C870    1.390   .     A
C868   C886    1.418   .     S
C869   H898    1.086   .     S
C869   C871    1.382   .     A
C870   H899    1.086   .     S
C870   C872    1.382   .     A
C871   C873    1.413   .     A
C871   C878    1.398   .     A
C872   C879    1.398   .     A
C872   C874    1.413   .     A
C873   C875    1.417   .     A
C874   C877    1.417   .     A
C874   C387    1.391   1_556 S
C875   C883    1.408   .     A
C875   C888    1.388   .     A
C876   O911    1.285   .     A
C876   C885    1.399   .     S
C876   O909    1.278   .     A
C877   C882    1.408   .     A
C878   H900    1.084   .     S
C879   H901    1.084   .     S
C879   C397    1.395   1_556 S
C880   H892    1.114   .     S
C880   O916    1.411   .     S
C880   H567    1.113   1_565 S
C880   H569    1.109   1_565 S
C881   O908    1.411   .     S
C881   H894    1.114   .     S
C882   O916    1.384   .     S
C882   C392    1.395   1_556 S
C883   O908    1.384   .     S
C884   C561    1.334   1_565 S
C884   H578    1.088   1_565 S
C886   O912    1.286   .     A
C886   O914    1.287   .     A
C887   O915    1.287   .     A
C887   O913    1.286   .     A
C888   H889    1.085   .     S
H890   N960    1.029   .     S
H895   C557    1.109   1_565 S
H896   C557    1.112   1_565 S
H903   C561    1.088   1_565 S
N905   Zn918   2.019   .     S
N905   H958    1.029   .     S
N905   N960    1.276   .     S
N906   Zn917   2.019   .     S
O907   Zn917   1.954   .     S
O909   Zn918   1.954   .     S
O910   Zn918   1.974   .     S
O911   Zn917   1.974   .     S
O912   Zn917   1.991   .     S
O913   Zn918   1.991   .     S
O914   Zn918   2.013   .     S
O915   Zn917   2.013   .     S
C919   O964    1.285   .     A
C919   C938    1.399   .     S
C919   O961    1.278   .     A
C920   C922    1.390   .     A
C920   H951    1.085   .     S
C920   C931    1.388   .     A
C921   C942    1.390   .     A
C921   C923    1.390   .     A
C921   C941    1.418   .     S
C922   C924    1.390   .     A
C922   C940    1.418   .     S
C923   H952    1.086   .     S
C923   C925    1.382   .     A
C924   H953    1.086   .     S
C924   C926    1.382   .     A
C925   C927    1.413   .     A
C925   C932    1.398   .     A
C926   C933    1.398   .     A
C926   C928    1.413   .     A
C927   C929    1.417   .     A
C928   C931    1.417   .     A
C928   C441    1.391   1_556 S
C929   C937    1.408   .     A
C929   C942    1.388   .     A
C930   O965    1.285   .     A
C930   C939    1.399   .     S
C930   O963    1.278   .     A
C931   C936    1.408   .     A
C932   H954    1.084   .     S
C933   H955    1.084   .     S
C933   C451    1.395   1_556 S
C934   H946    1.114   .     S
C934   O970    1.411   .     S
C934   H621    1.113   1_565 S
C934   H623    1.109   1_565 S
C935   O962    1.411   .     S
C935   H948    1.114   .     S
C936   O970    1.384   .     S
C936   C446    1.395   1_556 S
C937   O962    1.384   .     S
C938   C615    1.334   1_565 S
C938   H632    1.088   1_565 S
C940   O966    1.286   .     A
C940   O968    1.287   .     A
C941   O969    1.287   .     A
C941   O967    1.286   .     A
C942   H943    1.085   .     S
H944   N852    1.029   1_655 S
H949   C611    1.109   1_565 S
H950   C611    1.112   1_565 S
H957   C615    1.088   1_565 S
N959   Zn972   2.019   .     S
N959   H850    1.029   1_655 S
N959   N852    1.276   1_655 S
N960   Zn971   2.019   .     S
O961   Zn971   1.954   .     S
O963   Zn972   1.954   .     S
O964   Zn972   1.974   .     S
O965   Zn971   1.974   .     S
O966   Zn971   1.991   .     S
O967   Zn972   1.991   .     S
O968   Zn972   2.013   .     S
O969   Zn971   2.013   .     S
