data_str_m3_o2_o5_pcu_sym.22
_audit_creation_date              2020-01-03
_audit_creation_method            'Materials Studio'
_symmetry_space_group_name_H-M    'P1'
_symmetry_Int_Tables_number       1
_symmetry_cell_setting            triclinic
loop_
_symmetry_equiv_pos_as_xyz
  x,y,z
_cell_length_a                    30.0067
_cell_length_b                    28.4330
_cell_length_c                    26.6881
_cell_angle_alpha                 89.9248
_cell_angle_beta                  89.9258
_cell_angle_gamma                 90.0260
loop_
_atom_site_label
_atom_site_type_symbol
_atom_site_fract_x
_atom_site_fract_y
_atom_site_fract_z
_atom_site_U_iso_or_equiv
_atom_site_adp_type
_atom_site_occupancy
C1     C     0.16407   0.24998   0.16571   0.00000  Uiso   1.00
C2     C     0.23237   0.44649   0.12509   0.00000  Uiso   1.00
C3     C     0.24956   0.25002   0.07289   0.00000  Uiso   1.00
C4     C     0.25040   0.24998   0.26044   0.00000  Uiso   1.00
C5     C     0.24708   0.02691   0.16933   0.00000  Uiso   1.00
C6     C     0.25289   0.47309   0.16401   0.00000  Uiso   1.00
C7     C     0.24979   0.25003   0.02180   0.00000  Uiso   1.00
C8     C     0.25015   0.24997   0.31153   0.00000  Uiso   1.00
C9     C     0.04593   0.26070   0.12401   0.00000  Uiso   1.00
C10    C     0.45199   0.22701   0.12571   0.00000  Uiso   1.00
C11    C     0.45414   0.26063   0.20911   0.00000  Uiso   1.00
C12    C     0.33594   0.25000   0.16758   0.00000  Uiso   1.00
C13    C     0.04795   0.22668   0.20732   0.00000  Uiso   1.00
C14    C     0.09214   0.26402   0.12276   0.00000  Uiso   1.00
C15    C     0.40602   0.23146   0.12449   0.00000  Uiso   1.00
C16    C     0.40793   0.26395   0.21044   0.00000  Uiso   1.00
C17    C     0.09393   0.23108   0.20861   0.00000  Uiso   1.00
C18    C     0.11617   0.24960   0.16600   0.00000  Uiso   1.00
C19    C     0.38384   0.24969   0.16721   0.00000  Uiso   1.00
C20    C     0.02413   0.24225   0.16580   0.00000  Uiso   1.00
C21    C     0.47587   0.24231   0.16726   0.00000  Uiso   1.00
C22    C     0.11309   0.28164   0.07532   0.00000  Uiso   1.00
C23    C     0.22156   0.10279   0.13603   0.00000  Uiso   1.00
C24    C     0.38281   0.21809   0.07733   0.00000  Uiso   1.00
C25    C     0.38706   0.28144   0.25794   0.00000  Uiso   1.00
C26    C     0.11708   0.21735   0.25572   0.00000  Uiso   1.00
C27    C     0.27845   0.39721   0.19729   0.00000  Uiso   1.00
C28    C     0.27129   0.10268   0.20390   0.00000  Uiso   1.00
C29    C     0.22867   0.39732   0.12946   0.00000  Uiso   1.00
C30    C     0.21713   0.05359   0.13911   0.00000  Uiso   1.00
C31    C     0.28285   0.44641   0.19422   0.00000  Uiso   1.00
C32    C     0.26758   0.05350   0.20827   0.00000  Uiso   1.00
Cl33   Cl    0.16454   0.03159   0.12114   0.00000  Uiso   1.00
Cl34   Cl    0.33542   0.46845   0.21224   0.00000  Uiso   1.00
Cl35   Cl    0.27255   0.03151   0.26989   0.00000  Uiso   1.00
Cl36   Cl    0.22734   0.46848   0.06347   0.00000  Uiso   1.00
H37    H     0.19922   0.12284   0.11243   0.00000  Uiso   1.00
H38    H     0.38274   0.17803   0.01493   0.00000  Uiso   1.00
H39    H     0.39586   0.29993   0.33039   0.00000  Uiso   1.00
H40    H     0.11705   0.17681   0.31787   0.00000  Uiso   1.00
H41    H     0.30080   0.37718   0.22088   0.00000  Uiso   1.00
H42    H     0.28771   0.12260   0.23306   0.00000  Uiso   1.00
H43    H     0.21222   0.37739   0.10032   0.00000  Uiso   1.00
H44    H     0.02641   0.27332   0.09262   0.00000  Uiso   1.00
H45    H     0.46960   0.21299   0.09352   0.00000  Uiso   1.00
H46    H     0.47372   0.27308   0.24050   0.00000  Uiso   1.00
H47    H     0.03029   0.21249   0.23943   0.00000  Uiso   1.00
H48    H     0.10458   0.29952   0.00263   0.00000  Uiso   1.00
N49    N     0.25000   0.12623   0.16667   0.00000  Uiso   1.00
N50    N     0.25000   0.37376   0.16667   0.00000  Uiso   1.00
O51    O     0.18453   0.28974   0.16667   0.00000  Uiso   1.00
O52    O     0.08699   0.28704   0.03227   0.00000  Uiso   1.00
O53    O     0.34881   0.23839   0.06451   0.00000  Uiso   1.00
O54    O     0.40103   0.18339   0.04634   0.00000  Uiso   1.00
O55    O     0.34735   0.29063   0.26024   0.00000  Uiso   1.00
O56    O     0.41344   0.28764   0.30069   0.00000  Uiso   1.00
O57    O     0.15111   0.23750   0.26868   0.00000  Uiso   1.00
O58    O     0.09879   0.18244   0.28648   0.00000  Uiso   1.00
O59    O     0.31547   0.21026   0.16666   0.00000  Uiso   1.00
O60    O     0.31547   0.28974   0.16666   0.00000  Uiso   1.00
O61    O     0.18453   0.21026   0.16667   0.00000  Uiso   1.00
O62    O     0.25000   0.28973   0.09511   0.00000  Uiso   1.00
O63    O     0.25000   0.21027   0.23822   0.00000  Uiso   1.00
O64    O     0.25000   0.28973   0.23822   0.00000  Uiso   1.00
O65    O     0.25000   0.21027   0.09511   0.00000  Uiso   1.00
O66    O     0.15259   0.29167   0.07334   0.00000  Uiso   1.00
Zn67   Zn    0.25000   0.30307   0.16667   0.00000  Uiso   1.00
Zn68   Zn    0.25000   0.19693   0.16667   0.00000  Uiso   1.00
C69    C     0.66407   0.24998   0.16571   0.00000  Uiso   1.00
C70    C     0.73237   0.44649   0.12509   0.00000  Uiso   1.00
C71    C     0.74956   0.25002   0.07289   0.00000  Uiso   1.00
C72    C     0.75040   0.24998   0.26044   0.00000  Uiso   1.00
C73    C     0.74708   0.02691   0.16933   0.00000  Uiso   1.00
C74    C     0.75289   0.47309   0.16401   0.00000  Uiso   1.00
C75    C     0.74979   0.25003   0.02180   0.00000  Uiso   1.00
C76    C     0.75015   0.24997   0.31153   0.00000  Uiso   1.00
C77    C     0.54593   0.26070   0.12401   0.00000  Uiso   1.00
C78    C     0.95199   0.22701   0.12571   0.00000  Uiso   1.00
C79    C     0.95414   0.26063   0.20911   0.00000  Uiso   1.00
C80    C     0.83594   0.25000   0.16758   0.00000  Uiso   1.00
C81    C     0.54795   0.22668   0.20732   0.00000  Uiso   1.00
C82    C     0.59214   0.26402   0.12276   0.00000  Uiso   1.00
C83    C     0.90602   0.23146   0.12449   0.00000  Uiso   1.00
C84    C     0.90793   0.26395   0.21044   0.00000  Uiso   1.00
C85    C     0.59393   0.23108   0.20861   0.00000  Uiso   1.00
C86    C     0.61617   0.24960   0.16600   0.00000  Uiso   1.00
C87    C     0.88384   0.24969   0.16721   0.00000  Uiso   1.00
C88    C     0.52413   0.24225   0.16580   0.00000  Uiso   1.00
C89    C     0.97587   0.24231   0.16726   0.00000  Uiso   1.00
C90    C     0.61309   0.28164   0.07532   0.00000  Uiso   1.00
C91    C     0.72156   0.10279   0.13603   0.00000  Uiso   1.00
C92    C     0.88281   0.21809   0.07733   0.00000  Uiso   1.00
C93    C     0.88706   0.28144   0.25794   0.00000  Uiso   1.00
C94    C     0.61708   0.21735   0.25572   0.00000  Uiso   1.00
C95    C     0.77845   0.39721   0.19729   0.00000  Uiso   1.00
C96    C     0.77129   0.10268   0.20390   0.00000  Uiso   1.00
C97    C     0.72867   0.39732   0.12946   0.00000  Uiso   1.00
C98    C     0.71713   0.05359   0.13911   0.00000  Uiso   1.00
C99    C     0.78285   0.44641   0.19422   0.00000  Uiso   1.00
C100   C     0.76758   0.05350   0.20827   0.00000  Uiso   1.00
Cl101  Cl    0.66454   0.03159   0.12114   0.00000  Uiso   1.00
Cl102  Cl    0.83542   0.46845   0.21224   0.00000  Uiso   1.00
Cl103  Cl    0.77255   0.03151   0.26989   0.00000  Uiso   1.00
Cl104  Cl    0.72734   0.46848   0.06347   0.00000  Uiso   1.00
H105   H     0.69922   0.12284   0.11243   0.00000  Uiso   1.00
H106   H     0.88274   0.17803   0.01493   0.00000  Uiso   1.00
H107   H     0.89586   0.29993   0.33039   0.00000  Uiso   1.00
H108   H     0.61705   0.17681   0.31787   0.00000  Uiso   1.00
H109   H     0.80080   0.37718   0.22088   0.00000  Uiso   1.00
H110   H     0.78771   0.12260   0.23306   0.00000  Uiso   1.00
H111   H     0.71222   0.37739   0.10032   0.00000  Uiso   1.00
H112   H     0.52641   0.27332   0.09262   0.00000  Uiso   1.00
H113   H     0.96960   0.21299   0.09352   0.00000  Uiso   1.00
H114   H     0.97372   0.27308   0.24050   0.00000  Uiso   1.00
H115   H     0.53029   0.21249   0.23943   0.00000  Uiso   1.00
H116   H     0.60458   0.29952   0.00263   0.00000  Uiso   1.00
N117   N     0.75000   0.12623   0.16667   0.00000  Uiso   1.00
N118   N     0.75000   0.37376   0.16667   0.00000  Uiso   1.00
O119   O     0.68453   0.28974   0.16667   0.00000  Uiso   1.00
O120   O     0.58699   0.28704   0.03227   0.00000  Uiso   1.00
O121   O     0.84881   0.23839   0.06451   0.00000  Uiso   1.00
O122   O     0.90103   0.18339   0.04634   0.00000  Uiso   1.00
O123   O     0.84735   0.29063   0.26024   0.00000  Uiso   1.00
O124   O     0.91344   0.28764   0.30069   0.00000  Uiso   1.00
O125   O     0.65111   0.23750   0.26868   0.00000  Uiso   1.00
O126   O     0.59879   0.18244   0.28648   0.00000  Uiso   1.00
O127   O     0.81547   0.21026   0.16666   0.00000  Uiso   1.00
O128   O     0.81547   0.28974   0.16666   0.00000  Uiso   1.00
O129   O     0.68453   0.21026   0.16667   0.00000  Uiso   1.00
O130   O     0.75000   0.28973   0.09511   0.00000  Uiso   1.00
O131   O     0.75000   0.21027   0.23822   0.00000  Uiso   1.00
O132   O     0.75000   0.28973   0.23822   0.00000  Uiso   1.00
O133   O     0.75000   0.21027   0.09511   0.00000  Uiso   1.00
O134   O     0.65259   0.29167   0.07334   0.00000  Uiso   1.00
Zn135  Zn    0.75000   0.30307   0.16667   0.00000  Uiso   1.00
Zn136  Zn    0.75000   0.19693   0.16667   0.00000  Uiso   1.00
C137   C     0.16407   0.74998   0.16571   0.00000  Uiso   1.00
C138   C     0.23237   0.94649   0.12509   0.00000  Uiso   1.00
C139   C     0.24956   0.75002   0.07289   0.00000  Uiso   1.00
C140   C     0.25040   0.74998   0.26044   0.00000  Uiso   1.00
C141   C     0.24708   0.52691   0.16933   0.00000  Uiso   1.00
C142   C     0.25289   0.97309   0.16401   0.00000  Uiso   1.00
C143   C     0.24979   0.75003   0.02180   0.00000  Uiso   1.00
C144   C     0.25015   0.74997   0.31153   0.00000  Uiso   1.00
C145   C     0.04593   0.76070   0.12401   0.00000  Uiso   1.00
C146   C     0.45199   0.72701   0.12571   0.00000  Uiso   1.00
C147   C     0.45414   0.76063   0.20911   0.00000  Uiso   1.00
C148   C     0.33594   0.75000   0.16758   0.00000  Uiso   1.00
C149   C     0.04795   0.72668   0.20732   0.00000  Uiso   1.00
C150   C     0.09214   0.76402   0.12276   0.00000  Uiso   1.00
C151   C     0.40602   0.73146   0.12449   0.00000  Uiso   1.00
C152   C     0.40793   0.76395   0.21044   0.00000  Uiso   1.00
C153   C     0.09393   0.73108   0.20861   0.00000  Uiso   1.00
C154   C     0.11617   0.74960   0.16600   0.00000  Uiso   1.00
C155   C     0.38384   0.74969   0.16721   0.00000  Uiso   1.00
C156   C     0.02413   0.74225   0.16580   0.00000  Uiso   1.00
C157   C     0.47587   0.74231   0.16726   0.00000  Uiso   1.00
C158   C     0.11309   0.78164   0.07532   0.00000  Uiso   1.00
C159   C     0.22156   0.60279   0.13603   0.00000  Uiso   1.00
C160   C     0.38281   0.71809   0.07733   0.00000  Uiso   1.00
C161   C     0.38706   0.78144   0.25794   0.00000  Uiso   1.00
C162   C     0.11708   0.71735   0.25572   0.00000  Uiso   1.00
C163   C     0.27845   0.89721   0.19729   0.00000  Uiso   1.00
C164   C     0.27129   0.60268   0.20390   0.00000  Uiso   1.00
C165   C     0.22867   0.89732   0.12946   0.00000  Uiso   1.00
C166   C     0.21713   0.55359   0.13911   0.00000  Uiso   1.00
C167   C     0.28285   0.94641   0.19422   0.00000  Uiso   1.00
C168   C     0.26758   0.55350   0.20827   0.00000  Uiso   1.00
Cl169  Cl    0.16454   0.53159   0.12114   0.00000  Uiso   1.00
Cl170  Cl    0.33542   0.96845   0.21224   0.00000  Uiso   1.00
Cl171  Cl    0.27255   0.53151   0.26989   0.00000  Uiso   1.00
Cl172  Cl    0.22734   0.96848   0.06347   0.00000  Uiso   1.00
H173   H     0.19922   0.62284   0.11243   0.00000  Uiso   1.00
H174   H     0.38274   0.67803   0.01493   0.00000  Uiso   1.00
H175   H     0.39586   0.79993   0.33039   0.00000  Uiso   1.00
H176   H     0.11705   0.67681   0.31787   0.00000  Uiso   1.00
H177   H     0.30080   0.87718   0.22088   0.00000  Uiso   1.00
H178   H     0.28771   0.62260   0.23306   0.00000  Uiso   1.00
H179   H     0.21222   0.87739   0.10032   0.00000  Uiso   1.00
H180   H     0.02641   0.77332   0.09262   0.00000  Uiso   1.00
H181   H     0.46960   0.71299   0.09352   0.00000  Uiso   1.00
H182   H     0.47372   0.77308   0.24050   0.00000  Uiso   1.00
H183   H     0.03029   0.71249   0.23943   0.00000  Uiso   1.00
H184   H     0.10458   0.79952   0.00263   0.00000  Uiso   1.00
N185   N     0.25000   0.62623   0.16667   0.00000  Uiso   1.00
N186   N     0.25000   0.87376   0.16667   0.00000  Uiso   1.00
O187   O     0.18453   0.78974   0.16667   0.00000  Uiso   1.00
O188   O     0.08699   0.78704   0.03227   0.00000  Uiso   1.00
O189   O     0.34881   0.73839   0.06451   0.00000  Uiso   1.00
O190   O     0.40103   0.68339   0.04634   0.00000  Uiso   1.00
O191   O     0.34735   0.79063   0.26024   0.00000  Uiso   1.00
O192   O     0.41344   0.78764   0.30069   0.00000  Uiso   1.00
O193   O     0.15111   0.73750   0.26868   0.00000  Uiso   1.00
O194   O     0.09879   0.68244   0.28648   0.00000  Uiso   1.00
O195   O     0.31547   0.71026   0.16666   0.00000  Uiso   1.00
O196   O     0.31547   0.78974   0.16666   0.00000  Uiso   1.00
O197   O     0.18453   0.71026   0.16667   0.00000  Uiso   1.00
O198   O     0.25000   0.78973   0.09511   0.00000  Uiso   1.00
O199   O     0.25000   0.71027   0.23822   0.00000  Uiso   1.00
O200   O     0.25000   0.78973   0.23822   0.00000  Uiso   1.00
O201   O     0.25000   0.71027   0.09511   0.00000  Uiso   1.00
O202   O     0.15259   0.79167   0.07334   0.00000  Uiso   1.00
Zn203  Zn    0.25000   0.80307   0.16667   0.00000  Uiso   1.00
Zn204  Zn    0.25000   0.69693   0.16667   0.00000  Uiso   1.00
C205   C     0.66407   0.74998   0.16571   0.00000  Uiso   1.00
C206   C     0.73237   0.94649   0.12509   0.00000  Uiso   1.00
C207   C     0.74956   0.75002   0.07289   0.00000  Uiso   1.00
C208   C     0.75040   0.74998   0.26044   0.00000  Uiso   1.00
C209   C     0.74708   0.52691   0.16933   0.00000  Uiso   1.00
C210   C     0.75289   0.97309   0.16401   0.00000  Uiso   1.00
C211   C     0.74979   0.75003   0.02180   0.00000  Uiso   1.00
C212   C     0.75015   0.74997   0.31153   0.00000  Uiso   1.00
C213   C     0.54593   0.76070   0.12401   0.00000  Uiso   1.00
C214   C     0.95199   0.72701   0.12571   0.00000  Uiso   1.00
C215   C     0.95414   0.76063   0.20911   0.00000  Uiso   1.00
C216   C     0.83594   0.75000   0.16758   0.00000  Uiso   1.00
C217   C     0.54795   0.72668   0.20732   0.00000  Uiso   1.00
C218   C     0.59214   0.76402   0.12276   0.00000  Uiso   1.00
C219   C     0.90602   0.73146   0.12449   0.00000  Uiso   1.00
C220   C     0.90793   0.76395   0.21044   0.00000  Uiso   1.00
C221   C     0.59393   0.73108   0.20861   0.00000  Uiso   1.00
C222   C     0.61617   0.74960   0.16600   0.00000  Uiso   1.00
C223   C     0.88384   0.74969   0.16721   0.00000  Uiso   1.00
C224   C     0.52413   0.74225   0.16580   0.00000  Uiso   1.00
C225   C     0.97587   0.74231   0.16726   0.00000  Uiso   1.00
C226   C     0.61309   0.78164   0.07532   0.00000  Uiso   1.00
C227   C     0.72156   0.60279   0.13603   0.00000  Uiso   1.00
C228   C     0.88281   0.71809   0.07733   0.00000  Uiso   1.00
C229   C     0.88706   0.78144   0.25794   0.00000  Uiso   1.00
C230   C     0.61708   0.71735   0.25572   0.00000  Uiso   1.00
C231   C     0.77845   0.89721   0.19729   0.00000  Uiso   1.00
C232   C     0.77129   0.60268   0.20390   0.00000  Uiso   1.00
C233   C     0.72867   0.89732   0.12946   0.00000  Uiso   1.00
C234   C     0.71713   0.55359   0.13911   0.00000  Uiso   1.00
C235   C     0.78285   0.94641   0.19422   0.00000  Uiso   1.00
C236   C     0.76758   0.55350   0.20827   0.00000  Uiso   1.00
Cl237  Cl    0.66454   0.53159   0.12114   0.00000  Uiso   1.00
Cl238  Cl    0.83542   0.96845   0.21224   0.00000  Uiso   1.00
Cl239  Cl    0.77255   0.53151   0.26989   0.00000  Uiso   1.00
Cl240  Cl    0.72734   0.96848   0.06347   0.00000  Uiso   1.00
H241   H     0.69922   0.62284   0.11243   0.00000  Uiso   1.00
H242   H     0.88274   0.67803   0.01493   0.00000  Uiso   1.00
H243   H     0.89586   0.79993   0.33039   0.00000  Uiso   1.00
H244   H     0.61705   0.67681   0.31787   0.00000  Uiso   1.00
H245   H     0.80080   0.87718   0.22088   0.00000  Uiso   1.00
H246   H     0.78771   0.62260   0.23306   0.00000  Uiso   1.00
H247   H     0.71222   0.87739   0.10032   0.00000  Uiso   1.00
H248   H     0.52641   0.77332   0.09262   0.00000  Uiso   1.00
H249   H     0.96960   0.71299   0.09352   0.00000  Uiso   1.00
H250   H     0.97372   0.77308   0.24050   0.00000  Uiso   1.00
H251   H     0.53029   0.71249   0.23943   0.00000  Uiso   1.00
H252   H     0.60458   0.79952   0.00263   0.00000  Uiso   1.00
N253   N     0.75000   0.62623   0.16667   0.00000  Uiso   1.00
N254   N     0.75000   0.87376   0.16667   0.00000  Uiso   1.00
O255   O     0.68453   0.78974   0.16667   0.00000  Uiso   1.00
O256   O     0.58699   0.78704   0.03227   0.00000  Uiso   1.00
O257   O     0.84881   0.73839   0.06451   0.00000  Uiso   1.00
O258   O     0.90103   0.68339   0.04634   0.00000  Uiso   1.00
O259   O     0.84735   0.79063   0.26024   0.00000  Uiso   1.00
O260   O     0.91344   0.78764   0.30069   0.00000  Uiso   1.00
O261   O     0.65111   0.73750   0.26868   0.00000  Uiso   1.00
O262   O     0.59879   0.68244   0.28648   0.00000  Uiso   1.00
O263   O     0.81547   0.71026   0.16666   0.00000  Uiso   1.00
O264   O     0.81547   0.78974   0.16666   0.00000  Uiso   1.00
O265   O     0.68453   0.71026   0.16667   0.00000  Uiso   1.00
O266   O     0.75000   0.78973   0.09511   0.00000  Uiso   1.00
O267   O     0.75000   0.71027   0.23822   0.00000  Uiso   1.00
O268   O     0.75000   0.78973   0.23822   0.00000  Uiso   1.00
O269   O     0.75000   0.71027   0.09511   0.00000  Uiso   1.00
O270   O     0.65259   0.79167   0.07334   0.00000  Uiso   1.00
Zn271  Zn    0.75000   0.80307   0.16667   0.00000  Uiso   1.00
Zn272  Zn    0.75000   0.69693   0.16667   0.00000  Uiso   1.00
C273   C     0.16407   0.24998   0.49905   0.00000  Uiso   1.00
C274   C     0.23237   0.44649   0.45843   0.00000  Uiso   1.00
C275   C     0.24956   0.25002   0.40622   0.00000  Uiso   1.00
C276   C     0.25040   0.24998   0.59378   0.00000  Uiso   1.00
C277   C     0.24708   0.02691   0.50267   0.00000  Uiso   1.00
C278   C     0.25289   0.47309   0.49734   0.00000  Uiso   1.00
C279   C     0.24979   0.25003   0.35513   0.00000  Uiso   1.00
C280   C     0.25015   0.24997   0.64487   0.00000  Uiso   1.00
C281   C     0.04593   0.26070   0.45734   0.00000  Uiso   1.00
C282   C     0.45199   0.22701   0.45904   0.00000  Uiso   1.00
C283   C     0.45414   0.26063   0.54244   0.00000  Uiso   1.00
C284   C     0.33594   0.25000   0.50092   0.00000  Uiso   1.00
C285   C     0.04795   0.22668   0.54065   0.00000  Uiso   1.00
C286   C     0.09214   0.26402   0.45610   0.00000  Uiso   1.00
C287   C     0.40602   0.23146   0.45782   0.00000  Uiso   1.00
C288   C     0.40793   0.26395   0.54378   0.00000  Uiso   1.00
C289   C     0.09393   0.23108   0.54195   0.00000  Uiso   1.00
C290   C     0.11617   0.24960   0.49934   0.00000  Uiso   1.00
C291   C     0.38384   0.24969   0.50055   0.00000  Uiso   1.00
C292   C     0.02413   0.24225   0.49913   0.00000  Uiso   1.00
C293   C     0.47587   0.24231   0.50059   0.00000  Uiso   1.00
C294   C     0.11309   0.28164   0.40866   0.00000  Uiso   1.00
C295   C     0.22156   0.10279   0.46936   0.00000  Uiso   1.00
C296   C     0.38281   0.21809   0.41066   0.00000  Uiso   1.00
C297   C     0.38706   0.28144   0.59127   0.00000  Uiso   1.00
C298   C     0.11708   0.21735   0.58905   0.00000  Uiso   1.00
C299   C     0.27845   0.39721   0.53063   0.00000  Uiso   1.00
C300   C     0.27129   0.10268   0.53723   0.00000  Uiso   1.00
C301   C     0.22867   0.39732   0.46279   0.00000  Uiso   1.00
C302   C     0.21713   0.05359   0.47245   0.00000  Uiso   1.00
C303   C     0.28285   0.44641   0.52755   0.00000  Uiso   1.00
C304   C     0.26758   0.05350   0.54160   0.00000  Uiso   1.00
Cl305  Cl    0.16454   0.03159   0.45447   0.00000  Uiso   1.00
Cl306  Cl    0.33542   0.46845   0.54557   0.00000  Uiso   1.00
Cl307  Cl    0.27255   0.03151   0.60322   0.00000  Uiso   1.00
Cl308  Cl    0.22734   0.46848   0.39681   0.00000  Uiso   1.00
H309   H     0.19922   0.12284   0.44576   0.00000  Uiso   1.00
H310   H     0.38274   0.17803   0.34827   0.00000  Uiso   1.00
H311   H     0.39586   0.29993   0.66372   0.00000  Uiso   1.00
H312   H     0.11705   0.17681   0.65120   0.00000  Uiso   1.00
H313   H     0.30080   0.37718   0.55422   0.00000  Uiso   1.00
H314   H     0.28771   0.12260   0.56639   0.00000  Uiso   1.00
H315   H     0.21222   0.37739   0.43366   0.00000  Uiso   1.00
H316   H     0.02641   0.27332   0.42595   0.00000  Uiso   1.00
H317   H     0.46960   0.21299   0.42685   0.00000  Uiso   1.00
H318   H     0.47372   0.27308   0.57383   0.00000  Uiso   1.00
H319   H     0.03029   0.21249   0.57276   0.00000  Uiso   1.00
H320   H     0.10458   0.29952   0.33596   0.00000  Uiso   1.00
N321   N     0.25000   0.12623   0.50000   0.00000  Uiso   1.00
N322   N     0.25000   0.37376   0.50000   0.00000  Uiso   1.00
O323   O     0.18453   0.28974   0.50000   0.00000  Uiso   1.00
O324   O     0.08699   0.28704   0.36560   0.00000  Uiso   1.00
O325   O     0.34881   0.23839   0.39784   0.00000  Uiso   1.00
O326   O     0.40103   0.18339   0.37967   0.00000  Uiso   1.00
O327   O     0.34735   0.29063   0.59358   0.00000  Uiso   1.00
O328   O     0.41344   0.28764   0.63403   0.00000  Uiso   1.00
O329   O     0.15111   0.23750   0.60201   0.00000  Uiso   1.00
O330   O     0.09879   0.18244   0.61982   0.00000  Uiso   1.00
O331   O     0.31547   0.21026   0.50000   0.00000  Uiso   1.00
O332   O     0.31547   0.28974   0.50000   0.00000  Uiso   1.00
O333   O     0.18453   0.21026   0.50000   0.00000  Uiso   1.00
O334   O     0.25000   0.28973   0.42845   0.00000  Uiso   1.00
O335   O     0.25000   0.21027   0.57155   0.00000  Uiso   1.00
O336   O     0.25000   0.28973   0.57155   0.00000  Uiso   1.00
O337   O     0.25000   0.21027   0.42845   0.00000  Uiso   1.00
O338   O     0.15259   0.29167   0.40667   0.00000  Uiso   1.00
Zn339  Zn    0.25000   0.30307   0.50000   0.00000  Uiso   1.00
Zn340  Zn    0.25000   0.19693   0.50000   0.00000  Uiso   1.00
C341   C     0.66407   0.24998   0.49905   0.00000  Uiso   1.00
C342   C     0.73237   0.44649   0.45843   0.00000  Uiso   1.00
C343   C     0.74956   0.25002   0.40622   0.00000  Uiso   1.00
C344   C     0.75040   0.24998   0.59378   0.00000  Uiso   1.00
C345   C     0.74708   0.02691   0.50267   0.00000  Uiso   1.00
C346   C     0.75289   0.47309   0.49734   0.00000  Uiso   1.00
C347   C     0.74979   0.25003   0.35513   0.00000  Uiso   1.00
C348   C     0.75015   0.24997   0.64487   0.00000  Uiso   1.00
C349   C     0.54593   0.26070   0.45734   0.00000  Uiso   1.00
C350   C     0.95199   0.22701   0.45904   0.00000  Uiso   1.00
C351   C     0.95414   0.26063   0.54244   0.00000  Uiso   1.00
C352   C     0.83594   0.25000   0.50092   0.00000  Uiso   1.00
C353   C     0.54795   0.22668   0.54065   0.00000  Uiso   1.00
C354   C     0.59214   0.26402   0.45610   0.00000  Uiso   1.00
C355   C     0.90602   0.23146   0.45782   0.00000  Uiso   1.00
C356   C     0.90793   0.26395   0.54378   0.00000  Uiso   1.00
C357   C     0.59393   0.23108   0.54195   0.00000  Uiso   1.00
C358   C     0.61617   0.24960   0.49934   0.00000  Uiso   1.00
C359   C     0.88384   0.24969   0.50055   0.00000  Uiso   1.00
C360   C     0.52413   0.24225   0.49913   0.00000  Uiso   1.00
C361   C     0.97587   0.24231   0.50059   0.00000  Uiso   1.00
C362   C     0.61309   0.28164   0.40866   0.00000  Uiso   1.00
C363   C     0.72156   0.10279   0.46936   0.00000  Uiso   1.00
C364   C     0.88281   0.21809   0.41066   0.00000  Uiso   1.00
C365   C     0.88706   0.28144   0.59127   0.00000  Uiso   1.00
C366   C     0.61708   0.21735   0.58905   0.00000  Uiso   1.00
C367   C     0.77845   0.39721   0.53063   0.00000  Uiso   1.00
C368   C     0.77129   0.10268   0.53723   0.00000  Uiso   1.00
C369   C     0.72867   0.39732   0.46279   0.00000  Uiso   1.00
C370   C     0.71713   0.05359   0.47245   0.00000  Uiso   1.00
C371   C     0.78285   0.44641   0.52755   0.00000  Uiso   1.00
C372   C     0.76758   0.05350   0.54160   0.00000  Uiso   1.00
Cl373  Cl    0.66454   0.03159   0.45447   0.00000  Uiso   1.00
Cl374  Cl    0.83542   0.46845   0.54557   0.00000  Uiso   1.00
Cl375  Cl    0.77255   0.03151   0.60322   0.00000  Uiso   1.00
Cl376  Cl    0.72734   0.46848   0.39681   0.00000  Uiso   1.00
H377   H     0.69922   0.12284   0.44576   0.00000  Uiso   1.00
H378   H     0.88274   0.17803   0.34827   0.00000  Uiso   1.00
H379   H     0.89586   0.29993   0.66372   0.00000  Uiso   1.00
H380   H     0.61705   0.17681   0.65120   0.00000  Uiso   1.00
H381   H     0.80080   0.37718   0.55422   0.00000  Uiso   1.00
H382   H     0.78771   0.12260   0.56639   0.00000  Uiso   1.00
H383   H     0.71222   0.37739   0.43366   0.00000  Uiso   1.00
H384   H     0.52641   0.27332   0.42595   0.00000  Uiso   1.00
H385   H     0.96960   0.21299   0.42685   0.00000  Uiso   1.00
H386   H     0.97372   0.27308   0.57383   0.00000  Uiso   1.00
H387   H     0.53029   0.21249   0.57276   0.00000  Uiso   1.00
H388   H     0.60458   0.29952   0.33596   0.00000  Uiso   1.00
N389   N     0.75000   0.12623   0.50000   0.00000  Uiso   1.00
N390   N     0.75000   0.37376   0.50000   0.00000  Uiso   1.00
O391   O     0.68453   0.28974   0.50000   0.00000  Uiso   1.00
O392   O     0.58699   0.28704   0.36560   0.00000  Uiso   1.00
O393   O     0.84881   0.23839   0.39784   0.00000  Uiso   1.00
O394   O     0.90103   0.18339   0.37967   0.00000  Uiso   1.00
O395   O     0.84735   0.29063   0.59358   0.00000  Uiso   1.00
O396   O     0.91344   0.28764   0.63403   0.00000  Uiso   1.00
O397   O     0.65111   0.23750   0.60201   0.00000  Uiso   1.00
O398   O     0.59879   0.18244   0.61982   0.00000  Uiso   1.00
O399   O     0.81547   0.21026   0.50000   0.00000  Uiso   1.00
O400   O     0.81547   0.28974   0.50000   0.00000  Uiso   1.00
O401   O     0.68453   0.21026   0.50000   0.00000  Uiso   1.00
O402   O     0.75000   0.28973   0.42845   0.00000  Uiso   1.00
O403   O     0.75000   0.21027   0.57155   0.00000  Uiso   1.00
O404   O     0.75000   0.28973   0.57155   0.00000  Uiso   1.00
O405   O     0.75000   0.21027   0.42845   0.00000  Uiso   1.00
O406   O     0.65259   0.29167   0.40667   0.00000  Uiso   1.00
Zn407  Zn    0.75000   0.30307   0.50000   0.00000  Uiso   1.00
Zn408  Zn    0.75000   0.19693   0.50000   0.00000  Uiso   1.00
C409   C     0.16407   0.74998   0.49905   0.00000  Uiso   1.00
C410   C     0.23237   0.94649   0.45843   0.00000  Uiso   1.00
C411   C     0.24956   0.75002   0.40622   0.00000  Uiso   1.00
C412   C     0.25040   0.74998   0.59378   0.00000  Uiso   1.00
C413   C     0.24708   0.52691   0.50267   0.00000  Uiso   1.00
C414   C     0.25289   0.97309   0.49734   0.00000  Uiso   1.00
C415   C     0.24979   0.75003   0.35513   0.00000  Uiso   1.00
C416   C     0.25015   0.74997   0.64487   0.00000  Uiso   1.00
C417   C     0.04593   0.76070   0.45734   0.00000  Uiso   1.00
C418   C     0.45199   0.72701   0.45904   0.00000  Uiso   1.00
C419   C     0.45414   0.76063   0.54244   0.00000  Uiso   1.00
C420   C     0.33594   0.75000   0.50092   0.00000  Uiso   1.00
C421   C     0.04795   0.72668   0.54065   0.00000  Uiso   1.00
C422   C     0.09214   0.76402   0.45610   0.00000  Uiso   1.00
C423   C     0.40602   0.73146   0.45782   0.00000  Uiso   1.00
C424   C     0.40793   0.76395   0.54378   0.00000  Uiso   1.00
C425   C     0.09393   0.73108   0.54195   0.00000  Uiso   1.00
C426   C     0.11617   0.74960   0.49934   0.00000  Uiso   1.00
C427   C     0.38384   0.74969   0.50055   0.00000  Uiso   1.00
C428   C     0.02413   0.74225   0.49913   0.00000  Uiso   1.00
C429   C     0.47587   0.74231   0.50059   0.00000  Uiso   1.00
C430   C     0.11309   0.78164   0.40866   0.00000  Uiso   1.00
C431   C     0.22156   0.60279   0.46936   0.00000  Uiso   1.00
C432   C     0.38281   0.71809   0.41066   0.00000  Uiso   1.00
C433   C     0.38706   0.78144   0.59127   0.00000  Uiso   1.00
C434   C     0.11708   0.71735   0.58905   0.00000  Uiso   1.00
C435   C     0.27845   0.89721   0.53063   0.00000  Uiso   1.00
C436   C     0.27129   0.60268   0.53723   0.00000  Uiso   1.00
C437   C     0.22867   0.89732   0.46279   0.00000  Uiso   1.00
C438   C     0.21713   0.55359   0.47245   0.00000  Uiso   1.00
C439   C     0.28285   0.94641   0.52755   0.00000  Uiso   1.00
C440   C     0.26758   0.55350   0.54160   0.00000  Uiso   1.00
Cl441  Cl    0.16454   0.53159   0.45447   0.00000  Uiso   1.00
Cl442  Cl    0.33542   0.96845   0.54557   0.00000  Uiso   1.00
Cl443  Cl    0.27255   0.53151   0.60322   0.00000  Uiso   1.00
Cl444  Cl    0.22734   0.96848   0.39681   0.00000  Uiso   1.00
H445   H     0.19922   0.62284   0.44576   0.00000  Uiso   1.00
H446   H     0.38274   0.67803   0.34827   0.00000  Uiso   1.00
H447   H     0.39586   0.79993   0.66372   0.00000  Uiso   1.00
H448   H     0.11705   0.67681   0.65120   0.00000  Uiso   1.00
H449   H     0.30080   0.87718   0.55422   0.00000  Uiso   1.00
H450   H     0.28771   0.62260   0.56639   0.00000  Uiso   1.00
H451   H     0.21222   0.87739   0.43366   0.00000  Uiso   1.00
H452   H     0.02641   0.77332   0.42595   0.00000  Uiso   1.00
H453   H     0.46960   0.71299   0.42685   0.00000  Uiso   1.00
H454   H     0.47372   0.77308   0.57383   0.00000  Uiso   1.00
H455   H     0.03029   0.71249   0.57276   0.00000  Uiso   1.00
H456   H     0.10458   0.79952   0.33596   0.00000  Uiso   1.00
N457   N     0.25000   0.62623   0.50000   0.00000  Uiso   1.00
N458   N     0.25000   0.87376   0.50000   0.00000  Uiso   1.00
O459   O     0.18453   0.78974   0.50000   0.00000  Uiso   1.00
O460   O     0.08699   0.78704   0.36560   0.00000  Uiso   1.00
O461   O     0.34881   0.73839   0.39784   0.00000  Uiso   1.00
O462   O     0.40103   0.68339   0.37967   0.00000  Uiso   1.00
O463   O     0.34735   0.79063   0.59358   0.00000  Uiso   1.00
O464   O     0.41344   0.78764   0.63403   0.00000  Uiso   1.00
O465   O     0.15111   0.73750   0.60201   0.00000  Uiso   1.00
O466   O     0.09879   0.68244   0.61982   0.00000  Uiso   1.00
O467   O     0.31547   0.71026   0.50000   0.00000  Uiso   1.00
O468   O     0.31547   0.78974   0.50000   0.00000  Uiso   1.00
O469   O     0.18453   0.71026   0.50000   0.00000  Uiso   1.00
O470   O     0.25000   0.78973   0.42845   0.00000  Uiso   1.00
O471   O     0.25000   0.71027   0.57155   0.00000  Uiso   1.00
O472   O     0.25000   0.78973   0.57155   0.00000  Uiso   1.00
O473   O     0.25000   0.71027   0.42845   0.00000  Uiso   1.00
O474   O     0.15259   0.79167   0.40667   0.00000  Uiso   1.00
Zn475  Zn    0.25000   0.80307   0.50000   0.00000  Uiso   1.00
Zn476  Zn    0.25000   0.69693   0.50000   0.00000  Uiso   1.00
C477   C     0.66407   0.74998   0.49905   0.00000  Uiso   1.00
C478   C     0.73237   0.94649   0.45843   0.00000  Uiso   1.00
C479   C     0.74956   0.75002   0.40622   0.00000  Uiso   1.00
C480   C     0.75040   0.74998   0.59378   0.00000  Uiso   1.00
C481   C     0.74708   0.52691   0.50267   0.00000  Uiso   1.00
C482   C     0.75289   0.97309   0.49734   0.00000  Uiso   1.00
C483   C     0.74979   0.75003   0.35513   0.00000  Uiso   1.00
C484   C     0.75015   0.74997   0.64487   0.00000  Uiso   1.00
C485   C     0.54593   0.76070   0.45734   0.00000  Uiso   1.00
C486   C     0.95199   0.72701   0.45904   0.00000  Uiso   1.00
C487   C     0.95414   0.76063   0.54244   0.00000  Uiso   1.00
C488   C     0.83594   0.75000   0.50092   0.00000  Uiso   1.00
C489   C     0.54795   0.72668   0.54065   0.00000  Uiso   1.00
C490   C     0.59214   0.76402   0.45610   0.00000  Uiso   1.00
C491   C     0.90602   0.73146   0.45782   0.00000  Uiso   1.00
C492   C     0.90793   0.76395   0.54378   0.00000  Uiso   1.00
C493   C     0.59393   0.73108   0.54195   0.00000  Uiso   1.00
C494   C     0.61617   0.74960   0.49934   0.00000  Uiso   1.00
C495   C     0.88384   0.74969   0.50055   0.00000  Uiso   1.00
C496   C     0.52413   0.74225   0.49913   0.00000  Uiso   1.00
C497   C     0.97587   0.74231   0.50059   0.00000  Uiso   1.00
C498   C     0.61309   0.78164   0.40866   0.00000  Uiso   1.00
C499   C     0.72156   0.60279   0.46936   0.00000  Uiso   1.00
C500   C     0.88281   0.71809   0.41066   0.00000  Uiso   1.00
C501   C     0.88706   0.78144   0.59127   0.00000  Uiso   1.00
C502   C     0.61708   0.71735   0.58905   0.00000  Uiso   1.00
C503   C     0.77845   0.89721   0.53063   0.00000  Uiso   1.00
C504   C     0.77129   0.60268   0.53723   0.00000  Uiso   1.00
C505   C     0.72867   0.89732   0.46279   0.00000  Uiso   1.00
C506   C     0.71713   0.55359   0.47245   0.00000  Uiso   1.00
C507   C     0.78285   0.94641   0.52755   0.00000  Uiso   1.00
C508   C     0.76758   0.55350   0.54160   0.00000  Uiso   1.00
Cl509  Cl    0.66454   0.53159   0.45447   0.00000  Uiso   1.00
Cl510  Cl    0.83542   0.96845   0.54557   0.00000  Uiso   1.00
Cl511  Cl    0.77255   0.53151   0.60322   0.00000  Uiso   1.00
Cl512  Cl    0.72734   0.96848   0.39681   0.00000  Uiso   1.00
H513   H     0.69922   0.62284   0.44576   0.00000  Uiso   1.00
H514   H     0.88274   0.67803   0.34827   0.00000  Uiso   1.00
H515   H     0.89586   0.79993   0.66372   0.00000  Uiso   1.00
H516   H     0.61705   0.67681   0.65120   0.00000  Uiso   1.00
H517   H     0.80080   0.87718   0.55422   0.00000  Uiso   1.00
H518   H     0.78771   0.62260   0.56639   0.00000  Uiso   1.00
H519   H     0.71222   0.87739   0.43366   0.00000  Uiso   1.00
H520   H     0.52641   0.77332   0.42595   0.00000  Uiso   1.00
H521   H     0.96960   0.71299   0.42685   0.00000  Uiso   1.00
H522   H     0.97372   0.77308   0.57383   0.00000  Uiso   1.00
H523   H     0.53029   0.71249   0.57276   0.00000  Uiso   1.00
H524   H     0.60458   0.79952   0.33596   0.00000  Uiso   1.00
N525   N     0.75000   0.62623   0.50000   0.00000  Uiso   1.00
N526   N     0.75000   0.87376   0.50000   0.00000  Uiso   1.00
O527   O     0.68453   0.78974   0.50000   0.00000  Uiso   1.00
O528   O     0.58699   0.78704   0.36560   0.00000  Uiso   1.00
O529   O     0.84881   0.73839   0.39784   0.00000  Uiso   1.00
O530   O     0.90103   0.68339   0.37967   0.00000  Uiso   1.00
O531   O     0.84735   0.79063   0.59358   0.00000  Uiso   1.00
O532   O     0.91344   0.78764   0.63403   0.00000  Uiso   1.00
O533   O     0.65111   0.73750   0.60201   0.00000  Uiso   1.00
O534   O     0.59879   0.68244   0.61982   0.00000  Uiso   1.00
O535   O     0.81547   0.71026   0.50000   0.00000  Uiso   1.00
O536   O     0.81547   0.78974   0.50000   0.00000  Uiso   1.00
O537   O     0.68453   0.71026   0.50000   0.00000  Uiso   1.00
O538   O     0.75000   0.78973   0.42845   0.00000  Uiso   1.00
O539   O     0.75000   0.71027   0.57155   0.00000  Uiso   1.00
O540   O     0.75000   0.78973   0.57155   0.00000  Uiso   1.00
O541   O     0.75000   0.71027   0.42845   0.00000  Uiso   1.00
O542   O     0.65259   0.79167   0.40667   0.00000  Uiso   1.00
Zn543  Zn    0.75000   0.80307   0.50000   0.00000  Uiso   1.00
Zn544  Zn    0.75000   0.69693   0.50000   0.00000  Uiso   1.00
C545   C     0.16407   0.24998   0.83238   0.00000  Uiso   1.00
C546   C     0.23237   0.44649   0.79176   0.00000  Uiso   1.00
C547   C     0.24956   0.25002   0.73956   0.00000  Uiso   1.00
C548   C     0.25040   0.24998   0.92711   0.00000  Uiso   1.00
C549   C     0.24708   0.02691   0.83600   0.00000  Uiso   1.00
C550   C     0.25289   0.47309   0.83067   0.00000  Uiso   1.00
C551   C     0.24979   0.25003   0.68847   0.00000  Uiso   1.00
C552   C     0.25015   0.24997   0.97820   0.00000  Uiso   1.00
C553   C     0.04593   0.26070   0.79068   0.00000  Uiso   1.00
C554   C     0.45199   0.22701   0.79237   0.00000  Uiso   1.00
C555   C     0.45414   0.26063   0.87577   0.00000  Uiso   1.00
C556   C     0.33594   0.25000   0.83425   0.00000  Uiso   1.00
C557   C     0.04795   0.22668   0.87398   0.00000  Uiso   1.00
C558   C     0.09214   0.26402   0.78943   0.00000  Uiso   1.00
C559   C     0.40602   0.23146   0.79115   0.00000  Uiso   1.00
C560   C     0.40793   0.26395   0.87711   0.00000  Uiso   1.00
C561   C     0.09393   0.23108   0.87528   0.00000  Uiso   1.00
C562   C     0.11617   0.24960   0.83267   0.00000  Uiso   1.00
C563   C     0.38384   0.24969   0.83388   0.00000  Uiso   1.00
C564   C     0.02413   0.24225   0.83246   0.00000  Uiso   1.00
C565   C     0.47587   0.24231   0.83393   0.00000  Uiso   1.00
C566   C     0.11309   0.28164   0.74199   0.00000  Uiso   1.00
C567   C     0.22156   0.10279   0.80269   0.00000  Uiso   1.00
C568   C     0.38281   0.21809   0.74399   0.00000  Uiso   1.00
C569   C     0.38706   0.28144   0.92461   0.00000  Uiso   1.00
C570   C     0.11708   0.21735   0.92239   0.00000  Uiso   1.00
C571   C     0.27845   0.39721   0.86396   0.00000  Uiso   1.00
C572   C     0.27129   0.10268   0.87057   0.00000  Uiso   1.00
C573   C     0.22867   0.39732   0.79613   0.00000  Uiso   1.00
C574   C     0.21713   0.05359   0.80578   0.00000  Uiso   1.00
C575   C     0.28285   0.44641   0.86088   0.00000  Uiso   1.00
C576   C     0.26758   0.05350   0.87493   0.00000  Uiso   1.00
Cl577  Cl    0.16454   0.03159   0.78780   0.00000  Uiso   1.00
Cl578  Cl    0.33542   0.46845   0.87891   0.00000  Uiso   1.00
Cl579  Cl    0.27255   0.03151   0.93655   0.00000  Uiso   1.00
Cl580  Cl    0.22734   0.46848   0.73014   0.00000  Uiso   1.00
H581   H     0.19922   0.12284   0.77909   0.00000  Uiso   1.00
H582   H     0.38274   0.17803   0.68160   0.00000  Uiso   1.00
H583   H     0.39586   0.29993   0.99705   0.00000  Uiso   1.00
H584   H     0.11705   0.17681   0.98453   0.00000  Uiso   1.00
H585   H     0.30080   0.37718   0.88755   0.00000  Uiso   1.00
H586   H     0.28771   0.12260   0.89972   0.00000  Uiso   1.00
H587   H     0.21222   0.37739   0.76699   0.00000  Uiso   1.00
H588   H     0.02641   0.27332   0.75928   0.00000  Uiso   1.00
H589   H     0.46960   0.21299   0.76019   0.00000  Uiso   1.00
H590   H     0.47372   0.27308   0.90717   0.00000  Uiso   1.00
H591   H     0.03029   0.21249   0.90610   0.00000  Uiso   1.00
H592   H     0.10458   0.29952   0.66930   0.00000  Uiso   1.00
N593   N     0.25000   0.12623   0.83333   0.00000  Uiso   1.00
N594   N     0.25000   0.37376   0.83333   0.00000  Uiso   1.00
O595   O     0.18453   0.28974   0.83334   0.00000  Uiso   1.00
O596   O     0.08699   0.28704   0.69893   0.00000  Uiso   1.00
O597   O     0.34881   0.23839   0.73118   0.00000  Uiso   1.00
O598   O     0.40103   0.18339   0.71301   0.00000  Uiso   1.00
O599   O     0.34735   0.29063   0.92691   0.00000  Uiso   1.00
O600   O     0.41344   0.28764   0.96736   0.00000  Uiso   1.00
O601   O     0.15111   0.23750   0.93535   0.00000  Uiso   1.00
O602   O     0.09879   0.18244   0.95315   0.00000  Uiso   1.00
O603   O     0.31547   0.21026   0.83333   0.00000  Uiso   1.00
O604   O     0.31547   0.28974   0.83333   0.00000  Uiso   1.00
O605   O     0.18453   0.21026   0.83334   0.00000  Uiso   1.00
O606   O     0.25000   0.28973   0.76178   0.00000  Uiso   1.00
O607   O     0.25000   0.21027   0.90489   0.00000  Uiso   1.00
O608   O     0.25000   0.28973   0.90489   0.00000  Uiso   1.00
O609   O     0.25000   0.21027   0.76178   0.00000  Uiso   1.00
O610   O     0.15259   0.29167   0.74000   0.00000  Uiso   1.00
Zn611  Zn    0.25000   0.30307   0.83333   0.00000  Uiso   1.00
Zn612  Zn    0.25000   0.19693   0.83333   0.00000  Uiso   1.00
C613   C     0.66407   0.24998   0.83238   0.00000  Uiso   1.00
C614   C     0.73237   0.44649   0.79176   0.00000  Uiso   1.00
C615   C     0.74956   0.25002   0.73956   0.00000  Uiso   1.00
C616   C     0.75040   0.24998   0.92711   0.00000  Uiso   1.00
C617   C     0.74708   0.02691   0.83600   0.00000  Uiso   1.00
C618   C     0.75289   0.47309   0.83067   0.00000  Uiso   1.00
C619   C     0.74979   0.25003   0.68847   0.00000  Uiso   1.00
C620   C     0.75015   0.24997   0.97820   0.00000  Uiso   1.00
C621   C     0.54593   0.26070   0.79068   0.00000  Uiso   1.00
C622   C     0.95199   0.22701   0.79237   0.00000  Uiso   1.00
C623   C     0.95414   0.26063   0.87577   0.00000  Uiso   1.00
C624   C     0.83594   0.25000   0.83425   0.00000  Uiso   1.00
C625   C     0.54795   0.22668   0.87398   0.00000  Uiso   1.00
C626   C     0.59214   0.26402   0.78943   0.00000  Uiso   1.00
C627   C     0.90602   0.23146   0.79115   0.00000  Uiso   1.00
C628   C     0.90793   0.26395   0.87711   0.00000  Uiso   1.00
C629   C     0.59393   0.23108   0.87528   0.00000  Uiso   1.00
C630   C     0.61617   0.24960   0.83267   0.00000  Uiso   1.00
C631   C     0.88384   0.24969   0.83388   0.00000  Uiso   1.00
C632   C     0.52413   0.24225   0.83246   0.00000  Uiso   1.00
C633   C     0.97587   0.24231   0.83393   0.00000  Uiso   1.00
C634   C     0.61309   0.28164   0.74199   0.00000  Uiso   1.00
C635   C     0.72156   0.10279   0.80269   0.00000  Uiso   1.00
C636   C     0.88281   0.21809   0.74399   0.00000  Uiso   1.00
C637   C     0.88706   0.28144   0.92461   0.00000  Uiso   1.00
C638   C     0.61708   0.21735   0.92239   0.00000  Uiso   1.00
C639   C     0.77845   0.39721   0.86396   0.00000  Uiso   1.00
C640   C     0.77129   0.10268   0.87057   0.00000  Uiso   1.00
C641   C     0.72867   0.39732   0.79613   0.00000  Uiso   1.00
C642   C     0.71713   0.05359   0.80578   0.00000  Uiso   1.00
C643   C     0.78285   0.44641   0.86088   0.00000  Uiso   1.00
C644   C     0.76758   0.05350   0.87493   0.00000  Uiso   1.00
Cl645  Cl    0.66454   0.03159   0.78780   0.00000  Uiso   1.00
Cl646  Cl    0.83542   0.46845   0.87891   0.00000  Uiso   1.00
Cl647  Cl    0.77255   0.03151   0.93655   0.00000  Uiso   1.00
Cl648  Cl    0.72734   0.46848   0.73014   0.00000  Uiso   1.00
H649   H     0.69922   0.12284   0.77909   0.00000  Uiso   1.00
H650   H     0.88274   0.17803   0.68160   0.00000  Uiso   1.00
H651   H     0.89586   0.29993   0.99705   0.00000  Uiso   1.00
H652   H     0.61705   0.17681   0.98453   0.00000  Uiso   1.00
H653   H     0.80080   0.37718   0.88755   0.00000  Uiso   1.00
H654   H     0.78771   0.12260   0.89972   0.00000  Uiso   1.00
H655   H     0.71222   0.37739   0.76699   0.00000  Uiso   1.00
H656   H     0.52641   0.27332   0.75928   0.00000  Uiso   1.00
H657   H     0.96960   0.21299   0.76019   0.00000  Uiso   1.00
H658   H     0.97372   0.27308   0.90717   0.00000  Uiso   1.00
H659   H     0.53029   0.21249   0.90610   0.00000  Uiso   1.00
H660   H     0.60458   0.29952   0.66930   0.00000  Uiso   1.00
N661   N     0.75000   0.12623   0.83333   0.00000  Uiso   1.00
N662   N     0.75000   0.37376   0.83333   0.00000  Uiso   1.00
O663   O     0.68453   0.28974   0.83334   0.00000  Uiso   1.00
O664   O     0.58699   0.28704   0.69893   0.00000  Uiso   1.00
O665   O     0.84881   0.23839   0.73118   0.00000  Uiso   1.00
O666   O     0.90103   0.18339   0.71301   0.00000  Uiso   1.00
O667   O     0.84735   0.29063   0.92691   0.00000  Uiso   1.00
O668   O     0.91344   0.28764   0.96736   0.00000  Uiso   1.00
O669   O     0.65111   0.23750   0.93535   0.00000  Uiso   1.00
O670   O     0.59879   0.18244   0.95315   0.00000  Uiso   1.00
O671   O     0.81547   0.21026   0.83333   0.00000  Uiso   1.00
O672   O     0.81547   0.28974   0.83333   0.00000  Uiso   1.00
O673   O     0.68453   0.21026   0.83334   0.00000  Uiso   1.00
O674   O     0.75000   0.28973   0.76178   0.00000  Uiso   1.00
O675   O     0.75000   0.21027   0.90489   0.00000  Uiso   1.00
O676   O     0.75000   0.28973   0.90489   0.00000  Uiso   1.00
O677   O     0.75000   0.21027   0.76178   0.00000  Uiso   1.00
O678   O     0.65259   0.29167   0.74000   0.00000  Uiso   1.00
Zn679  Zn    0.75000   0.30307   0.83333   0.00000  Uiso   1.00
Zn680  Zn    0.75000   0.19693   0.83333   0.00000  Uiso   1.00
C681   C     0.16407   0.74998   0.83238   0.00000  Uiso   1.00
C682   C     0.23237   0.94649   0.79176   0.00000  Uiso   1.00
C683   C     0.24956   0.75002   0.73956   0.00000  Uiso   1.00
C684   C     0.25040   0.74998   0.92711   0.00000  Uiso   1.00
C685   C     0.24708   0.52691   0.83600   0.00000  Uiso   1.00
C686   C     0.25289   0.97309   0.83067   0.00000  Uiso   1.00
C687   C     0.24979   0.75003   0.68847   0.00000  Uiso   1.00
C688   C     0.25015   0.74997   0.97820   0.00000  Uiso   1.00
C689   C     0.04593   0.76070   0.79068   0.00000  Uiso   1.00
C690   C     0.45199   0.72701   0.79237   0.00000  Uiso   1.00
C691   C     0.45414   0.76063   0.87577   0.00000  Uiso   1.00
C692   C     0.33594   0.75000   0.83425   0.00000  Uiso   1.00
C693   C     0.04795   0.72668   0.87398   0.00000  Uiso   1.00
C694   C     0.09214   0.76402   0.78943   0.00000  Uiso   1.00
C695   C     0.40602   0.73146   0.79115   0.00000  Uiso   1.00
C696   C     0.40793   0.76395   0.87711   0.00000  Uiso   1.00
C697   C     0.09393   0.73108   0.87528   0.00000  Uiso   1.00
C698   C     0.11617   0.74960   0.83267   0.00000  Uiso   1.00
C699   C     0.38384   0.74969   0.83388   0.00000  Uiso   1.00
C700   C     0.02413   0.74225   0.83246   0.00000  Uiso   1.00
C701   C     0.47587   0.74231   0.83393   0.00000  Uiso   1.00
C702   C     0.11309   0.78164   0.74199   0.00000  Uiso   1.00
C703   C     0.22156   0.60279   0.80269   0.00000  Uiso   1.00
C704   C     0.38281   0.71809   0.74399   0.00000  Uiso   1.00
C705   C     0.38706   0.78144   0.92461   0.00000  Uiso   1.00
C706   C     0.11708   0.71735   0.92239   0.00000  Uiso   1.00
C707   C     0.27845   0.89721   0.86396   0.00000  Uiso   1.00
C708   C     0.27129   0.60268   0.87057   0.00000  Uiso   1.00
C709   C     0.22867   0.89732   0.79613   0.00000  Uiso   1.00
C710   C     0.21713   0.55359   0.80578   0.00000  Uiso   1.00
C711   C     0.28285   0.94641   0.86088   0.00000  Uiso   1.00
C712   C     0.26758   0.55350   0.87493   0.00000  Uiso   1.00
Cl713  Cl    0.16454   0.53159   0.78780   0.00000  Uiso   1.00
Cl714  Cl    0.33542   0.96845   0.87891   0.00000  Uiso   1.00
Cl715  Cl    0.27255   0.53151   0.93655   0.00000  Uiso   1.00
Cl716  Cl    0.22734   0.96848   0.73014   0.00000  Uiso   1.00
H717   H     0.19922   0.62284   0.77909   0.00000  Uiso   1.00
H718   H     0.38274   0.67803   0.68160   0.00000  Uiso   1.00
H719   H     0.39586   0.79993   0.99705   0.00000  Uiso   1.00
H720   H     0.11705   0.67681   0.98453   0.00000  Uiso   1.00
H721   H     0.30080   0.87718   0.88755   0.00000  Uiso   1.00
H722   H     0.28771   0.62260   0.89972   0.00000  Uiso   1.00
H723   H     0.21222   0.87739   0.76699   0.00000  Uiso   1.00
H724   H     0.02641   0.77332   0.75928   0.00000  Uiso   1.00
H725   H     0.46960   0.71299   0.76019   0.00000  Uiso   1.00
H726   H     0.47372   0.77308   0.90717   0.00000  Uiso   1.00
H727   H     0.03029   0.71249   0.90610   0.00000  Uiso   1.00
H728   H     0.10458   0.79952   0.66930   0.00000  Uiso   1.00
N729   N     0.25000   0.62623   0.83333   0.00000  Uiso   1.00
N730   N     0.25000   0.87376   0.83333   0.00000  Uiso   1.00
O731   O     0.18453   0.78974   0.83334   0.00000  Uiso   1.00
O732   O     0.08699   0.78704   0.69893   0.00000  Uiso   1.00
O733   O     0.34881   0.73839   0.73118   0.00000  Uiso   1.00
O734   O     0.40103   0.68339   0.71301   0.00000  Uiso   1.00
O735   O     0.34735   0.79063   0.92691   0.00000  Uiso   1.00
O736   O     0.41344   0.78764   0.96736   0.00000  Uiso   1.00
O737   O     0.15111   0.73750   0.93535   0.00000  Uiso   1.00
O738   O     0.09879   0.68244   0.95315   0.00000  Uiso   1.00
O739   O     0.31547   0.71026   0.83333   0.00000  Uiso   1.00
O740   O     0.31547   0.78974   0.83333   0.00000  Uiso   1.00
O741   O     0.18453   0.71026   0.83334   0.00000  Uiso   1.00
O742   O     0.25000   0.78973   0.76178   0.00000  Uiso   1.00
O743   O     0.25000   0.71027   0.90489   0.00000  Uiso   1.00
O744   O     0.25000   0.78973   0.90489   0.00000  Uiso   1.00
O745   O     0.25000   0.71027   0.76178   0.00000  Uiso   1.00
O746   O     0.15259   0.79167   0.74000   0.00000  Uiso   1.00
Zn747  Zn    0.25000   0.80307   0.83333   0.00000  Uiso   1.00
Zn748  Zn    0.25000   0.69693   0.83333   0.00000  Uiso   1.00
C749   C     0.66407   0.74998   0.83238   0.00000  Uiso   1.00
C750   C     0.73237   0.94649   0.79176   0.00000  Uiso   1.00
C751   C     0.74956   0.75002   0.73956   0.00000  Uiso   1.00
C752   C     0.75040   0.74998   0.92711   0.00000  Uiso   1.00
C753   C     0.74708   0.52691   0.83600   0.00000  Uiso   1.00
C754   C     0.75289   0.97309   0.83067   0.00000  Uiso   1.00
C755   C     0.74979   0.75003   0.68847   0.00000  Uiso   1.00
C756   C     0.75015   0.74997   0.97820   0.00000  Uiso   1.00
C757   C     0.54593   0.76070   0.79068   0.00000  Uiso   1.00
C758   C     0.95199   0.72701   0.79237   0.00000  Uiso   1.00
C759   C     0.95414   0.76063   0.87577   0.00000  Uiso   1.00
C760   C     0.83594   0.75000   0.83425   0.00000  Uiso   1.00
C761   C     0.54795   0.72668   0.87398   0.00000  Uiso   1.00
C762   C     0.59214   0.76402   0.78943   0.00000  Uiso   1.00
C763   C     0.90602   0.73146   0.79115   0.00000  Uiso   1.00
C764   C     0.90793   0.76395   0.87711   0.00000  Uiso   1.00
C765   C     0.59393   0.73108   0.87528   0.00000  Uiso   1.00
C766   C     0.61617   0.74960   0.83267   0.00000  Uiso   1.00
C767   C     0.88384   0.74969   0.83388   0.00000  Uiso   1.00
C768   C     0.52413   0.74225   0.83246   0.00000  Uiso   1.00
C769   C     0.97587   0.74231   0.83393   0.00000  Uiso   1.00
C770   C     0.61309   0.78164   0.74199   0.00000  Uiso   1.00
C771   C     0.72156   0.60279   0.80269   0.00000  Uiso   1.00
C772   C     0.88281   0.71809   0.74399   0.00000  Uiso   1.00
C773   C     0.88706   0.78144   0.92461   0.00000  Uiso   1.00
C774   C     0.61708   0.71735   0.92239   0.00000  Uiso   1.00
C775   C     0.77845   0.89721   0.86396   0.00000  Uiso   1.00
C776   C     0.77129   0.60268   0.87057   0.00000  Uiso   1.00
C777   C     0.72867   0.89732   0.79613   0.00000  Uiso   1.00
C778   C     0.71713   0.55359   0.80578   0.00000  Uiso   1.00
C779   C     0.78285   0.94641   0.86088   0.00000  Uiso   1.00
C780   C     0.76758   0.55350   0.87493   0.00000  Uiso   1.00
Cl781  Cl    0.66454   0.53159   0.78780   0.00000  Uiso   1.00
Cl782  Cl    0.83542   0.96845   0.87891   0.00000  Uiso   1.00
Cl783  Cl    0.77255   0.53151   0.93655   0.00000  Uiso   1.00
Cl784  Cl    0.72734   0.96848   0.73014   0.00000  Uiso   1.00
H785   H     0.69922   0.62284   0.77909   0.00000  Uiso   1.00
H786   H     0.88274   0.67803   0.68160   0.00000  Uiso   1.00
H787   H     0.89586   0.79993   0.99705   0.00000  Uiso   1.00
H788   H     0.61705   0.67681   0.98453   0.00000  Uiso   1.00
H789   H     0.80080   0.87718   0.88755   0.00000  Uiso   1.00
H790   H     0.78771   0.62260   0.89972   0.00000  Uiso   1.00
H791   H     0.71222   0.87739   0.76699   0.00000  Uiso   1.00
H792   H     0.52641   0.77332   0.75928   0.00000  Uiso   1.00
H793   H     0.96960   0.71299   0.76019   0.00000  Uiso   1.00
H794   H     0.97372   0.77308   0.90717   0.00000  Uiso   1.00
H795   H     0.53029   0.71249   0.90610   0.00000  Uiso   1.00
H796   H     0.60458   0.79952   0.66930   0.00000  Uiso   1.00
N797   N     0.75000   0.62623   0.83333   0.00000  Uiso   1.00
N798   N     0.75000   0.87376   0.83333   0.00000  Uiso   1.00
O799   O     0.68453   0.78974   0.83334   0.00000  Uiso   1.00
O800   O     0.58699   0.78704   0.69893   0.00000  Uiso   1.00
O801   O     0.84881   0.73839   0.73118   0.00000  Uiso   1.00
O802   O     0.90103   0.68339   0.71301   0.00000  Uiso   1.00
O803   O     0.84735   0.79063   0.92691   0.00000  Uiso   1.00
O804   O     0.91344   0.78764   0.96736   0.00000  Uiso   1.00
O805   O     0.65111   0.73750   0.93535   0.00000  Uiso   1.00
O806   O     0.59879   0.68244   0.95315   0.00000  Uiso   1.00
O807   O     0.81547   0.71026   0.83333   0.00000  Uiso   1.00
O808   O     0.81547   0.78974   0.83333   0.00000  Uiso   1.00
O809   O     0.68453   0.71026   0.83334   0.00000  Uiso   1.00
O810   O     0.75000   0.78973   0.76178   0.00000  Uiso   1.00
O811   O     0.75000   0.71027   0.90489   0.00000  Uiso   1.00
O812   O     0.75000   0.78973   0.90489   0.00000  Uiso   1.00
O813   O     0.75000   0.71027   0.76178   0.00000  Uiso   1.00
O814   O     0.65259   0.79167   0.74000   0.00000  Uiso   1.00
Zn815  Zn    0.75000   0.80307   0.83333   0.00000  Uiso   1.00
Zn816  Zn    0.75000   0.69693   0.83333   0.00000  Uiso   1.00
loop_
_geom_bond_atom_site_label_1
_geom_bond_atom_site_label_2
_geom_bond_distance
_geom_bond_site_symmetry_2
_ccdc_geom_bond_type
C1     O51     1.287   .     A
C1     C18     1.437   .     S
C1     O61     1.286   .     A
C2     C6      1.426   .     A
C2     C29     1.407   .     A
C2     Cl36    1.765   .     S
C3     C7      1.364   .     S
C3     O65     1.276   .     A
C3     O62     1.276   .     A
C4     C8      1.364   .     S
C4     O63     1.276   .     A
C4     O64     1.276   .     A
C5     C32     1.426   .     A
C5     C30     1.426   .     A
C5     C142    1.547   1_545 S
C6     C31     1.426   .     A
C6     C141    1.547   .     S
C7     C552    1.164   1_554 S
C8     C279    1.164   .     S
C9     C14     1.390   .     A
C9     C20     1.394   .     A
C9     H44     1.084   .     S
C10    C15     1.386   .     A
C10    H45     1.085   .     S
C10    C21     1.391   .     A
C11    C21     1.394   .     A
C11    C16     1.390   .     A
C11    H46     1.084   .     S
C12    C19     1.437   .     S
C12    O60     1.287   .     A
C12    O59     1.286   .     A
C13    C17     1.386   .     A
C13    H47     1.084   .     S
C13    C20     1.391   .     A
C14    C18     1.421   .     A
C14    C22     1.498   .     S
C15    C19     1.418   .     A
C15    C24     1.489   .     S
C16    C19     1.422   .     A
C16    C25     1.499   .     S
C17    C26     1.489   .     S
C17    C18     1.418   .     A
C20    C89     1.449   1_455 S
C21    C88     1.449   .     S
C22    O52     1.400   .     S
C22    O66     1.220   .     D
C23    N49     1.358   .     A
C23    C30     1.407   .     A
C23    H37     1.082   .     S
C24    O53     1.221   .     D
C24    O54     1.399   .     S
C25    O56     1.401   .     S
C25    O55     1.221   .     D
C26    O58     1.399   .     S
C26    O57     1.221   .     D
C27    N50     1.358   .     A
C27    C31     1.407   .     A
C27    H41     1.082   .     S
C28    N49     1.358   .     A
C28    H42     1.082   .     S
C28    C32     1.407   .     A
C29    H43     1.082   .     S
C29    N50     1.358   .     A
C30    Cl33    1.765   .     S
C31    Cl34    1.765   .     S
C32    Cl35    1.765   .     S
H38    O54     1.014   .     S
H39    O56     1.014   .     S
H40    O58     1.014   .     S
H48    O52     1.014   .     S
N49    Zn68    2.010   .     S
N50    Zn67    2.010   .     S
O51    Zn67    2.001   .     S
O59    Zn68    2.001   .     S
O60    Zn67    2.001   .     S
O61    Zn68    2.001   .     S
O62    Zn67    1.947   .     S
O63    Zn68    1.947   .     S
O64    Zn67    1.946   .     S
O65    Zn68    1.946   .     S
C69    O119    1.287   .     A
C69    C86     1.437   .     S
C69    O129    1.286   .     A
C70    C74     1.426   .     A
C70    C97     1.407   .     A
C70    Cl104   1.765   .     S
C71    C75     1.364   .     S
C71    O133    1.276   .     A
C71    O130    1.276   .     A
C72    C76     1.364   .     S
C72    O131    1.276   .     A
C72    O132    1.276   .     A
C73    C100    1.426   .     A
C73    C98     1.426   .     A
C73    C210    1.547   1_545 S
C74    C99     1.426   .     A
C74    C209    1.547   .     S
C75    C620    1.164   1_554 S
C76    C347    1.164   .     S
C77    C82     1.390   .     A
C77    C88     1.394   .     A
C77    H112    1.084   .     S
C78    C83     1.386   .     A
C78    H113    1.085   .     S
C78    C89     1.391   .     A
C79    C89     1.394   .     A
C79    C84     1.390   .     A
C79    H114    1.084   .     S
C80    C87     1.437   .     S
C80    O128    1.287   .     A
C80    O127    1.286   .     A
C81    C85     1.386   .     A
C81    H115    1.084   .     S
C81    C88     1.391   .     A
C82    C86     1.421   .     A
C82    C90     1.498   .     S
C83    C87     1.418   .     A
C83    C92     1.489   .     S
C84    C87     1.422   .     A
C84    C93     1.499   .     S
C85    C94     1.489   .     S
C85    C86     1.418   .     A
C89    C20     1.449   1_655 S
C90    O120    1.400   .     S
C90    O134    1.220   .     D
C91    N117    1.358   .     A
C91    C98     1.407   .     A
C91    H105    1.082   .     S
C92    O121    1.221   .     D
C92    O122    1.399   .     S
C93    O124    1.401   .     S
C93    O123    1.221   .     D
C94    O126    1.399   .     S
C94    O125    1.221   .     D
C95    N118    1.358   .     A
C95    C99     1.407   .     A
C95    H109    1.082   .     S
C96    N117    1.358   .     A
C96    H110    1.082   .     S
C96    C100    1.407   .     A
C97    H111    1.082   .     S
C97    N118    1.358   .     A
C98    Cl101   1.765   .     S
C99    Cl102   1.765   .     S
C100   Cl103   1.765   .     S
H106   O122    1.014   .     S
H107   O124    1.014   .     S
H108   O126    1.014   .     S
H116   O120    1.014   .     S
N117   Zn136   2.010   .     S
N118   Zn135   2.010   .     S
O119   Zn135   2.001   .     S
O127   Zn136   2.001   .     S
O128   Zn135   2.001   .     S
O129   Zn136   2.001   .     S
O130   Zn135   1.947   .     S
O131   Zn136   1.947   .     S
O132   Zn135   1.946   .     S
O133   Zn136   1.946   .     S
C137   O187    1.287   .     A
C137   C154    1.437   .     S
C137   O197    1.286   .     A
C138   C142    1.426   .     A
C138   C165    1.407   .     A
C138   Cl172   1.765   .     S
C139   C143    1.364   .     S
C139   O201    1.276   .     A
C139   O198    1.276   .     A
C140   C144    1.364   .     S
C140   O199    1.276   .     A
C140   O200    1.276   .     A
C141   C168    1.426   .     A
C141   C166    1.426   .     A
C142   C167    1.426   .     A
C142   C5      1.547   1_565 S
C143   C688    1.164   1_554 S
C144   C415    1.164   .     S
C145   C150    1.390   .     A
C145   C156    1.394   .     A
C145   H180    1.084   .     S
C146   C151    1.386   .     A
C146   H181    1.085   .     S
C146   C157    1.391   .     A
C147   C157    1.394   .     A
C147   C152    1.390   .     A
C147   H182    1.084   .     S
C148   C155    1.437   .     S
C148   O196    1.287   .     A
C148   O195    1.286   .     A
C149   C153    1.386   .     A
C149   H183    1.084   .     S
C149   C156    1.391   .     A
C150   C154    1.421   .     A
C150   C158    1.498   .     S
C151   C155    1.418   .     A
C151   C160    1.489   .     S
C152   C155    1.422   .     A
C152   C161    1.499   .     S
C153   C162    1.489   .     S
C153   C154    1.418   .     A
C156   C225    1.449   1_455 S
C157   C224    1.449   .     S
C158   O188    1.400   .     S
C158   O202    1.220   .     D
C159   N185    1.358   .     A
C159   C166    1.407   .     A
C159   H173    1.082   .     S
C160   O189    1.221   .     D
C160   O190    1.399   .     S
C161   O192    1.401   .     S
C161   O191    1.221   .     D
C162   O194    1.399   .     S
C162   O193    1.221   .     D
C163   N186    1.358   .     A
C163   C167    1.407   .     A
C163   H177    1.082   .     S
C164   N185    1.358   .     A
C164   H178    1.082   .     S
C164   C168    1.407   .     A
C165   H179    1.082   .     S
C165   N186    1.358   .     A
C166   Cl169   1.765   .     S
C167   Cl170   1.765   .     S
C168   Cl171   1.765   .     S
H174   O190    1.014   .     S
H175   O192    1.014   .     S
H176   O194    1.014   .     S
H184   O188    1.014   .     S
N185   Zn204   2.010   .     S
N186   Zn203   2.010   .     S
O187   Zn203   2.001   .     S
O195   Zn204   2.001   .     S
O196   Zn203   2.001   .     S
O197   Zn204   2.001   .     S
O198   Zn203   1.947   .     S
O199   Zn204   1.947   .     S
O200   Zn203   1.946   .     S
O201   Zn204   1.946   .     S
C205   O255    1.287   .     A
C205   C222    1.437   .     S
C205   O265    1.286   .     A
C206   C210    1.426   .     A
C206   C233    1.407   .     A
C206   Cl240   1.765   .     S
C207   C211    1.364   .     S
C207   O269    1.276   .     A
C207   O266    1.276   .     A
C208   C212    1.364   .     S
C208   O267    1.276   .     A
C208   O268    1.276   .     A
C209   C236    1.426   .     A
C209   C234    1.426   .     A
C210   C235    1.426   .     A
C210   C73     1.547   1_565 S
C211   C756    1.164   1_554 S
C212   C483    1.164   .     S
C213   C218    1.390   .     A
C213   C224    1.394   .     A
C213   H248    1.084   .     S
C214   C219    1.386   .     A
C214   H249    1.085   .     S
C214   C225    1.391   .     A
C215   C225    1.394   .     A
C215   C220    1.390   .     A
C215   H250    1.084   .     S
C216   C223    1.437   .     S
C216   O264    1.287   .     A
C216   O263    1.286   .     A
C217   C221    1.386   .     A
C217   H251    1.084   .     S
C217   C224    1.391   .     A
C218   C222    1.421   .     A
C218   C226    1.498   .     S
C219   C223    1.418   .     A
C219   C228    1.489   .     S
C220   C223    1.422   .     A
C220   C229    1.499   .     S
C221   C230    1.489   .     S
C221   C222    1.418   .     A
C225   C156    1.449   1_655 S
C226   O256    1.400   .     S
C226   O270    1.220   .     D
C227   N253    1.358   .     A
C227   C234    1.407   .     A
C227   H241    1.082   .     S
C228   O257    1.221   .     D
C228   O258    1.399   .     S
C229   O260    1.401   .     S
C229   O259    1.221   .     D
C230   O262    1.399   .     S
C230   O261    1.221   .     D
C231   N254    1.358   .     A
C231   C235    1.407   .     A
C231   H245    1.082   .     S
C232   N253    1.358   .     A
C232   H246    1.082   .     S
C232   C236    1.407   .     A
C233   H247    1.082   .     S
C233   N254    1.358   .     A
C234   Cl237   1.765   .     S
C235   Cl238   1.765   .     S
C236   Cl239   1.765   .     S
H242   O258    1.014   .     S
H243   O260    1.014   .     S
H244   O262    1.014   .     S
H252   O256    1.014   .     S
N253   Zn272   2.010   .     S
N254   Zn271   2.010   .     S
O255   Zn271   2.001   .     S
O263   Zn272   2.001   .     S
O264   Zn271   2.001   .     S
O265   Zn272   2.001   .     S
O266   Zn271   1.947   .     S
O267   Zn272   1.947   .     S
O268   Zn271   1.946   .     S
O269   Zn272   1.946   .     S
C273   O323    1.287   .     A
C273   C290    1.437   .     S
C273   O333    1.286   .     A
C274   C278    1.426   .     A
C274   C301    1.407   .     A
C274   Cl308   1.765   .     S
C275   C279    1.364   .     S
C275   O337    1.276   .     A
C275   O334    1.276   .     A
C276   C280    1.364   .     S
C276   O335    1.276   .     A
C276   O336    1.276   .     A
C277   C304    1.426   .     A
C277   C302    1.426   .     A
C277   C414    1.547   1_545 S
C278   C303    1.426   .     A
C278   C413    1.547   .     S
C280   C551    1.164   .     S
C281   C286    1.390   .     A
C281   C292    1.394   .     A
C281   H316    1.084   .     S
C282   C287    1.386   .     A
C282   H317    1.085   .     S
C282   C293    1.391   .     A
C283   C293    1.394   .     A
C283   C288    1.390   .     A
C283   H318    1.084   .     S
C284   C291    1.437   .     S
C284   O332    1.287   .     A
C284   O331    1.286   .     A
C285   C289    1.386   .     A
C285   H319    1.084   .     S
C285   C292    1.391   .     A
C286   C290    1.421   .     A
C286   C294    1.498   .     S
C287   C291    1.418   .     A
C287   C296    1.489   .     S
C288   C291    1.422   .     A
C288   C297    1.499   .     S
C289   C298    1.489   .     S
C289   C290    1.418   .     A
C292   C361    1.449   1_455 S
C293   C360    1.449   .     S
C294   O324    1.400   .     S
C294   O338    1.220   .     D
C295   N321    1.358   .     A
C295   C302    1.407   .     A
C295   H309    1.082   .     S
C296   O325    1.221   .     D
C296   O326    1.399   .     S
C297   O328    1.401   .     S
C297   O327    1.221   .     D
C298   O330    1.399   .     S
C298   O329    1.221   .     D
C299   N322    1.358   .     A
C299   C303    1.407   .     A
C299   H313    1.082   .     S
C300   N321    1.358   .     A
C300   H314    1.082   .     S
C300   C304    1.407   .     A
C301   H315    1.082   .     S
C301   N322    1.358   .     A
C302   Cl305   1.765   .     S
C303   Cl306   1.765   .     S
C304   Cl307   1.765   .     S
H310   O326    1.014   .     S
H311   O328    1.014   .     S
H312   O330    1.014   .     S
H320   O324    1.014   .     S
N321   Zn340   2.010   .     S
N322   Zn339   2.010   .     S
O323   Zn339   2.001   .     S
O331   Zn340   2.001   .     S
O332   Zn339   2.001   .     S
O333   Zn340   2.001   .     S
O334   Zn339   1.947   .     S
O335   Zn340   1.947   .     S
O336   Zn339   1.946   .     S
O337   Zn340   1.946   .     S
C341   O391    1.287   .     A
C341   C358    1.437   .     S
C341   O401    1.286   .     A
C342   C346    1.426   .     A
C342   C369    1.407   .     A
C342   Cl376   1.765   .     S
C343   C347    1.364   .     S
C343   O405    1.276   .     A
C343   O402    1.276   .     A
C344   C348    1.364   .     S
C344   O403    1.276   .     A
C344   O404    1.276   .     A
C345   C372    1.426   .     A
C345   C370    1.426   .     A
C345   C482    1.547   1_545 S
C346   C371    1.426   .     A
C346   C481    1.547   .     S
C348   C619    1.164   .     S
C349   C354    1.390   .     A
C349   C360    1.394   .     A
C349   H384    1.084   .     S
C350   C355    1.386   .     A
C350   H385    1.085   .     S
C350   C361    1.391   .     A
C351   C361    1.394   .     A
C351   C356    1.390   .     A
C351   H386    1.084   .     S
C352   C359    1.437   .     S
C352   O400    1.287   .     A
C352   O399    1.286   .     A
C353   C357    1.386   .     A
C353   H387    1.084   .     S
C353   C360    1.391   .     A
C354   C358    1.421   .     A
C354   C362    1.498   .     S
C355   C359    1.418   .     A
C355   C364    1.489   .     S
C356   C359    1.422   .     A
C356   C365    1.499   .     S
C357   C366    1.489   .     S
C357   C358    1.418   .     A
C361   C292    1.449   1_655 S
C362   O392    1.400   .     S
C362   O406    1.220   .     D
C363   N389    1.358   .     A
C363   C370    1.407   .     A
C363   H377    1.082   .     S
C364   O393    1.221   .     D
C364   O394    1.399   .     S
C365   O396    1.401   .     S
C365   O395    1.221   .     D
C366   O398    1.399   .     S
C366   O397    1.221   .     D
C367   N390    1.358   .     A
C367   C371    1.407   .     A
C367   H381    1.082   .     S
C368   N389    1.358   .     A
C368   H382    1.082   .     S
C368   C372    1.407   .     A
C369   H383    1.082   .     S
C369   N390    1.358   .     A
C370   Cl373   1.765   .     S
C371   Cl374   1.765   .     S
C372   Cl375   1.765   .     S
H378   O394    1.014   .     S
H379   O396    1.014   .     S
H380   O398    1.014   .     S
H388   O392    1.014   .     S
N389   Zn408   2.010   .     S
N390   Zn407   2.010   .     S
O391   Zn407   2.001   .     S
O399   Zn408   2.001   .     S
O400   Zn407   2.001   .     S
O401   Zn408   2.001   .     S
O402   Zn407   1.947   .     S
O403   Zn408   1.947   .     S
O404   Zn407   1.946   .     S
O405   Zn408   1.946   .     S
C409   O459    1.287   .     A
C409   C426    1.437   .     S
C409   O469    1.286   .     A
C410   C414    1.426   .     A
C410   C437    1.407   .     A
C410   Cl444   1.765   .     S
C411   C415    1.364   .     S
C411   O473    1.276   .     A
C411   O470    1.276   .     A
C412   C416    1.364   .     S
C412   O471    1.276   .     A
C412   O472    1.276   .     A
C413   C440    1.426   .     A
C413   C438    1.426   .     A
C414   C439    1.426   .     A
C414   C277    1.547   1_565 S
C416   C687    1.164   .     S
C417   C422    1.390   .     A
C417   C428    1.394   .     A
C417   H452    1.084   .     S
C418   C423    1.386   .     A
C418   H453    1.085   .     S
C418   C429    1.391   .     A
C419   C429    1.394   .     A
C419   C424    1.390   .     A
C419   H454    1.084   .     S
C420   C427    1.437   .     S
C420   O468    1.287   .     A
C420   O467    1.286   .     A
C421   C425    1.386   .     A
C421   H455    1.084   .     S
C421   C428    1.391   .     A
C422   C426    1.421   .     A
C422   C430    1.498   .     S
C423   C427    1.418   .     A
C423   C432    1.489   .     S
C424   C427    1.422   .     A
C424   C433    1.499   .     S
C425   C434    1.489   .     S
C425   C426    1.418   .     A
C428   C497    1.449   1_455 S
C429   C496    1.449   .     S
C430   O460    1.400   .     S
C430   O474    1.220   .     D
C431   N457    1.358   .     A
C431   C438    1.407   .     A
C431   H445    1.082   .     S
C432   O461    1.221   .     D
C432   O462    1.399   .     S
C433   O464    1.401   .     S
C433   O463    1.221   .     D
C434   O466    1.399   .     S
C434   O465    1.221   .     D
C435   N458    1.358   .     A
C435   C439    1.407   .     A
C435   H449    1.082   .     S
C436   N457    1.358   .     A
C436   H450    1.082   .     S
C436   C440    1.407   .     A
C437   H451    1.082   .     S
C437   N458    1.358   .     A
C438   Cl441   1.765   .     S
C439   Cl442   1.765   .     S
C440   Cl443   1.765   .     S
H446   O462    1.014   .     S
H447   O464    1.014   .     S
H448   O466    1.014   .     S
H456   O460    1.014   .     S
N457   Zn476   2.010   .     S
N458   Zn475   2.010   .     S
O459   Zn475   2.001   .     S
O467   Zn476   2.001   .     S
O468   Zn475   2.001   .     S
O469   Zn476   2.001   .     S
O470   Zn475   1.947   .     S
O471   Zn476   1.947   .     S
O472   Zn475   1.946   .     S
O473   Zn476   1.946   .     S
C477   O527    1.287   .     A
C477   C494    1.437   .     S
C477   O537    1.286   .     A
C478   C482    1.426   .     A
C478   C505    1.407   .     A
C478   Cl512   1.765   .     S
C479   C483    1.364   .     S
C479   O541    1.276   .     A
C479   O538    1.276   .     A
C480   C484    1.364   .     S
C480   O539    1.276   .     A
C480   O540    1.276   .     A
C481   C508    1.426   .     A
C481   C506    1.426   .     A
C482   C507    1.426   .     A
C482   C345    1.547   1_565 S
C484   C755    1.164   .     S
C485   C490    1.390   .     A
C485   C496    1.394   .     A
C485   H520    1.084   .     S
C486   C491    1.386   .     A
C486   H521    1.085   .     S
C486   C497    1.391   .     A
C487   C497    1.394   .     A
C487   C492    1.390   .     A
C487   H522    1.084   .     S
C488   C495    1.437   .     S
C488   O536    1.287   .     A
C488   O535    1.286   .     A
C489   C493    1.386   .     A
C489   H523    1.084   .     S
C489   C496    1.391   .     A
C490   C494    1.421   .     A
C490   C498    1.498   .     S
C491   C495    1.418   .     A
C491   C500    1.489   .     S
C492   C495    1.422   .     A
C492   C501    1.499   .     S
C493   C502    1.489   .     S
C493   C494    1.418   .     A
C497   C428    1.449   1_655 S
C498   O528    1.400   .     S
C498   O542    1.220   .     D
C499   N525    1.358   .     A
C499   C506    1.407   .     A
C499   H513    1.082   .     S
C500   O529    1.221   .     D
C500   O530    1.399   .     S
C501   O532    1.401   .     S
C501   O531    1.221   .     D
C502   O534    1.399   .     S
C502   O533    1.221   .     D
C503   N526    1.358   .     A
C503   C507    1.407   .     A
C503   H517    1.082   .     S
C504   N525    1.358   .     A
C504   H518    1.082   .     S
C504   C508    1.407   .     A
C505   H519    1.082   .     S
C505   N526    1.358   .     A
C506   Cl509   1.765   .     S
C507   Cl510   1.765   .     S
C508   Cl511   1.765   .     S
H514   O530    1.014   .     S
H515   O532    1.014   .     S
H516   O534    1.014   .     S
H524   O528    1.014   .     S
N525   Zn544   2.010   .     S
N526   Zn543   2.010   .     S
O527   Zn543   2.001   .     S
O535   Zn544   2.001   .     S
O536   Zn543   2.001   .     S
O537   Zn544   2.001   .     S
O538   Zn543   1.947   .     S
O539   Zn544   1.947   .     S
O540   Zn543   1.946   .     S
O541   Zn544   1.946   .     S
C545   O595    1.287   .     A
C545   C562    1.437   .     S
C545   O605    1.286   .     A
C546   C550    1.426   .     A
C546   C573    1.407   .     A
C546   Cl580   1.765   .     S
C547   C551    1.364   .     S
C547   O609    1.276   .     A
C547   O606    1.276   .     A
C548   C552    1.364   .     S
C548   O607    1.276   .     A
C548   O608    1.276   .     A
C549   C576    1.426   .     A
C549   C574    1.426   .     A
C549   C686    1.547   1_545 S
C550   C575    1.426   .     A
C550   C685    1.547   .     S
C552   C7      1.164   1_556 S
C553   C558    1.390   .     A
C553   C564    1.394   .     A
C553   H588    1.084   .     S
C554   C559    1.386   .     A
C554   H589    1.085   .     S
C554   C565    1.391   .     A
C555   C565    1.394   .     A
C555   C560    1.390   .     A
C555   H590    1.084   .     S
C556   C563    1.437   .     S
C556   O604    1.287   .     A
C556   O603    1.286   .     A
C557   C561    1.386   .     A
C557   H591    1.084   .     S
C557   C564    1.391   .     A
C558   C562    1.421   .     A
C558   C566    1.498   .     S
C559   C563    1.418   .     A
C559   C568    1.489   .     S
C560   C563    1.422   .     A
C560   C569    1.499   .     S
C561   C570    1.489   .     S
C561   C562    1.418   .     A
C564   C633    1.449   1_455 S
C565   C632    1.449   .     S
C566   O596    1.400   .     S
C566   O610    1.220   .     D
C567   N593    1.358   .     A
C567   C574    1.407   .     A
C567   H581    1.082   .     S
C568   O597    1.221   .     D
C568   O598    1.399   .     S
C569   O600    1.401   .     S
C569   O599    1.221   .     D
C570   O602    1.399   .     S
C570   O601    1.221   .     D
C571   N594    1.358   .     A
C571   C575    1.407   .     A
C571   H585    1.082   .     S
C572   N593    1.358   .     A
C572   H586    1.082   .     S
C572   C576    1.407   .     A
C573   H587    1.082   .     S
C573   N594    1.358   .     A
C574   Cl577   1.765   .     S
C575   Cl578   1.765   .     S
C576   Cl579   1.765   .     S
H582   O598    1.014   .     S
H583   O600    1.014   .     S
H584   O602    1.014   .     S
H592   O596    1.014   .     S
N593   Zn612   2.010   .     S
N594   Zn611   2.010   .     S
O595   Zn611   2.001   .     S
O603   Zn612   2.001   .     S
O604   Zn611   2.001   .     S
O605   Zn612   2.001   .     S
O606   Zn611   1.947   .     S
O607   Zn612   1.947   .     S
O608   Zn611   1.946   .     S
O609   Zn612   1.946   .     S
C613   O663    1.287   .     A
C613   C630    1.437   .     S
C613   O673    1.286   .     A
C614   C618    1.426   .     A
C614   C641    1.407   .     A
C614   Cl648   1.765   .     S
C615   C619    1.364   .     S
C615   O677    1.276   .     A
C615   O674    1.276   .     A
C616   C620    1.364   .     S
C616   O675    1.276   .     A
C616   O676    1.276   .     A
C617   C644    1.426   .     A
C617   C642    1.426   .     A
C617   C754    1.547   1_545 S
C618   C643    1.426   .     A
C618   C753    1.547   .     S
C620   C75     1.164   1_556 S
C621   C626    1.390   .     A
C621   C632    1.394   .     A
C621   H656    1.084   .     S
C622   C627    1.386   .     A
C622   H657    1.085   .     S
C622   C633    1.391   .     A
C623   C633    1.394   .     A
C623   C628    1.390   .     A
C623   H658    1.084   .     S
C624   C631    1.437   .     S
C624   O672    1.287   .     A
C624   O671    1.286   .     A
C625   C629    1.386   .     A
C625   H659    1.084   .     S
C625   C632    1.391   .     A
C626   C630    1.421   .     A
C626   C634    1.498   .     S
C627   C631    1.418   .     A
C627   C636    1.489   .     S
C628   C631    1.422   .     A
C628   C637    1.499   .     S
C629   C638    1.489   .     S
C629   C630    1.418   .     A
C633   C564    1.449   1_655 S
C634   O664    1.400   .     S
C634   O678    1.220   .     D
C635   N661    1.358   .     A
C635   C642    1.407   .     A
C635   H649    1.082   .     S
C636   O665    1.221   .     D
C636   O666    1.399   .     S
C637   O668    1.401   .     S
C637   O667    1.221   .     D
C638   O670    1.399   .     S
C638   O669    1.221   .     D
C639   N662    1.358   .     A
C639   C643    1.407   .     A
C639   H653    1.082   .     S
C640   N661    1.358   .     A
C640   H654    1.082   .     S
C640   C644    1.407   .     A
C641   H655    1.082   .     S
C641   N662    1.358   .     A
C642   Cl645   1.765   .     S
C643   Cl646   1.765   .     S
C644   Cl647   1.765   .     S
H650   O666    1.014   .     S
H651   O668    1.014   .     S
H652   O670    1.014   .     S
H660   O664    1.014   .     S
N661   Zn680   2.010   .     S
N662   Zn679   2.010   .     S
O663   Zn679   2.001   .     S
O671   Zn680   2.001   .     S
O672   Zn679   2.001   .     S
O673   Zn680   2.001   .     S
O674   Zn679   1.947   .     S
O675   Zn680   1.947   .     S
O676   Zn679   1.946   .     S
O677   Zn680   1.946   .     S
C681   O731    1.287   .     A
C681   C698    1.437   .     S
C681   O741    1.286   .     A
C682   C686    1.426   .     A
C682   C709    1.407   .     A
C682   Cl716   1.765   .     S
C683   C687    1.364   .     S
C683   O745    1.276   .     A
C683   O742    1.276   .     A
C684   C688    1.364   .     S
C684   O743    1.276   .     A
C684   O744    1.276   .     A
C685   C712    1.426   .     A
C685   C710    1.426   .     A
C686   C711    1.426   .     A
C686   C549    1.547   1_565 S
C688   C143    1.164   1_556 S
C689   C694    1.390   .     A
C689   C700    1.394   .     A
C689   H724    1.084   .     S
C690   C695    1.386   .     A
C690   H725    1.085   .     S
C690   C701    1.391   .     A
C691   C701    1.394   .     A
C691   C696    1.390   .     A
C691   H726    1.084   .     S
C692   C699    1.437   .     S
C692   O740    1.287   .     A
C692   O739    1.286   .     A
C693   C697    1.386   .     A
C693   H727    1.084   .     S
C693   C700    1.391   .     A
C694   C698    1.421   .     A
C694   C702    1.498   .     S
C695   C699    1.418   .     A
C695   C704    1.489   .     S
C696   C699    1.422   .     A
C696   C705    1.499   .     S
C697   C706    1.489   .     S
C697   C698    1.418   .     A
C700   C769    1.449   1_455 S
C701   C768    1.449   .     S
C702   O732    1.400   .     S
C702   O746    1.220   .     D
C703   N729    1.358   .     A
C703   C710    1.407   .     A
C703   H717    1.082   .     S
C704   O733    1.221   .     D
C704   O734    1.399   .     S
C705   O736    1.401   .     S
C705   O735    1.221   .     D
C706   O738    1.399   .     S
C706   O737    1.221   .     D
C707   N730    1.358   .     A
C707   C711    1.407   .     A
C707   H721    1.082   .     S
C708   N729    1.358   .     A
C708   H722    1.082   .     S
C708   C712    1.407   .     A
C709   H723    1.082   .     S
C709   N730    1.358   .     A
C710   Cl713   1.765   .     S
C711   Cl714   1.765   .     S
C712   Cl715   1.765   .     S
H718   O734    1.014   .     S
H719   O736    1.014   .     S
H720   O738    1.014   .     S
H728   O732    1.014   .     S
N729   Zn748   2.010   .     S
N730   Zn747   2.010   .     S
O731   Zn747   2.001   .     S
O739   Zn748   2.001   .     S
O740   Zn747   2.001   .     S
O741   Zn748   2.001   .     S
O742   Zn747   1.947   .     S
O743   Zn748   1.947   .     S
O744   Zn747   1.946   .     S
O745   Zn748   1.946   .     S
C749   O799    1.287   .     A
C749   C766    1.437   .     S
C749   O809    1.286   .     A
C750   C754    1.426   .     A
C750   C777    1.407   .     A
C750   Cl784   1.765   .     S
C751   C755    1.364   .     S
C751   O813    1.276   .     A
C751   O810    1.276   .     A
C752   C756    1.364   .     S
C752   O811    1.276   .     A
C752   O812    1.276   .     A
C753   C780    1.426   .     A
C753   C778    1.426   .     A
C754   C779    1.426   .     A
C754   C617    1.547   1_565 S
C756   C211    1.164   1_556 S
C757   C762    1.390   .     A
C757   C768    1.394   .     A
C757   H792    1.084   .     S
C758   C763    1.386   .     A
C758   H793    1.085   .     S
C758   C769    1.391   .     A
C759   C769    1.394   .     A
C759   C764    1.390   .     A
C759   H794    1.084   .     S
C760   C767    1.437   .     S
C760   O808    1.287   .     A
C760   O807    1.286   .     A
C761   C765    1.386   .     A
C761   H795    1.084   .     S
C761   C768    1.391   .     A
C762   C766    1.421   .     A
C762   C770    1.498   .     S
C763   C767    1.418   .     A
C763   C772    1.489   .     S
C764   C767    1.422   .     A
C764   C773    1.499   .     S
C765   C774    1.489   .     S
C765   C766    1.418   .     A
C769   C700    1.449   1_655 S
C770   O800    1.400   .     S
C770   O814    1.220   .     D
C771   N797    1.358   .     A
C771   C778    1.407   .     A
C771   H785    1.082   .     S
C772   O801    1.221   .     D
C772   O802    1.399   .     S
C773   O804    1.401   .     S
C773   O803    1.221   .     D
C774   O806    1.399   .     S
C774   O805    1.221   .     D
C775   N798    1.358   .     A
C775   C779    1.407   .     A
C775   H789    1.082   .     S
C776   N797    1.358   .     A
C776   H790    1.082   .     S
C776   C780    1.407   .     A
C777   H791    1.082   .     S
C777   N798    1.358   .     A
C778   Cl781   1.765   .     S
C779   Cl782   1.765   .     S
C780   Cl783   1.765   .     S
H786   O802    1.014   .     S
H787   O804    1.014   .     S
H788   O806    1.014   .     S
H796   O800    1.014   .     S
N797   Zn816   2.010   .     S
N798   Zn815   2.010   .     S
O799   Zn815   2.001   .     S
O807   Zn816   2.001   .     S
O808   Zn815   2.001   .     S
O809   Zn816   2.001   .     S
O810   Zn815   1.947   .     S
O811   Zn816   1.947   .     S
O812   Zn815   1.946   .     S
O813   Zn816   1.946   .     S
