data_str_m1_o1_o17_pcu_sym.52
_audit_creation_date              2020-01-03
_audit_creation_method            'Materials Studio'
_symmetry_space_group_name_H-M    'P1'
_symmetry_Int_Tables_number       1
_symmetry_cell_setting            triclinic
loop_
_symmetry_equiv_pos_as_xyz
  x,y,z
_cell_length_a                    36.6516
_cell_length_b                    36.6511
_cell_length_c                    34.4794
_cell_angle_alpha                 90.0050
_cell_angle_beta                  90.0004
_cell_angle_gamma                 90.0222
loop_
_atom_site_label
_atom_site_type_symbol
_atom_site_fract_x
_atom_site_fract_y
_atom_site_fract_z
_atom_site_U_iso_or_equiv
_atom_site_adp_type
_atom_site_occupancy
C1     C     0.46791   0.24251   0.41853   0.00000  Uiso   1.00
C2     C     0.28212   0.00736   0.08146   0.00000  Uiso   1.00
C3     C     0.25640   0.03287   0.54080   0.00000  Uiso   1.00
C4     C     0.46717   0.24275   0.45918   0.00000  Uiso   1.00
C5     C     0.03283   0.25719   0.54082   0.00000  Uiso   1.00
C6     C     0.25547   0.03309   0.45921   0.00000  Uiso   1.00
C7     C     0.24231   0.46710   0.54083   0.00000  Uiso   1.00
C8     C     0.28286   0.00711   0.95919   0.00000  Uiso   1.00
C9     C     0.21714   0.49289   0.04081   0.00000  Uiso   1.00
C10    C     0.49292   0.21714   0.95918   0.00000  Uiso   1.00
C11    C     0.00707   0.28287   0.04082   0.00000  Uiso   1.00
C12    C     0.21714   0.49288   0.95918   0.00000  Uiso   1.00
C13    C     0.00732   0.28213   0.91854   0.00000  Uiso   1.00
C14    C     0.28286   0.00711   0.04082   0.00000  Uiso   1.00
C15    C     0.00707   0.28287   0.95919   0.00000  Uiso   1.00
C16    C     0.49293   0.21713   0.04081   0.00000  Uiso   1.00
C17    C     0.09813   0.34813   0.25001   0.00000  Uiso   1.00
C18    C     0.40187   0.15187   0.75000   0.00000  Uiso   1.00
C19    C     0.15187   0.09813   0.25000   0.00000  Uiso   1.00
C20    C     0.34813   0.40187   0.75000   0.00000  Uiso   1.00
C21    C     0.40187   0.15187   0.25000   0.00000  Uiso   1.00
C22    C     0.09813   0.34813   0.75000   0.00000  Uiso   1.00
C23    C     0.34813   0.40187   0.25000   0.00000  Uiso   1.00
C24    C     0.49268   0.21787   0.08146   0.00000  Uiso   1.00
C25    C     0.15187   0.09813   0.75000   0.00000  Uiso   1.00
C26    C     0.09813   0.15187   0.75000   0.00000  Uiso   1.00
C27    C     0.40187   0.34813   0.25000   0.00000  Uiso   1.00
C28    C     0.15187   0.40187   0.75000   0.00000  Uiso   1.00
C29    C     0.34813   0.09813   0.25000   0.00000  Uiso   1.00
C30    C     0.40187   0.34813   0.75000   0.00000  Uiso   1.00
C31    C     0.09813   0.15187   0.25000   0.00000  Uiso   1.00
C32    C     0.34813   0.09813   0.75000   0.00000  Uiso   1.00
C33    C     0.15187   0.40188   0.25001   0.00000  Uiso   1.00
C34    C    -0.00000   0.24998   0.47963   0.00000  Uiso   1.00
C35    C     0.28212   0.00736   0.91854   0.00000  Uiso   1.00
C36    C    -0.00000   0.24997   0.52037   0.00000  Uiso   1.00
C37    C     0.24836   0.00020   0.47964   0.00000  Uiso   1.00
C38    C     0.24901   0.00005   0.52037   0.00000  Uiso   1.00
C39    C     0.25000  -0.00000   0.97963   0.00000  Uiso   1.00
C40    C     0.25000  -0.00000   0.02037   0.00000  Uiso   1.00
C41    C     0.49999   0.25000   0.97963   0.00000  Uiso   1.00
C42    C    -0.00000   0.25000   0.02037   0.00000  Uiso   1.00
C43    C     0.10037   0.27058   0.45846   0.00000  Uiso   1.00
C44    C     0.39963   0.22944   0.54155   0.00000  Uiso   1.00
C45    C     0.22441   0.40052   0.45827   0.00000  Uiso   1.00
C46    C     0.21788   0.49264   0.08146   0.00000  Uiso   1.00
C47    C     0.26932   0.10043   0.54163   0.00000  Uiso   1.00
C48    C     0.39961   0.22949   0.45845   0.00000  Uiso   1.00
C49    C     0.10039   0.27037   0.54156   0.00000  Uiso   1.00
C50    C     0.26811   0.10082   0.45855   0.00000  Uiso   1.00
C51    C     0.22747   0.39969   0.54147   0.00000  Uiso   1.00
C52    C     0.35047   0.02009   0.95845   0.00000  Uiso   1.00
C53    C     0.14953   0.47990   0.04155   0.00000  Uiso   1.00
C54    C     0.48001   0.14951   0.95843   0.00000  Uiso   1.00
C55    C     0.01996   0.35049   0.04157   0.00000  Uiso   1.00
C56    C     0.14954   0.47988   0.95844   0.00000  Uiso   1.00
C57    C     0.49267   0.21787   0.91854   0.00000  Uiso   1.00
C58    C     0.35047   0.02010   0.04156   0.00000  Uiso   1.00
C59    C     0.01995   0.35050   0.95846   0.00000  Uiso   1.00
C60    C     0.48004   0.14950   0.04154   0.00000  Uiso   1.00
C61    C     0.00732   0.28213   0.08146   0.00000  Uiso   1.00
C62    C    -0.00000   0.25000   0.39836   0.00000  Uiso   1.00
C63    C    -0.00000   0.24997   0.60164   0.00000  Uiso   1.00
C64    C     0.24934   0.00007   0.39837   0.00000  Uiso   1.00
C65    C     0.03210   0.25743   0.58146   0.00000  Uiso   1.00
C66    C     0.24988   0.49997   0.60163   0.00000  Uiso   1.00
C67    C     0.25000  -0.00000   0.89836   0.00000  Uiso   1.00
C68    C     0.25000   0.00000   0.10164   0.00000  Uiso   1.00
C69    C    -0.00000   0.25000   0.89836   0.00000  Uiso   1.00
C70    C     0.00000   0.25000   0.10164   0.00000  Uiso   1.00
C71    C     0.06559   0.26442   0.47958   0.00000  Uiso   1.00
C72    C     0.43441   0.23554   0.52042   0.00000  Uiso   1.00
C73    C     0.23335   0.43471   0.47953   0.00000  Uiso   1.00
C74    C     0.26312   0.06572   0.52043   0.00000  Uiso   1.00
C75    C     0.43440   0.23555   0.47957   0.00000  Uiso   1.00
C76    C     0.25595   0.03233   0.41858   0.00000  Uiso   1.00
C77    C     0.06559   0.26437   0.52043   0.00000  Uiso   1.00
C78    C     0.26257   0.06588   0.47961   0.00000  Uiso   1.00
C79    C     0.23472   0.43438   0.52042   0.00000  Uiso   1.00
C80    C     0.31565   0.01417   0.97958   0.00000  Uiso   1.00
C81    C     0.18435   0.48583   0.02042   0.00000  Uiso   1.00
C82    C     0.48591   0.18433   0.97957   0.00000  Uiso   1.00
C83    C     0.01408   0.31567   0.02043   0.00000  Uiso   1.00
C84    C     0.18435   0.48582   0.97958   0.00000  Uiso   1.00
C85    C     0.31565   0.01417   0.02043   0.00000  Uiso   1.00
C86    C     0.01408   0.31567   0.97959   0.00000  Uiso   1.00
C87    C     0.24235   0.46787   0.58150   0.00000  Uiso   1.00
C88    C     0.48592   0.18433   0.02042   0.00000  Uiso   1.00
C89    C     0.24996   0.00001   0.35595   0.00000  Uiso   1.00
C90    C     0.25000  -0.00000   0.64405   0.00000  Uiso   1.00
C91    C    -0.00000   0.25000   0.35595   0.00000  Uiso   1.00
C92    C    -0.00000   0.24999   0.64405   0.00000  Uiso   1.00
C93    C    -0.00000   0.25000   0.85595   0.00000  Uiso   1.00
C94    C     0.00000   0.25000   0.14405   0.00000  Uiso   1.00
C95    C     0.25000  -0.00000   0.85595   0.00000  Uiso   1.00
C96    C     0.25000   0.00000   0.14405   0.00000  Uiso   1.00
C97    C     0.17994   0.07006   0.25000   0.00000  Uiso   1.00
C98    C     0.03209   0.25750   0.41854   0.00000  Uiso   1.00
C99    C     0.32006   0.42994   0.75000   0.00000  Uiso   1.00
C100   C     0.42994   0.17994   0.25000   0.00000  Uiso   1.00
C101   C     0.07006   0.32006   0.75000   0.00000  Uiso   1.00
C102   C     0.32006   0.42994   0.25000   0.00000  Uiso   1.00
C103   C     0.17994   0.07006   0.75000   0.00000  Uiso   1.00
C104   C     0.07006   0.32006   0.25000   0.00000  Uiso   1.00
C105   C     0.42994   0.17994   0.75000   0.00000  Uiso   1.00
C106   C     0.17994   0.42994   0.75000   0.00000  Uiso   1.00
C107   C     0.32006   0.07006   0.25000   0.00000  Uiso   1.00
C108   C     0.42994   0.32006   0.75000   0.00000  Uiso   1.00
C109   C     0.46790   0.24250   0.58146   0.00000  Uiso   1.00
C110   C     0.07006   0.17994   0.25000   0.00000  Uiso   1.00
C111   C     0.32006   0.07006   0.75000   0.00000  Uiso   1.00
C112   C     0.17994   0.42994   0.25000   0.00000  Uiso   1.00
C113   C     0.07006   0.17994   0.75000   0.00000  Uiso   1.00
C114   C     0.42994   0.32006   0.25000   0.00000  Uiso   1.00
C115   C     0.12218   0.40455   0.22454   0.00000  Uiso   1.00
C116   C     0.37786   0.09540   0.77540   0.00000  Uiso   1.00
C117   C     0.09521   0.12194   0.22488   0.00000  Uiso   1.00
C118   C     0.40479   0.37806   0.77512   0.00000  Uiso   1.00
C119   C     0.37786   0.09540   0.22460   0.00000  Uiso   1.00
C120   C     0.24197   0.46794   0.41851   0.00000  Uiso   1.00
C121   C     0.12214   0.40460   0.77540   0.00000  Uiso   1.00
C122   C     0.40480   0.37806   0.22489   0.00000  Uiso   1.00
C123   C     0.09521   0.12194   0.77512   0.00000  Uiso   1.00
C124   C     0.12194   0.09521   0.77512   0.00000  Uiso   1.00
C125   C     0.37806   0.40480   0.22489   0.00000  Uiso   1.00
C126   C     0.09540   0.37786   0.77540   0.00000  Uiso   1.00
C127   C     0.40460   0.12214   0.22460   0.00000  Uiso   1.00
C128   C     0.37806   0.40480   0.77512   0.00000  Uiso   1.00
C129   C     0.12194   0.09521   0.22488   0.00000  Uiso   1.00
C130   C     0.40460   0.12214   0.77540   0.00000  Uiso   1.00
C131   C     0.25709   0.03209   0.58143   0.00000  Uiso   1.00
C132   C     0.09544   0.37781   0.22454   0.00000  Uiso   1.00
C133   C     0.37214   0.15460   0.72460   0.00000  Uiso   1.00
C134   C     0.12781   0.34546   0.27548   0.00000  Uiso   1.00
C135   C     0.34521   0.37194   0.72488   0.00000  Uiso   1.00
C136   C     0.15479   0.12806   0.27513   0.00000  Uiso   1.00
C137   C     0.12786   0.34540   0.72460   0.00000  Uiso   1.00
C138   C     0.37214   0.15461   0.27540   0.00000  Uiso   1.00
C139   C     0.15479   0.12806   0.72488   0.00000  Uiso   1.00
C140   C     0.34520   0.37194   0.27511   0.00000  Uiso   1.00
C141   C     0.37193   0.34520   0.27511   0.00000  Uiso   1.00
C142   C     0.21788   0.49264   0.91854   0.00000  Uiso   1.00
C143   C     0.12806   0.15479   0.72488   0.00000  Uiso   1.00
C144   C     0.34540   0.12787   0.27540   0.00000  Uiso   1.00
C145   C     0.15460   0.37214   0.72460   0.00000  Uiso   1.00
C146   C     0.12805   0.15479   0.27513   0.00000  Uiso   1.00
C147   C     0.37194   0.34521   0.72488   0.00000  Uiso   1.00
C148   C     0.15454   0.37220   0.27549   0.00000  Uiso   1.00
C149   C     0.34540   0.12786   0.72460   0.00000  Uiso   1.00
C150   C     0.03283   0.25724   0.45919   0.00000  Uiso   1.00
C151   C     0.46717   0.24273   0.54081   0.00000  Uiso   1.00
C152   C     0.24083   0.46744   0.45917   0.00000  Uiso   1.00
H153   H     0.11959   0.42724   0.20460   0.00000  Uiso   1.00
H154   H     0.38087   0.42769   0.20525   0.00000  Uiso   1.00
H155   H     0.07267   0.38050   0.79528   0.00000  Uiso   1.00
H156   H     0.42733   0.11950   0.20473   0.00000  Uiso   1.00
H157   H     0.38086   0.42769   0.79477   0.00000  Uiso   1.00
H158   H     0.11915   0.07232   0.20522   0.00000  Uiso   1.00
H159   H     0.42733   0.11951   0.79528   0.00000  Uiso   1.00
H160   H     0.07275   0.38041   0.20460   0.00000  Uiso   1.00
H161   H     0.36951   0.17732   0.70472   0.00000  Uiso   1.00
H162   H     0.13040   0.32277   0.29542   0.00000  Uiso   1.00
H163   H     0.32232   0.36914   0.70523   0.00000  Uiso   1.00
H164   H     0.38049   0.07268   0.79528   0.00000  Uiso   1.00
H165   H     0.17768   0.13085   0.29478   0.00000  Uiso   1.00
H166   H     0.13049   0.32267   0.70472   0.00000  Uiso   1.00
H167   H     0.36950   0.17734   0.29527   0.00000  Uiso   1.00
H168   H     0.17768   0.13085   0.70523   0.00000  Uiso   1.00
H169   H     0.32231   0.36913   0.29475   0.00000  Uiso   1.00
H170   H     0.36913   0.32231   0.29475   0.00000  Uiso   1.00
H171   H     0.13086   0.17768   0.70523   0.00000  Uiso   1.00
H172   H     0.32266   0.13050   0.29527   0.00000  Uiso   1.00
H173   H     0.17733   0.36950   0.70472   0.00000  Uiso   1.00
H174   H     0.13085   0.17768   0.29478   0.00000  Uiso   1.00
H175   H     0.07232   0.11914   0.20522   0.00000  Uiso   1.00
H176   H     0.36914   0.32231   0.70523   0.00000  Uiso   1.00
H177   H     0.17723   0.36961   0.29542   0.00000  Uiso   1.00
H178   H     0.32267   0.13049   0.70472   0.00000  Uiso   1.00
H179   H     0.44358   0.23615   0.40210   0.00000  Uiso   1.00
H180   H     0.05644   0.26375   0.59789   0.00000  Uiso   1.00
H181   H     0.26221   0.05670   0.40218   0.00000  Uiso   1.00
H182   H     0.23596   0.44366   0.59805   0.00000  Uiso   1.00
H183   H     0.05642   0.26386   0.40211   0.00000  Uiso   1.00
H184   H     0.44356   0.23618   0.59789   0.00000  Uiso   1.00
H185   H     0.23743   0.44327   0.40202   0.00000  Uiso   1.00
H186   H     0.42768   0.38086   0.79477   0.00000  Uiso   1.00
H187   H     0.26341   0.05646   0.59782   0.00000  Uiso   1.00
H188   H     0.19352   0.48639   0.90211   0.00000  Uiso   1.00
H189   H     0.30648   0.01362   0.09789   0.00000  Uiso   1.00
H190   H     0.01354   0.30650   0.90212   0.00000  Uiso   1.00
H191   H     0.48645   0.19350   0.09788   0.00000  Uiso   1.00
H192   H     0.30648   0.01361   0.90211   0.00000  Uiso   1.00
H193   H     0.19352   0.48638   0.09789   0.00000  Uiso   1.00
H194   H     0.48646   0.19350   0.90211   0.00000  Uiso   1.00
H195   H     0.01355   0.30649   0.09789   0.00000  Uiso   1.00
H196   H     0.14035   0.30577   0.44380   0.00000  Uiso   1.00
H197   H     0.38050   0.07266   0.20473   0.00000  Uiso   1.00
H198   H     0.35973   0.19425   0.55646   0.00000  Uiso   1.00
H199   H     0.19068   0.37471   0.42106   0.00000  Uiso   1.00
H200   H     0.30489   0.13965   0.55753   0.00000  Uiso   1.00
H201   H     0.35952   0.19442   0.44380   0.00000  Uiso   1.00
H202   H     0.14035   0.30545   0.55654   0.00000  Uiso   1.00
H203   H     0.30227   0.14199   0.44485   0.00000  Uiso   1.00
H204   H     0.19258   0.35825   0.55177   0.00000  Uiso   1.00
H205   H     0.39062   0.05504   0.94368   0.00000  Uiso   1.00
H206   H     0.10934   0.44498   0.05626   0.00000  Uiso   1.00
H207   H     0.44508   0.10938   0.94357   0.00000  Uiso   1.00
H208   H     0.11951   0.42733   0.79528   0.00000  Uiso   1.00
H209   H     0.05484   0.39069   0.05636   0.00000  Uiso   1.00
H210   H     0.10944   0.44490   0.94360   0.00000  Uiso   1.00
H211   H     0.39063   0.05504   0.05633   0.00000  Uiso   1.00
H212   H     0.05482   0.39072   0.94372   0.00000  Uiso   1.00
H213   H     0.44519   0.10924   0.05623   0.00000  Uiso   1.00
H214   H     0.42769   0.38086   0.20525   0.00000  Uiso   1.00
H215   H     0.07232   0.11915   0.79477   0.00000  Uiso   1.00
H216   H     0.11914   0.07232   0.79477   0.00000  Uiso   1.00
O217   O     0.25000   0.00000   0.25000   0.00000  Uiso   1.00
O218   O     0.25000   0.46963   0.66245   0.00000  Uiso   1.00
O219   O     0.46964   0.25000   0.33755   0.00000  Uiso   1.00
O220   O     0.03037   0.25000   0.66245   0.00000  Uiso   1.00
O221   O     0.00000   0.21963   0.83755   0.00000  Uiso   1.00
O222   O     0.00000   0.28036   0.16245   0.00000  Uiso   1.00
O223   O     0.28037  -0.00000   0.83755   0.00000  Uiso   1.00
O224   O     0.21964   0.00000   0.16245   0.00000  Uiso   1.00
O225   O     0.00000   0.28036   0.83755   0.00000  Uiso   1.00
O226   O     0.00000   0.21963   0.16245   0.00000  Uiso   1.00
O227   O     0.21964  -0.00000   0.83755   0.00000  Uiso   1.00
O228   O     0.25000  -0.00000   0.75000   0.00000  Uiso   1.00
O229   O     0.28037   0.00000   0.16245   0.00000  Uiso   1.00
O230   O     0.20725   0.07308   0.27302   0.00000  Uiso   1.00
O231   O     0.29276   0.42693   0.72698   0.00000  Uiso   1.00
O232   O     0.42693   0.20725   0.27302   0.00000  Uiso   1.00
O233   O     0.07308   0.29275   0.72698   0.00000  Uiso   1.00
O234   O     0.29276   0.42693   0.27302   0.00000  Uiso   1.00
O235   O     0.20725   0.07308   0.72698   0.00000  Uiso   1.00
O236   O     0.07308   0.29275   0.27302   0.00000  Uiso   1.00
O237   O     0.42693   0.20725   0.72698   0.00000  Uiso   1.00
O238   O     0.20725   0.42692   0.72698   0.00000  Uiso   1.00
O239   O     0.00000   0.25000   0.25000   0.00000  Uiso   1.00
O240   O     0.29276   0.07308   0.27302   0.00000  Uiso   1.00
O241   O     0.42693   0.29276   0.72698   0.00000  Uiso   1.00
O242   O     0.07308   0.20724   0.27302   0.00000  Uiso   1.00
O243   O     0.29276   0.07308   0.72698   0.00000  Uiso   1.00
O244   O     0.20725   0.42692   0.27302   0.00000  Uiso   1.00
O245   O     0.07308   0.20724   0.72698   0.00000  Uiso   1.00
O246   O     0.42693   0.29276   0.27302   0.00000  Uiso   1.00
O247   O     0.45725   0.32308   0.77302   0.00000  Uiso   1.00
O248   O     0.04276   0.17692   0.22698   0.00000  Uiso   1.00
O249   O     0.17693   0.45724   0.77302   0.00000  Uiso   1.00
O250   O     0.00000   0.25000   0.75000   0.00000  Uiso   1.00
O251   O     0.32308   0.04276   0.22698   0.00000  Uiso   1.00
O252   O     0.04276   0.17692   0.77302   0.00000  Uiso   1.00
O253   O     0.45725   0.32308   0.22698   0.00000  Uiso   1.00
O254   O     0.32308   0.04276   0.77302   0.00000  Uiso   1.00
O255   O     0.17693   0.45724   0.22698   0.00000  Uiso   1.00
O256   O     0.45725   0.17693   0.22698   0.00000  Uiso   1.00
O257   O     0.04276   0.32307   0.77302   0.00000  Uiso   1.00
O258   O     0.17693   0.04276   0.22698   0.00000  Uiso   1.00
O259   O     0.32308   0.45725   0.77302   0.00000  Uiso   1.00
O260   O     0.04276   0.32307   0.22698   0.00000  Uiso   1.00
O261   O     0.25000   0.46963   0.33755   0.00000  Uiso   1.00
O262   O     0.45725   0.17693   0.77302   0.00000  Uiso   1.00
O263   O     0.32308   0.45725   0.22698   0.00000  Uiso   1.00
O264   O     0.17693   0.04276   0.77302   0.00000  Uiso   1.00
O265   O     0.11442   0.24554   0.44040   0.00000  Uiso   1.00
O266   O     0.11681   0.30498   0.45921   0.00000  Uiso   1.00
O267   O     0.38551   0.25456   0.55942   0.00000  Uiso   1.00
O268   O     0.38328   0.19499   0.54106   0.00000  Uiso   1.00
O269   O     0.24336   0.37337   0.46259   0.00000  Uiso   1.00
O270   O     0.19404   0.39944   0.43375   0.00000  Uiso   1.00
O271   O     0.24403   0.11502   0.55878   0.00000  Uiso   1.00
O272   O     0.25000   0.03037   0.66245   0.00000  Uiso   1.00
O273   O     0.30408   0.11609   0.54215   0.00000  Uiso   1.00
O274   O     0.38564   0.25456   0.44038   0.00000  Uiso   1.00
O275   O     0.38306   0.19514   0.45920   0.00000  Uiso   1.00
O276   O     0.11444   0.24521   0.55941   0.00000  Uiso   1.00
O277   O     0.11682   0.30478   0.54111   0.00000  Uiso   1.00
O278   O     0.24309   0.11402   0.43976   0.00000  Uiso   1.00
O279   O     0.30189   0.11844   0.46028   0.00000  Uiso   1.00
O280   O     0.25084   0.38665   0.56264   0.00000  Uiso   1.00
O281   O     0.19419   0.38169   0.53625   0.00000  Uiso   1.00
O282   O     0.36440   0.49494   0.94048   0.00000  Uiso   1.00
O283   O     0.03037   0.25000   0.33755   0.00000  Uiso   1.00
O284   O     0.36707   0.05441   0.95908   0.00000  Uiso   1.00
O285   O     0.13563   0.00504   0.05957   0.00000  Uiso   1.00
O286   O     0.13289   0.44560   0.04085   0.00000  Uiso   1.00
O287   O     0.00520   0.13557   0.94052   0.00000  Uiso   1.00
O288   O     0.44568   0.13293   0.95898   0.00000  Uiso   1.00
O289   O     0.49478   0.36439   0.05953   0.00000  Uiso   1.00
O290   O     0.05426   0.36714   0.04096   0.00000  Uiso   1.00
O291   O     0.13557   0.00505   0.94052   0.00000  Uiso   1.00
O292   O     0.13299   0.44553   0.95900   0.00000  Uiso   1.00
O293   O     0.36439   0.49494   0.05954   0.00000  Uiso   1.00
O294   O     0.46964   0.25000   0.66245   0.00000  Uiso   1.00
O295   O     0.36707   0.05441   0.04092   0.00000  Uiso   1.00
O296   O     0.49478   0.36438   0.94047   0.00000  Uiso   1.00
O297   O     0.05424   0.36717   0.95912   0.00000  Uiso   1.00
O298   O     0.00520   0.13564   0.05957   0.00000  Uiso   1.00
O299   O     0.44577   0.13280   0.04082   0.00000  Uiso   1.00
O300   O     0.25000   0.03037   0.33755   0.00000  Uiso   1.00
Zn301  Zn    0.20660   0.00000   0.21735   0.00000  Uiso   1.00
Zn302  Zn    0.04341   0.25000   0.28265   0.00000  Uiso   1.00
Zn303  Zn    0.25000   0.45659   0.71735   0.00000  Uiso   1.00
Zn304  Zn    0.25000   0.04341   0.28265   0.00000  Uiso   1.00
Zn305  Zn    0.04341   0.25000   0.71735   0.00000  Uiso   1.00
Zn306  Zn    0.45660   0.25000   0.28265   0.00000  Uiso   1.00
Zn307  Zn    0.25000   0.04341   0.71735   0.00000  Uiso   1.00
Zn308  Zn    0.25000   0.45659   0.28265   0.00000  Uiso   1.00
Zn309  Zn    0.29341   0.00000   0.78265   0.00000  Uiso   1.00
Zn310  Zn    0.00000   0.20660   0.21735   0.00000  Uiso   1.00
Zn311  Zn    0.00000   0.29340   0.78265   0.00000  Uiso   1.00
Zn312  Zn    0.29341   0.00000   0.21735   0.00000  Uiso   1.00
Zn313  Zn    0.20660   0.00000   0.78265   0.00000  Uiso   1.00
Zn314  Zn    0.00000   0.29341   0.21735   0.00000  Uiso   1.00
Zn315  Zn    0.00000   0.20659   0.78265   0.00000  Uiso   1.00
Zn316  Zn    0.45660   0.25000   0.71735   0.00000  Uiso   1.00
C317   C     0.96791   0.24251   0.41853   0.00000  Uiso   1.00
C318   C     0.78212   0.00736   0.08146   0.00000  Uiso   1.00
C319   C     0.75640   0.03287   0.54080   0.00000  Uiso   1.00
C320   C     0.96717   0.24275   0.45918   0.00000  Uiso   1.00
C321   C     0.53283   0.25719   0.54082   0.00000  Uiso   1.00
C322   C     0.75547   0.03309   0.45921   0.00000  Uiso   1.00
C323   C     0.74231   0.46710   0.54083   0.00000  Uiso   1.00
C324   C     0.78286   0.00711   0.95919   0.00000  Uiso   1.00
C325   C     0.71714   0.49289   0.04081   0.00000  Uiso   1.00
C326   C     0.99292   0.21714   0.95918   0.00000  Uiso   1.00
C327   C     0.50707   0.28287   0.04082   0.00000  Uiso   1.00
C328   C     0.71714   0.49288   0.95918   0.00000  Uiso   1.00
C329   C     0.50732   0.28213   0.91854   0.00000  Uiso   1.00
C330   C     0.78286   0.00711   0.04082   0.00000  Uiso   1.00
C331   C     0.50707   0.28287   0.95919   0.00000  Uiso   1.00
C332   C     0.99293   0.21713   0.04081   0.00000  Uiso   1.00
C333   C     0.59813   0.34813   0.25001   0.00000  Uiso   1.00
C334   C     0.90187   0.15187   0.75000   0.00000  Uiso   1.00
C335   C     0.65187   0.09813   0.25000   0.00000  Uiso   1.00
C336   C     0.84813   0.40187   0.75000   0.00000  Uiso   1.00
C337   C     0.90187   0.15187   0.25000   0.00000  Uiso   1.00
C338   C     0.59813   0.34813   0.75000   0.00000  Uiso   1.00
C339   C     0.84813   0.40187   0.25000   0.00000  Uiso   1.00
C340   C     0.99268   0.21787   0.08146   0.00000  Uiso   1.00
C341   C     0.65187   0.09813   0.75000   0.00000  Uiso   1.00
C342   C     0.59813   0.15187   0.75000   0.00000  Uiso   1.00
C343   C     0.90187   0.34813   0.25000   0.00000  Uiso   1.00
C344   C     0.65187   0.40187   0.75000   0.00000  Uiso   1.00
C345   C     0.84813   0.09813   0.25000   0.00000  Uiso   1.00
C346   C     0.90187   0.34813   0.75000   0.00000  Uiso   1.00
C347   C     0.59813   0.15187   0.25000   0.00000  Uiso   1.00
C348   C     0.84813   0.09813   0.75000   0.00000  Uiso   1.00
C349   C     0.65187   0.40188   0.25001   0.00000  Uiso   1.00
C350   C     0.50000   0.24998   0.47963   0.00000  Uiso   1.00
C351   C     0.78212   0.00736   0.91854   0.00000  Uiso   1.00
C352   C     0.50000   0.24997   0.52037   0.00000  Uiso   1.00
C353   C     0.74836   0.00020   0.47964   0.00000  Uiso   1.00
C354   C     0.74901   0.00005   0.52037   0.00000  Uiso   1.00
C355   C     0.75000  -0.00000   0.97963   0.00000  Uiso   1.00
C356   C     0.75000  -0.00000   0.02037   0.00000  Uiso   1.00
C357   C     0.99999   0.25000   0.97963   0.00000  Uiso   1.00
C358   C     0.50000   0.25000   0.02037   0.00000  Uiso   1.00
C359   C     0.60037   0.27058   0.45846   0.00000  Uiso   1.00
C360   C     0.89963   0.22944   0.54155   0.00000  Uiso   1.00
C361   C     0.72441   0.40052   0.45827   0.00000  Uiso   1.00
C362   C     0.71788   0.49264   0.08146   0.00000  Uiso   1.00
C363   C     0.76932   0.10043   0.54163   0.00000  Uiso   1.00
C364   C     0.89961   0.22949   0.45845   0.00000  Uiso   1.00
C365   C     0.60039   0.27037   0.54156   0.00000  Uiso   1.00
C366   C     0.76811   0.10082   0.45855   0.00000  Uiso   1.00
C367   C     0.72747   0.39969   0.54147   0.00000  Uiso   1.00
C368   C     0.85047   0.02009   0.95845   0.00000  Uiso   1.00
C369   C     0.64953   0.47990   0.04155   0.00000  Uiso   1.00
C370   C     0.98001   0.14951   0.95843   0.00000  Uiso   1.00
C371   C     0.51996   0.35049   0.04157   0.00000  Uiso   1.00
C372   C     0.64954   0.47988   0.95844   0.00000  Uiso   1.00
C373   C     0.99267   0.21787   0.91854   0.00000  Uiso   1.00
C374   C     0.85047   0.02010   0.04156   0.00000  Uiso   1.00
C375   C     0.51995   0.35050   0.95846   0.00000  Uiso   1.00
C376   C     0.98004   0.14950   0.04154   0.00000  Uiso   1.00
C377   C     0.50732   0.28213   0.08146   0.00000  Uiso   1.00
C378   C     0.50000   0.25000   0.39836   0.00000  Uiso   1.00
C379   C     0.50000   0.24997   0.60164   0.00000  Uiso   1.00
C380   C     0.74934   0.00007   0.39837   0.00000  Uiso   1.00
C381   C     0.53210   0.25743   0.58146   0.00000  Uiso   1.00
C382   C     0.74988   0.49997   0.60163   0.00000  Uiso   1.00
C383   C     0.75000  -0.00000   0.89836   0.00000  Uiso   1.00
C384   C     0.75000   0.00000   0.10164   0.00000  Uiso   1.00
C385   C     0.50000   0.25000   0.89836   0.00000  Uiso   1.00
C386   C     0.50000   0.25000   0.10164   0.00000  Uiso   1.00
C387   C     0.56559   0.26442   0.47958   0.00000  Uiso   1.00
C388   C     0.93441   0.23554   0.52042   0.00000  Uiso   1.00
C389   C     0.73335   0.43471   0.47953   0.00000  Uiso   1.00
C390   C     0.76312   0.06572   0.52043   0.00000  Uiso   1.00
C391   C     0.93440   0.23555   0.47957   0.00000  Uiso   1.00
C392   C     0.75595   0.03233   0.41858   0.00000  Uiso   1.00
C393   C     0.56559   0.26437   0.52043   0.00000  Uiso   1.00
C394   C     0.76257   0.06588   0.47961   0.00000  Uiso   1.00
C395   C     0.73472   0.43438   0.52042   0.00000  Uiso   1.00
C396   C     0.81565   0.01417   0.97958   0.00000  Uiso   1.00
C397   C     0.68435   0.48583   0.02042   0.00000  Uiso   1.00
C398   C     0.98591   0.18433   0.97957   0.00000  Uiso   1.00
C399   C     0.51408   0.31567   0.02043   0.00000  Uiso   1.00
C400   C     0.68435   0.48582   0.97958   0.00000  Uiso   1.00
C401   C     0.81565   0.01417   0.02043   0.00000  Uiso   1.00
C402   C     0.51408   0.31567   0.97959   0.00000  Uiso   1.00
C403   C     0.74235   0.46787   0.58150   0.00000  Uiso   1.00
C404   C     0.98592   0.18433   0.02042   0.00000  Uiso   1.00
C405   C     0.74996   0.00001   0.35595   0.00000  Uiso   1.00
C406   C     0.75000  -0.00000   0.64405   0.00000  Uiso   1.00
C407   C     0.50000   0.25000   0.35595   0.00000  Uiso   1.00
C408   C     0.50000   0.24999   0.64405   0.00000  Uiso   1.00
C409   C     0.50000   0.25000   0.85595   0.00000  Uiso   1.00
C410   C     0.50000   0.25000   0.14405   0.00000  Uiso   1.00
C411   C     0.75000  -0.00000   0.85595   0.00000  Uiso   1.00
C412   C     0.75000   0.00000   0.14405   0.00000  Uiso   1.00
C413   C     0.67994   0.07006   0.25000   0.00000  Uiso   1.00
C414   C     0.53209   0.25750   0.41854   0.00000  Uiso   1.00
C415   C     0.82006   0.42994   0.75000   0.00000  Uiso   1.00
C416   C     0.92994   0.17994   0.25000   0.00000  Uiso   1.00
C417   C     0.57006   0.32006   0.75000   0.00000  Uiso   1.00
C418   C     0.82006   0.42994   0.25000   0.00000  Uiso   1.00
C419   C     0.67994   0.07006   0.75000   0.00000  Uiso   1.00
C420   C     0.57006   0.32006   0.25000   0.00000  Uiso   1.00
C421   C     0.92994   0.17994   0.75000   0.00000  Uiso   1.00
C422   C     0.67994   0.42994   0.75000   0.00000  Uiso   1.00
C423   C     0.82006   0.07006   0.25000   0.00000  Uiso   1.00
C424   C     0.92994   0.32006   0.75000   0.00000  Uiso   1.00
C425   C     0.96790   0.24250   0.58146   0.00000  Uiso   1.00
C426   C     0.57006   0.17994   0.25000   0.00000  Uiso   1.00
C427   C     0.82006   0.07006   0.75000   0.00000  Uiso   1.00
C428   C     0.67994   0.42994   0.25000   0.00000  Uiso   1.00
C429   C     0.57006   0.17994   0.75000   0.00000  Uiso   1.00
C430   C     0.92994   0.32006   0.25000   0.00000  Uiso   1.00
C431   C     0.62218   0.40455   0.22454   0.00000  Uiso   1.00
C432   C     0.87786   0.09540   0.77540   0.00000  Uiso   1.00
C433   C     0.59521   0.12194   0.22488   0.00000  Uiso   1.00
C434   C     0.90479   0.37806   0.77512   0.00000  Uiso   1.00
C435   C     0.87786   0.09540   0.22460   0.00000  Uiso   1.00
C436   C     0.74197   0.46794   0.41851   0.00000  Uiso   1.00
C437   C     0.62214   0.40460   0.77540   0.00000  Uiso   1.00
C438   C     0.90480   0.37806   0.22489   0.00000  Uiso   1.00
C439   C     0.59521   0.12194   0.77512   0.00000  Uiso   1.00
C440   C     0.62194   0.09521   0.77512   0.00000  Uiso   1.00
C441   C     0.87806   0.40480   0.22489   0.00000  Uiso   1.00
C442   C     0.59540   0.37786   0.77540   0.00000  Uiso   1.00
C443   C     0.90460   0.12214   0.22460   0.00000  Uiso   1.00
C444   C     0.87806   0.40480   0.77512   0.00000  Uiso   1.00
C445   C     0.62194   0.09521   0.22488   0.00000  Uiso   1.00
C446   C     0.90460   0.12214   0.77540   0.00000  Uiso   1.00
C447   C     0.75709   0.03209   0.58143   0.00000  Uiso   1.00
C448   C     0.59544   0.37781   0.22454   0.00000  Uiso   1.00
C449   C     0.87214   0.15460   0.72460   0.00000  Uiso   1.00
C450   C     0.62781   0.34546   0.27548   0.00000  Uiso   1.00
C451   C     0.84521   0.37194   0.72488   0.00000  Uiso   1.00
C452   C     0.65479   0.12806   0.27513   0.00000  Uiso   1.00
C453   C     0.62786   0.34540   0.72460   0.00000  Uiso   1.00
C454   C     0.87214   0.15461   0.27540   0.00000  Uiso   1.00
C455   C     0.65479   0.12806   0.72488   0.00000  Uiso   1.00
C456   C     0.84520   0.37194   0.27511   0.00000  Uiso   1.00
C457   C     0.87193   0.34520   0.27511   0.00000  Uiso   1.00
C458   C     0.71788   0.49264   0.91854   0.00000  Uiso   1.00
C459   C     0.62806   0.15479   0.72488   0.00000  Uiso   1.00
C460   C     0.84540   0.12787   0.27540   0.00000  Uiso   1.00
C461   C     0.65460   0.37214   0.72460   0.00000  Uiso   1.00
C462   C     0.62805   0.15479   0.27513   0.00000  Uiso   1.00
C463   C     0.87194   0.34521   0.72488   0.00000  Uiso   1.00
C464   C     0.65454   0.37220   0.27549   0.00000  Uiso   1.00
C465   C     0.84540   0.12786   0.72460   0.00000  Uiso   1.00
C466   C     0.53283   0.25724   0.45919   0.00000  Uiso   1.00
C467   C     0.96717   0.24273   0.54081   0.00000  Uiso   1.00
C468   C     0.74083   0.46744   0.45917   0.00000  Uiso   1.00
H469   H     0.61959   0.42724   0.20460   0.00000  Uiso   1.00
H470   H     0.88087   0.42769   0.20525   0.00000  Uiso   1.00
H471   H     0.57267   0.38050   0.79528   0.00000  Uiso   1.00
H472   H     0.92733   0.11950   0.20473   0.00000  Uiso   1.00
H473   H     0.88086   0.42769   0.79477   0.00000  Uiso   1.00
H474   H     0.61915   0.07232   0.20522   0.00000  Uiso   1.00
H475   H     0.92733   0.11951   0.79528   0.00000  Uiso   1.00
H476   H     0.57275   0.38041   0.20460   0.00000  Uiso   1.00
H477   H     0.86951   0.17732   0.70472   0.00000  Uiso   1.00
H478   H     0.63040   0.32277   0.29542   0.00000  Uiso   1.00
H479   H     0.82232   0.36914   0.70523   0.00000  Uiso   1.00
H480   H     0.88049   0.07268   0.79528   0.00000  Uiso   1.00
H481   H     0.67768   0.13085   0.29478   0.00000  Uiso   1.00
H482   H     0.63049   0.32267   0.70472   0.00000  Uiso   1.00
H483   H     0.86950   0.17734   0.29527   0.00000  Uiso   1.00
H484   H     0.67768   0.13085   0.70523   0.00000  Uiso   1.00
H485   H     0.82231   0.36913   0.29475   0.00000  Uiso   1.00
H486   H     0.86913   0.32231   0.29475   0.00000  Uiso   1.00
H487   H     0.63086   0.17768   0.70523   0.00000  Uiso   1.00
H488   H     0.82266   0.13050   0.29527   0.00000  Uiso   1.00
H489   H     0.67733   0.36950   0.70472   0.00000  Uiso   1.00
H490   H     0.63085   0.17768   0.29478   0.00000  Uiso   1.00
H491   H     0.57232   0.11914   0.20522   0.00000  Uiso   1.00
H492   H     0.86914   0.32231   0.70523   0.00000  Uiso   1.00
H493   H     0.67723   0.36961   0.29542   0.00000  Uiso   1.00
H494   H     0.82267   0.13049   0.70472   0.00000  Uiso   1.00
H495   H     0.94358   0.23615   0.40210   0.00000  Uiso   1.00
H496   H     0.55644   0.26375   0.59789   0.00000  Uiso   1.00
H497   H     0.76221   0.05670   0.40218   0.00000  Uiso   1.00
H498   H     0.73596   0.44366   0.59805   0.00000  Uiso   1.00
H499   H     0.55642   0.26386   0.40211   0.00000  Uiso   1.00
H500   H     0.94356   0.23618   0.59789   0.00000  Uiso   1.00
H501   H     0.73743   0.44327   0.40202   0.00000  Uiso   1.00
H502   H     0.92768   0.38086   0.79477   0.00000  Uiso   1.00
H503   H     0.76341   0.05646   0.59782   0.00000  Uiso   1.00
H504   H     0.69352   0.48639   0.90211   0.00000  Uiso   1.00
H505   H     0.80648   0.01362   0.09789   0.00000  Uiso   1.00
H506   H     0.51354   0.30650   0.90212   0.00000  Uiso   1.00
H507   H     0.98645   0.19350   0.09788   0.00000  Uiso   1.00
H508   H     0.80648   0.01361   0.90211   0.00000  Uiso   1.00
H509   H     0.69352   0.48638   0.09789   0.00000  Uiso   1.00
H510   H     0.98646   0.19350   0.90211   0.00000  Uiso   1.00
H511   H     0.51355   0.30649   0.09789   0.00000  Uiso   1.00
H512   H     0.64035   0.30577   0.44380   0.00000  Uiso   1.00
H513   H     0.88050   0.07266   0.20473   0.00000  Uiso   1.00
H514   H     0.85973   0.19425   0.55646   0.00000  Uiso   1.00
H515   H     0.69068   0.37471   0.42106   0.00000  Uiso   1.00
H516   H     0.80489   0.13965   0.55753   0.00000  Uiso   1.00
H517   H     0.85952   0.19442   0.44380   0.00000  Uiso   1.00
H518   H     0.64035   0.30545   0.55654   0.00000  Uiso   1.00
H519   H     0.80227   0.14199   0.44485   0.00000  Uiso   1.00
H520   H     0.69258   0.35825   0.55177   0.00000  Uiso   1.00
H521   H     0.89062   0.05504   0.94368   0.00000  Uiso   1.00
H522   H     0.60934   0.44498   0.05626   0.00000  Uiso   1.00
H523   H     0.94508   0.10938   0.94357   0.00000  Uiso   1.00
H524   H     0.61951   0.42733   0.79528   0.00000  Uiso   1.00
H525   H     0.55484   0.39069   0.05636   0.00000  Uiso   1.00
H526   H     0.60944   0.44490   0.94360   0.00000  Uiso   1.00
H527   H     0.89063   0.05504   0.05633   0.00000  Uiso   1.00
H528   H     0.55482   0.39072   0.94372   0.00000  Uiso   1.00
H529   H     0.94519   0.10924   0.05623   0.00000  Uiso   1.00
H530   H     0.92769   0.38086   0.20525   0.00000  Uiso   1.00
H531   H     0.57232   0.11915   0.79477   0.00000  Uiso   1.00
H532   H     0.61914   0.07232   0.79477   0.00000  Uiso   1.00
O533   O     0.75000   0.00000   0.25000   0.00000  Uiso   1.00
O534   O     0.75000   0.46963   0.66245   0.00000  Uiso   1.00
O535   O     0.96964   0.25000   0.33755   0.00000  Uiso   1.00
O536   O     0.53037   0.25000   0.66245   0.00000  Uiso   1.00
O537   O     0.50000   0.21963   0.83755   0.00000  Uiso   1.00
O538   O     0.50000   0.28036   0.16245   0.00000  Uiso   1.00
O539   O     0.78037  -0.00000   0.83755   0.00000  Uiso   1.00
O540   O     0.71964   0.00000   0.16245   0.00000  Uiso   1.00
O541   O     0.50000   0.28036   0.83755   0.00000  Uiso   1.00
O542   O     0.50000   0.21963   0.16245   0.00000  Uiso   1.00
O543   O     0.71964  -0.00000   0.83755   0.00000  Uiso   1.00
O544   O     0.75000  -0.00000   0.75000   0.00000  Uiso   1.00
O545   O     0.78037   0.00000   0.16245   0.00000  Uiso   1.00
O546   O     0.70725   0.07308   0.27302   0.00000  Uiso   1.00
O547   O     0.79276   0.42693   0.72698   0.00000  Uiso   1.00
O548   O     0.92693   0.20725   0.27302   0.00000  Uiso   1.00
O549   O     0.57308   0.29275   0.72698   0.00000  Uiso   1.00
O550   O     0.79276   0.42693   0.27302   0.00000  Uiso   1.00
O551   O     0.70725   0.07308   0.72698   0.00000  Uiso   1.00
O552   O     0.57308   0.29275   0.27302   0.00000  Uiso   1.00
O553   O     0.92693   0.20725   0.72698   0.00000  Uiso   1.00
O554   O     0.70725   0.42692   0.72698   0.00000  Uiso   1.00
O555   O     0.50000   0.25000   0.25000   0.00000  Uiso   1.00
O556   O     0.79276   0.07308   0.27302   0.00000  Uiso   1.00
O557   O     0.92693   0.29276   0.72698   0.00000  Uiso   1.00
O558   O     0.57308   0.20724   0.27302   0.00000  Uiso   1.00
O559   O     0.79276   0.07308   0.72698   0.00000  Uiso   1.00
O560   O     0.70725   0.42692   0.27302   0.00000  Uiso   1.00
O561   O     0.57308   0.20724   0.72698   0.00000  Uiso   1.00
O562   O     0.92693   0.29276   0.27302   0.00000  Uiso   1.00
O563   O     0.95725   0.32308   0.77302   0.00000  Uiso   1.00
O564   O     0.54276   0.17692   0.22698   0.00000  Uiso   1.00
O565   O     0.67693   0.45724   0.77302   0.00000  Uiso   1.00
O566   O     0.50000   0.25000   0.75000   0.00000  Uiso   1.00
O567   O     0.82308   0.04276   0.22698   0.00000  Uiso   1.00
O568   O     0.54276   0.17692   0.77302   0.00000  Uiso   1.00
O569   O     0.95725   0.32308   0.22698   0.00000  Uiso   1.00
O570   O     0.82308   0.04276   0.77302   0.00000  Uiso   1.00
O571   O     0.67693   0.45724   0.22698   0.00000  Uiso   1.00
O572   O     0.95725   0.17693   0.22698   0.00000  Uiso   1.00
O573   O     0.54276   0.32307   0.77302   0.00000  Uiso   1.00
O574   O     0.67693   0.04276   0.22698   0.00000  Uiso   1.00
O575   O     0.82308   0.45725   0.77302   0.00000  Uiso   1.00
O576   O     0.54276   0.32307   0.22698   0.00000  Uiso   1.00
O577   O     0.75000   0.46963   0.33755   0.00000  Uiso   1.00
O578   O     0.95725   0.17693   0.77302   0.00000  Uiso   1.00
O579   O     0.82308   0.45725   0.22698   0.00000  Uiso   1.00
O580   O     0.67693   0.04276   0.77302   0.00000  Uiso   1.00
O581   O     0.61442   0.24554   0.44040   0.00000  Uiso   1.00
O582   O     0.61681   0.30498   0.45921   0.00000  Uiso   1.00
O583   O     0.88551   0.25456   0.55942   0.00000  Uiso   1.00
O584   O     0.88328   0.19499   0.54106   0.00000  Uiso   1.00
O585   O     0.74336   0.37337   0.46259   0.00000  Uiso   1.00
O586   O     0.69404   0.39944   0.43375   0.00000  Uiso   1.00
O587   O     0.74403   0.11502   0.55878   0.00000  Uiso   1.00
O588   O     0.75000   0.03037   0.66245   0.00000  Uiso   1.00
O589   O     0.80408   0.11609   0.54215   0.00000  Uiso   1.00
O590   O     0.88564   0.25456   0.44038   0.00000  Uiso   1.00
O591   O     0.88306   0.19514   0.45920   0.00000  Uiso   1.00
O592   O     0.61444   0.24521   0.55941   0.00000  Uiso   1.00
O593   O     0.61682   0.30478   0.54111   0.00000  Uiso   1.00
O594   O     0.74309   0.11402   0.43976   0.00000  Uiso   1.00
O595   O     0.80189   0.11844   0.46028   0.00000  Uiso   1.00
O596   O     0.75084   0.38665   0.56264   0.00000  Uiso   1.00
O597   O     0.69419   0.38169   0.53625   0.00000  Uiso   1.00
O598   O     0.86440   0.49494   0.94048   0.00000  Uiso   1.00
O599   O     0.53037   0.25000   0.33755   0.00000  Uiso   1.00
O600   O     0.86707   0.05441   0.95908   0.00000  Uiso   1.00
O601   O     0.63563   0.00504   0.05957   0.00000  Uiso   1.00
O602   O     0.63289   0.44560   0.04085   0.00000  Uiso   1.00
O603   O     0.50520   0.13557   0.94052   0.00000  Uiso   1.00
O604   O     0.94568   0.13293   0.95898   0.00000  Uiso   1.00
O605   O     0.99478   0.36439   0.05953   0.00000  Uiso   1.00
O606   O     0.55426   0.36714   0.04096   0.00000  Uiso   1.00
O607   O     0.63557   0.00505   0.94052   0.00000  Uiso   1.00
O608   O     0.63299   0.44553   0.95900   0.00000  Uiso   1.00
O609   O     0.86439   0.49494   0.05954   0.00000  Uiso   1.00
O610   O     0.96964   0.25000   0.66245   0.00000  Uiso   1.00
O611   O     0.86707   0.05441   0.04092   0.00000  Uiso   1.00
O612   O     0.99478   0.36438   0.94047   0.00000  Uiso   1.00
O613   O     0.55424   0.36717   0.95912   0.00000  Uiso   1.00
O614   O     0.50520   0.13564   0.05957   0.00000  Uiso   1.00
O615   O     0.94577   0.13280   0.04082   0.00000  Uiso   1.00
O616   O     0.75000   0.03037   0.33755   0.00000  Uiso   1.00
Zn617  Zn    0.70660   0.00000   0.21735   0.00000  Uiso   1.00
Zn618  Zn    0.54341   0.25000   0.28265   0.00000  Uiso   1.00
Zn619  Zn    0.75000   0.45659   0.71735   0.00000  Uiso   1.00
Zn620  Zn    0.75000   0.04341   0.28265   0.00000  Uiso   1.00
Zn621  Zn    0.54341   0.25000   0.71735   0.00000  Uiso   1.00
Zn622  Zn    0.95660   0.25000   0.28265   0.00000  Uiso   1.00
Zn623  Zn    0.75000   0.04341   0.71735   0.00000  Uiso   1.00
Zn624  Zn    0.75000   0.45659   0.28265   0.00000  Uiso   1.00
Zn625  Zn    0.79341   0.00000   0.78265   0.00000  Uiso   1.00
Zn626  Zn    0.50000   0.20660   0.21735   0.00000  Uiso   1.00
Zn627  Zn    0.50000   0.29340   0.78265   0.00000  Uiso   1.00
Zn628  Zn    0.79341   0.00000   0.21735   0.00000  Uiso   1.00
Zn629  Zn    0.70660   0.00000   0.78265   0.00000  Uiso   1.00
Zn630  Zn    0.50000   0.29341   0.21735   0.00000  Uiso   1.00
Zn631  Zn    0.50000   0.20659   0.78265   0.00000  Uiso   1.00
Zn632  Zn    0.95660   0.25000   0.71735   0.00000  Uiso   1.00
C633   C     0.46791   0.74251   0.41853   0.00000  Uiso   1.00
C634   C     0.28212   0.50736   0.08146   0.00000  Uiso   1.00
C635   C     0.25640   0.53287   0.54080   0.00000  Uiso   1.00
C636   C     0.46717   0.74275   0.45918   0.00000  Uiso   1.00
C637   C     0.03283   0.75719   0.54082   0.00000  Uiso   1.00
C638   C     0.25547   0.53309   0.45921   0.00000  Uiso   1.00
C639   C     0.24231   0.96710   0.54083   0.00000  Uiso   1.00
C640   C     0.28286   0.50711   0.95919   0.00000  Uiso   1.00
C641   C     0.21714   0.99289   0.04081   0.00000  Uiso   1.00
C642   C     0.49292   0.71714   0.95918   0.00000  Uiso   1.00
C643   C     0.00707   0.78287   0.04082   0.00000  Uiso   1.00
C644   C     0.21714   0.99288   0.95918   0.00000  Uiso   1.00
C645   C     0.00732   0.78213   0.91854   0.00000  Uiso   1.00
C646   C     0.28286   0.50711   0.04082   0.00000  Uiso   1.00
C647   C     0.00707   0.78287   0.95919   0.00000  Uiso   1.00
C648   C     0.49293   0.71713   0.04081   0.00000  Uiso   1.00
C649   C     0.09813   0.84813   0.25001   0.00000  Uiso   1.00
C650   C     0.40187   0.65187   0.75000   0.00000  Uiso   1.00
C651   C     0.15187   0.59813   0.25000   0.00000  Uiso   1.00
C652   C     0.34813   0.90187   0.75000   0.00000  Uiso   1.00
C653   C     0.40187   0.65187   0.25000   0.00000  Uiso   1.00
C654   C     0.09813   0.84813   0.75000   0.00000  Uiso   1.00
C655   C     0.34813   0.90187   0.25000   0.00000  Uiso   1.00
C656   C     0.49268   0.71787   0.08146   0.00000  Uiso   1.00
C657   C     0.15187   0.59813   0.75000   0.00000  Uiso   1.00
C658   C     0.09813   0.65187   0.75000   0.00000  Uiso   1.00
C659   C     0.40187   0.84813   0.25000   0.00000  Uiso   1.00
C660   C     0.15187   0.90187   0.75000   0.00000  Uiso   1.00
C661   C     0.34813   0.59813   0.25000   0.00000  Uiso   1.00
C662   C     0.40187   0.84813   0.75000   0.00000  Uiso   1.00
C663   C     0.09813   0.65187   0.25000   0.00000  Uiso   1.00
C664   C     0.34813   0.59813   0.75000   0.00000  Uiso   1.00
C665   C     0.15187   0.90188   0.25001   0.00000  Uiso   1.00
C666   C    -0.00000   0.74998   0.47963   0.00000  Uiso   1.00
C667   C     0.28212   0.50736   0.91854   0.00000  Uiso   1.00
C668   C    -0.00000   0.74997   0.52037   0.00000  Uiso   1.00
C669   C     0.24836   0.50020   0.47964   0.00000  Uiso   1.00
C670   C     0.24901   0.50005   0.52037   0.00000  Uiso   1.00
C671   C     0.25000   0.50000   0.97963   0.00000  Uiso   1.00
C672   C     0.25000   0.50000   0.02037   0.00000  Uiso   1.00
C673   C     0.49999   0.75000   0.97963   0.00000  Uiso   1.00
C674   C    -0.00000   0.75000   0.02037   0.00000  Uiso   1.00
C675   C     0.10037   0.77058   0.45846   0.00000  Uiso   1.00
C676   C     0.39963   0.72944   0.54155   0.00000  Uiso   1.00
C677   C     0.22441   0.90052   0.45827   0.00000  Uiso   1.00
C678   C     0.21788   0.99264   0.08146   0.00000  Uiso   1.00
C679   C     0.26932   0.60043   0.54163   0.00000  Uiso   1.00
C680   C     0.39961   0.72949   0.45845   0.00000  Uiso   1.00
C681   C     0.10039   0.77037   0.54156   0.00000  Uiso   1.00
C682   C     0.26811   0.60082   0.45855   0.00000  Uiso   1.00
C683   C     0.22747   0.89969   0.54147   0.00000  Uiso   1.00
C684   C     0.35047   0.52009   0.95845   0.00000  Uiso   1.00
C685   C     0.14953   0.97990   0.04155   0.00000  Uiso   1.00
C686   C     0.48001   0.64951   0.95843   0.00000  Uiso   1.00
C687   C     0.01996   0.85049   0.04157   0.00000  Uiso   1.00
C688   C     0.14954   0.97988   0.95844   0.00000  Uiso   1.00
C689   C     0.49267   0.71787   0.91854   0.00000  Uiso   1.00
C690   C     0.35047   0.52010   0.04156   0.00000  Uiso   1.00
C691   C     0.01995   0.85050   0.95846   0.00000  Uiso   1.00
C692   C     0.48004   0.64950   0.04154   0.00000  Uiso   1.00
C693   C     0.00732   0.78213   0.08146   0.00000  Uiso   1.00
C694   C    -0.00000   0.75000   0.39836   0.00000  Uiso   1.00
C695   C    -0.00000   0.74997   0.60164   0.00000  Uiso   1.00
C696   C     0.24934   0.50007   0.39837   0.00000  Uiso   1.00
C697   C     0.03210   0.75743   0.58146   0.00000  Uiso   1.00
C698   C     0.24988   0.99997   0.60163   0.00000  Uiso   1.00
C699   C     0.25000   0.50000   0.89836   0.00000  Uiso   1.00
C700   C     0.25000   0.50000   0.10164   0.00000  Uiso   1.00
C701   C    -0.00000   0.75000   0.89836   0.00000  Uiso   1.00
C702   C     0.00000   0.75000   0.10164   0.00000  Uiso   1.00
C703   C     0.06559   0.76442   0.47958   0.00000  Uiso   1.00
C704   C     0.43441   0.73554   0.52042   0.00000  Uiso   1.00
C705   C     0.23335   0.93471   0.47953   0.00000  Uiso   1.00
C706   C     0.26312   0.56572   0.52043   0.00000  Uiso   1.00
C707   C     0.43440   0.73555   0.47957   0.00000  Uiso   1.00
C708   C     0.25595   0.53233   0.41858   0.00000  Uiso   1.00
C709   C     0.06559   0.76437   0.52043   0.00000  Uiso   1.00
C710   C     0.26257   0.56588   0.47961   0.00000  Uiso   1.00
C711   C     0.23472   0.93438   0.52042   0.00000  Uiso   1.00
C712   C     0.31565   0.51417   0.97958   0.00000  Uiso   1.00
C713   C     0.18435   0.98583   0.02042   0.00000  Uiso   1.00
C714   C     0.48591   0.68433   0.97957   0.00000  Uiso   1.00
C715   C     0.01408   0.81567   0.02043   0.00000  Uiso   1.00
C716   C     0.18435   0.98582   0.97958   0.00000  Uiso   1.00
C717   C     0.31565   0.51417   0.02043   0.00000  Uiso   1.00
C718   C     0.01408   0.81567   0.97959   0.00000  Uiso   1.00
C719   C     0.24235   0.96787   0.58150   0.00000  Uiso   1.00
C720   C     0.48592   0.68433   0.02042   0.00000  Uiso   1.00
C721   C     0.24996   0.50001   0.35595   0.00000  Uiso   1.00
C722   C     0.25000   0.50000   0.64405   0.00000  Uiso   1.00
C723   C    -0.00000   0.75000   0.35595   0.00000  Uiso   1.00
C724   C    -0.00000   0.74999   0.64405   0.00000  Uiso   1.00
C725   C    -0.00000   0.75000   0.85595   0.00000  Uiso   1.00
C726   C     0.00000   0.75000   0.14405   0.00000  Uiso   1.00
C727   C     0.25000   0.50000   0.85595   0.00000  Uiso   1.00
C728   C     0.25000   0.50000   0.14405   0.00000  Uiso   1.00
C729   C     0.17994   0.57006   0.25000   0.00000  Uiso   1.00
C730   C     0.03209   0.75750   0.41854   0.00000  Uiso   1.00
C731   C     0.32006   0.92994   0.75000   0.00000  Uiso   1.00
C732   C     0.42994   0.67994   0.25000   0.00000  Uiso   1.00
C733   C     0.07006   0.82006   0.75000   0.00000  Uiso   1.00
C734   C     0.32006   0.92994   0.25000   0.00000  Uiso   1.00
C735   C     0.17994   0.57006   0.75000   0.00000  Uiso   1.00
C736   C     0.07006   0.82006   0.25000   0.00000  Uiso   1.00
C737   C     0.42994   0.67994   0.75000   0.00000  Uiso   1.00
C738   C     0.17994   0.92994   0.75000   0.00000  Uiso   1.00
C739   C     0.32006   0.57006   0.25000   0.00000  Uiso   1.00
C740   C     0.42994   0.82006   0.75000   0.00000  Uiso   1.00
C741   C     0.46790   0.74250   0.58146   0.00000  Uiso   1.00
C742   C     0.07006   0.67994   0.25000   0.00000  Uiso   1.00
C743   C     0.32006   0.57006   0.75000   0.00000  Uiso   1.00
C744   C     0.17994   0.92994   0.25000   0.00000  Uiso   1.00
C745   C     0.07006   0.67994   0.75000   0.00000  Uiso   1.00
C746   C     0.42994   0.82006   0.25000   0.00000  Uiso   1.00
C747   C     0.12218   0.90455   0.22454   0.00000  Uiso   1.00
C748   C     0.37786   0.59540   0.77540   0.00000  Uiso   1.00
C749   C     0.09521   0.62194   0.22488   0.00000  Uiso   1.00
C750   C     0.40479   0.87806   0.77512   0.00000  Uiso   1.00
C751   C     0.37786   0.59540   0.22460   0.00000  Uiso   1.00
C752   C     0.24197   0.96794   0.41851   0.00000  Uiso   1.00
C753   C     0.12214   0.90460   0.77540   0.00000  Uiso   1.00
C754   C     0.40480   0.87806   0.22489   0.00000  Uiso   1.00
C755   C     0.09521   0.62194   0.77512   0.00000  Uiso   1.00
C756   C     0.12194   0.59521   0.77512   0.00000  Uiso   1.00
C757   C     0.37806   0.90480   0.22489   0.00000  Uiso   1.00
C758   C     0.09540   0.87786   0.77540   0.00000  Uiso   1.00
C759   C     0.40460   0.62214   0.22460   0.00000  Uiso   1.00
C760   C     0.37806   0.90480   0.77512   0.00000  Uiso   1.00
C761   C     0.12194   0.59521   0.22488   0.00000  Uiso   1.00
C762   C     0.40460   0.62214   0.77540   0.00000  Uiso   1.00
C763   C     0.25709   0.53209   0.58143   0.00000  Uiso   1.00
C764   C     0.09544   0.87781   0.22454   0.00000  Uiso   1.00
C765   C     0.37214   0.65460   0.72460   0.00000  Uiso   1.00
C766   C     0.12781   0.84546   0.27548   0.00000  Uiso   1.00
C767   C     0.34521   0.87194   0.72488   0.00000  Uiso   1.00
C768   C     0.15479   0.62806   0.27513   0.00000  Uiso   1.00
C769   C     0.12786   0.84540   0.72460   0.00000  Uiso   1.00
C770   C     0.37214   0.65461   0.27540   0.00000  Uiso   1.00
C771   C     0.15479   0.62806   0.72488   0.00000  Uiso   1.00
C772   C     0.34520   0.87194   0.27511   0.00000  Uiso   1.00
C773   C     0.37193   0.84520   0.27511   0.00000  Uiso   1.00
C774   C     0.21788   0.99264   0.91854   0.00000  Uiso   1.00
C775   C     0.12806   0.65479   0.72488   0.00000  Uiso   1.00
C776   C     0.34540   0.62787   0.27540   0.00000  Uiso   1.00
C777   C     0.15460   0.87214   0.72460   0.00000  Uiso   1.00
C778   C     0.12805   0.65479   0.27513   0.00000  Uiso   1.00
C779   C     0.37194   0.84521   0.72488   0.00000  Uiso   1.00
C780   C     0.15454   0.87220   0.27549   0.00000  Uiso   1.00
C781   C     0.34540   0.62786   0.72460   0.00000  Uiso   1.00
C782   C     0.03283   0.75724   0.45919   0.00000  Uiso   1.00
C783   C     0.46717   0.74273   0.54081   0.00000  Uiso   1.00
C784   C     0.24083   0.96744   0.45917   0.00000  Uiso   1.00
H785   H     0.11959   0.92724   0.20460   0.00000  Uiso   1.00
H786   H     0.38087   0.92769   0.20525   0.00000  Uiso   1.00
H787   H     0.07267   0.88050   0.79528   0.00000  Uiso   1.00
H788   H     0.42733   0.61950   0.20473   0.00000  Uiso   1.00
H789   H     0.38086   0.92769   0.79477   0.00000  Uiso   1.00
H790   H     0.11915   0.57232   0.20522   0.00000  Uiso   1.00
H791   H     0.42733   0.61951   0.79528   0.00000  Uiso   1.00
H792   H     0.07275   0.88041   0.20460   0.00000  Uiso   1.00
H793   H     0.36951   0.67732   0.70472   0.00000  Uiso   1.00
H794   H     0.13040   0.82277   0.29542   0.00000  Uiso   1.00
H795   H     0.32232   0.86914   0.70523   0.00000  Uiso   1.00
H796   H     0.38049   0.57268   0.79528   0.00000  Uiso   1.00
H797   H     0.17768   0.63085   0.29478   0.00000  Uiso   1.00
H798   H     0.13049   0.82267   0.70472   0.00000  Uiso   1.00
H799   H     0.36950   0.67734   0.29527   0.00000  Uiso   1.00
H800   H     0.17768   0.63085   0.70523   0.00000  Uiso   1.00
H801   H     0.32231   0.86913   0.29475   0.00000  Uiso   1.00
H802   H     0.36913   0.82231   0.29475   0.00000  Uiso   1.00
H803   H     0.13086   0.67768   0.70523   0.00000  Uiso   1.00
H804   H     0.32266   0.63050   0.29527   0.00000  Uiso   1.00
H805   H     0.17733   0.86950   0.70472   0.00000  Uiso   1.00
H806   H     0.13085   0.67768   0.29478   0.00000  Uiso   1.00
H807   H     0.07232   0.61914   0.20522   0.00000  Uiso   1.00
H808   H     0.36914   0.82231   0.70523   0.00000  Uiso   1.00
H809   H     0.17723   0.86961   0.29542   0.00000  Uiso   1.00
H810   H     0.32267   0.63049   0.70472   0.00000  Uiso   1.00
H811   H     0.44358   0.73615   0.40210   0.00000  Uiso   1.00
H812   H     0.05644   0.76375   0.59789   0.00000  Uiso   1.00
H813   H     0.26221   0.55670   0.40218   0.00000  Uiso   1.00
H814   H     0.23596   0.94366   0.59805   0.00000  Uiso   1.00
H815   H     0.05642   0.76386   0.40211   0.00000  Uiso   1.00
H816   H     0.44356   0.73618   0.59789   0.00000  Uiso   1.00
H817   H     0.23743   0.94327   0.40202   0.00000  Uiso   1.00
H818   H     0.42768   0.88086   0.79477   0.00000  Uiso   1.00
H819   H     0.26341   0.55646   0.59782   0.00000  Uiso   1.00
H820   H     0.19352   0.98639   0.90211   0.00000  Uiso   1.00
H821   H     0.30648   0.51362   0.09789   0.00000  Uiso   1.00
H822   H     0.01354   0.80650   0.90212   0.00000  Uiso   1.00
H823   H     0.48645   0.69350   0.09788   0.00000  Uiso   1.00
H824   H     0.30648   0.51361   0.90211   0.00000  Uiso   1.00
H825   H     0.19352   0.98638   0.09789   0.00000  Uiso   1.00
H826   H     0.48646   0.69350   0.90211   0.00000  Uiso   1.00
H827   H     0.01355   0.80649   0.09789   0.00000  Uiso   1.00
H828   H     0.14035   0.80577   0.44380   0.00000  Uiso   1.00
H829   H     0.38050   0.57266   0.20473   0.00000  Uiso   1.00
H830   H     0.35973   0.69425   0.55646   0.00000  Uiso   1.00
H831   H     0.19068   0.87471   0.42106   0.00000  Uiso   1.00
H832   H     0.30489   0.63965   0.55753   0.00000  Uiso   1.00
H833   H     0.35952   0.69442   0.44380   0.00000  Uiso   1.00
H834   H     0.14035   0.80545   0.55654   0.00000  Uiso   1.00
H835   H     0.30227   0.64199   0.44485   0.00000  Uiso   1.00
H836   H     0.19258   0.85825   0.55177   0.00000  Uiso   1.00
H837   H     0.39062   0.55504   0.94368   0.00000  Uiso   1.00
H838   H     0.10934   0.94498   0.05626   0.00000  Uiso   1.00
H839   H     0.44508   0.60938   0.94357   0.00000  Uiso   1.00
H840   H     0.11951   0.92733   0.79528   0.00000  Uiso   1.00
H841   H     0.05484   0.89069   0.05636   0.00000  Uiso   1.00
H842   H     0.10944   0.94490   0.94360   0.00000  Uiso   1.00
H843   H     0.39063   0.55504   0.05633   0.00000  Uiso   1.00
H844   H     0.05482   0.89072   0.94372   0.00000  Uiso   1.00
H845   H     0.44519   0.60924   0.05623   0.00000  Uiso   1.00
H846   H     0.42769   0.88086   0.20525   0.00000  Uiso   1.00
H847   H     0.07232   0.61915   0.79477   0.00000  Uiso   1.00
H848   H     0.11914   0.57232   0.79477   0.00000  Uiso   1.00
O849   O     0.25000   0.50000   0.25000   0.00000  Uiso   1.00
O850   O     0.25000   0.96963   0.66245   0.00000  Uiso   1.00
O851   O     0.46964   0.75000   0.33755   0.00000  Uiso   1.00
O852   O     0.03037   0.75000   0.66245   0.00000  Uiso   1.00
O853   O     0.00000   0.71963   0.83755   0.00000  Uiso   1.00
O854   O     0.00000   0.78036   0.16245   0.00000  Uiso   1.00
O855   O     0.28037   0.50000   0.83755   0.00000  Uiso   1.00
O856   O     0.21964   0.50000   0.16245   0.00000  Uiso   1.00
O857   O     0.00000   0.78036   0.83755   0.00000  Uiso   1.00
O858   O     0.00000   0.71963   0.16245   0.00000  Uiso   1.00
O859   O     0.21964   0.50000   0.83755   0.00000  Uiso   1.00
O860   O     0.25000   0.50000   0.75000   0.00000  Uiso   1.00
O861   O     0.28037   0.50000   0.16245   0.00000  Uiso   1.00
O862   O     0.20725   0.57308   0.27302   0.00000  Uiso   1.00
O863   O     0.29276   0.92693   0.72698   0.00000  Uiso   1.00
O864   O     0.42693   0.70725   0.27302   0.00000  Uiso   1.00
O865   O     0.07308   0.79275   0.72698   0.00000  Uiso   1.00
O866   O     0.29276   0.92693   0.27302   0.00000  Uiso   1.00
O867   O     0.20725   0.57308   0.72698   0.00000  Uiso   1.00
O868   O     0.07308   0.79275   0.27302   0.00000  Uiso   1.00
O869   O     0.42693   0.70725   0.72698   0.00000  Uiso   1.00
O870   O     0.20725   0.92692   0.72698   0.00000  Uiso   1.00
O871   O     0.00000   0.75000   0.25000   0.00000  Uiso   1.00
O872   O     0.29276   0.57308   0.27302   0.00000  Uiso   1.00
O873   O     0.42693   0.79276   0.72698   0.00000  Uiso   1.00
O874   O     0.07308   0.70724   0.27302   0.00000  Uiso   1.00
O875   O     0.29276   0.57308   0.72698   0.00000  Uiso   1.00
O876   O     0.20725   0.92692   0.27302   0.00000  Uiso   1.00
O877   O     0.07308   0.70724   0.72698   0.00000  Uiso   1.00
O878   O     0.42693   0.79276   0.27302   0.00000  Uiso   1.00
O879   O     0.45725   0.82308   0.77302   0.00000  Uiso   1.00
O880   O     0.04276   0.67692   0.22698   0.00000  Uiso   1.00
O881   O     0.17693   0.95724   0.77302   0.00000  Uiso   1.00
O882   O     0.00000   0.75000   0.75000   0.00000  Uiso   1.00
O883   O     0.32308   0.54276   0.22698   0.00000  Uiso   1.00
O884   O     0.04276   0.67692   0.77302   0.00000  Uiso   1.00
O885   O     0.45725   0.82308   0.22698   0.00000  Uiso   1.00
O886   O     0.32308   0.54276   0.77302   0.00000  Uiso   1.00
O887   O     0.17693   0.95724   0.22698   0.00000  Uiso   1.00
O888   O     0.45725   0.67693   0.22698   0.00000  Uiso   1.00
O889   O     0.04276   0.82307   0.77302   0.00000  Uiso   1.00
O890   O     0.17693   0.54276   0.22698   0.00000  Uiso   1.00
O891   O     0.32308   0.95725   0.77302   0.00000  Uiso   1.00
O892   O     0.04276   0.82307   0.22698   0.00000  Uiso   1.00
O893   O     0.25000   0.96963   0.33755   0.00000  Uiso   1.00
O894   O     0.45725   0.67693   0.77302   0.00000  Uiso   1.00
O895   O     0.32308   0.95725   0.22698   0.00000  Uiso   1.00
O896   O     0.17693   0.54276   0.77302   0.00000  Uiso   1.00
O897   O     0.11442   0.74554   0.44040   0.00000  Uiso   1.00
O898   O     0.11681   0.80498   0.45921   0.00000  Uiso   1.00
O899   O     0.38551   0.75456   0.55942   0.00000  Uiso   1.00
O900   O     0.38328   0.69499   0.54106   0.00000  Uiso   1.00
O901   O     0.24336   0.87337   0.46259   0.00000  Uiso   1.00
O902   O     0.19404   0.89944   0.43375   0.00000  Uiso   1.00
O903   O     0.24403   0.61502   0.55878   0.00000  Uiso   1.00
O904   O     0.25000   0.53037   0.66245   0.00000  Uiso   1.00
O905   O     0.30408   0.61609   0.54215   0.00000  Uiso   1.00
O906   O     0.38564   0.75456   0.44038   0.00000  Uiso   1.00
O907   O     0.38306   0.69514   0.45920   0.00000  Uiso   1.00
O908   O     0.11444   0.74521   0.55941   0.00000  Uiso   1.00
O909   O     0.11682   0.80478   0.54111   0.00000  Uiso   1.00
O910   O     0.24309   0.61402   0.43976   0.00000  Uiso   1.00
O911   O     0.30189   0.61844   0.46028   0.00000  Uiso   1.00
O912   O     0.25084   0.88665   0.56264   0.00000  Uiso   1.00
O913   O     0.19419   0.88169   0.53625   0.00000  Uiso   1.00
O914   O     0.36440   0.99494   0.94048   0.00000  Uiso   1.00
O915   O     0.03037   0.75000   0.33755   0.00000  Uiso   1.00
O916   O     0.36707   0.55441   0.95908   0.00000  Uiso   1.00
O917   O     0.13563   0.50504   0.05957   0.00000  Uiso   1.00
O918   O     0.13289   0.94560   0.04085   0.00000  Uiso   1.00
O919   O     0.00520   0.63557   0.94052   0.00000  Uiso   1.00
O920   O     0.44568   0.63293   0.95898   0.00000  Uiso   1.00
O921   O     0.49478   0.86439   0.05953   0.00000  Uiso   1.00
O922   O     0.05426   0.86714   0.04096   0.00000  Uiso   1.00
O923   O     0.13557   0.50505   0.94052   0.00000  Uiso   1.00
O924   O     0.13299   0.94553   0.95900   0.00000  Uiso   1.00
O925   O     0.36439   0.99494   0.05954   0.00000  Uiso   1.00
O926   O     0.46964   0.75000   0.66245   0.00000  Uiso   1.00
O927   O     0.36707   0.55441   0.04092   0.00000  Uiso   1.00
O928   O     0.49478   0.86438   0.94047   0.00000  Uiso   1.00
O929   O     0.05424   0.86717   0.95912   0.00000  Uiso   1.00
O930   O     0.00520   0.63564   0.05957   0.00000  Uiso   1.00
O931   O     0.44577   0.63280   0.04082   0.00000  Uiso   1.00
O932   O     0.25000   0.53037   0.33755   0.00000  Uiso   1.00
Zn933  Zn    0.20660   0.50000   0.21735   0.00000  Uiso   1.00
Zn934  Zn    0.04341   0.75000   0.28265   0.00000  Uiso   1.00
Zn935  Zn    0.25000   0.95659   0.71735   0.00000  Uiso   1.00
Zn936  Zn    0.25000   0.54341   0.28265   0.00000  Uiso   1.00
Zn937  Zn    0.04341   0.75000   0.71735   0.00000  Uiso   1.00
Zn938  Zn    0.45660   0.75000   0.28265   0.00000  Uiso   1.00
Zn939  Zn    0.25000   0.54341   0.71735   0.00000  Uiso   1.00
Zn940  Zn    0.25000   0.95659   0.28265   0.00000  Uiso   1.00
Zn941  Zn    0.29341   0.50000   0.78265   0.00000  Uiso   1.00
Zn942  Zn    0.00000   0.70660   0.21735   0.00000  Uiso   1.00
Zn943  Zn    0.00000   0.79340   0.78265   0.00000  Uiso   1.00
Zn944  Zn    0.29341   0.50000   0.21735   0.00000  Uiso   1.00
Zn945  Zn    0.20660   0.50000   0.78265   0.00000  Uiso   1.00
Zn946  Zn    0.00000   0.79341   0.21735   0.00000  Uiso   1.00
Zn947  Zn    0.00000   0.70659   0.78265   0.00000  Uiso   1.00
Zn948  Zn    0.45660   0.75000   0.71735   0.00000  Uiso   1.00
C949   C     0.96791   0.74251   0.41853   0.00000  Uiso   1.00
C950   C     0.78212   0.50736   0.08146   0.00000  Uiso   1.00
C951   C     0.75640   0.53287   0.54080   0.00000  Uiso   1.00
C952   C     0.96717   0.74275   0.45918   0.00000  Uiso   1.00
C953   C     0.53283   0.75719   0.54082   0.00000  Uiso   1.00
C954   C     0.75547   0.53309   0.45921   0.00000  Uiso   1.00
C955   C     0.74231   0.96710   0.54083   0.00000  Uiso   1.00
C956   C     0.78286   0.50711   0.95919   0.00000  Uiso   1.00
C957   C     0.71714   0.99289   0.04081   0.00000  Uiso   1.00
C958   C     0.99292   0.71714   0.95918   0.00000  Uiso   1.00
C959   C     0.50707   0.78287   0.04082   0.00000  Uiso   1.00
C960   C     0.71714   0.99288   0.95918   0.00000  Uiso   1.00
C961   C     0.50732   0.78213   0.91854   0.00000  Uiso   1.00
C962   C     0.78286   0.50711   0.04082   0.00000  Uiso   1.00
C963   C     0.50707   0.78287   0.95919   0.00000  Uiso   1.00
C964   C     0.99293   0.71713   0.04081   0.00000  Uiso   1.00
C965   C     0.59813   0.84813   0.25001   0.00000  Uiso   1.00
C966   C     0.90187   0.65187   0.75000   0.00000  Uiso   1.00
C967   C     0.65187   0.59813   0.25000   0.00000  Uiso   1.00
C968   C     0.84813   0.90187   0.75000   0.00000  Uiso   1.00
C969   C     0.90187   0.65187   0.25000   0.00000  Uiso   1.00
C970   C     0.59813   0.84813   0.75000   0.00000  Uiso   1.00
C971   C     0.84813   0.90187   0.25000   0.00000  Uiso   1.00
C972   C     0.99268   0.71787   0.08146   0.00000  Uiso   1.00
C973   C     0.65187   0.59813   0.75000   0.00000  Uiso   1.00
C974   C     0.59813   0.65187   0.75000   0.00000  Uiso   1.00
C975   C     0.90187   0.84813   0.25000   0.00000  Uiso   1.00
C976   C     0.65187   0.90187   0.75000   0.00000  Uiso   1.00
C977   C     0.84813   0.59813   0.25000   0.00000  Uiso   1.00
C978   C     0.90187   0.84813   0.75000   0.00000  Uiso   1.00
C979   C     0.59813   0.65187   0.25000   0.00000  Uiso   1.00
C980   C     0.84813   0.59813   0.75000   0.00000  Uiso   1.00
C981   C     0.65187   0.90188   0.25001   0.00000  Uiso   1.00
C982   C     0.50000   0.74998   0.47963   0.00000  Uiso   1.00
C983   C     0.78212   0.50736   0.91854   0.00000  Uiso   1.00
C984   C     0.50000   0.74997   0.52037   0.00000  Uiso   1.00
C985   C     0.74836   0.50020   0.47964   0.00000  Uiso   1.00
C986   C     0.74901   0.50005   0.52037   0.00000  Uiso   1.00
C987   C     0.75000   0.50000   0.97963   0.00000  Uiso   1.00
C988   C     0.75000   0.50000   0.02037   0.00000  Uiso   1.00
C989   C     0.99999   0.75000   0.97963   0.00000  Uiso   1.00
C990   C     0.50000   0.75000   0.02037   0.00000  Uiso   1.00
C991   C     0.60037   0.77058   0.45846   0.00000  Uiso   1.00
C992   C     0.89963   0.72944   0.54155   0.00000  Uiso   1.00
C993   C     0.72441   0.90052   0.45827   0.00000  Uiso   1.00
C994   C     0.71788   0.99264   0.08146   0.00000  Uiso   1.00
C995   C     0.76932   0.60043   0.54163   0.00000  Uiso   1.00
C996   C     0.89961   0.72949   0.45845   0.00000  Uiso   1.00
C997   C     0.60039   0.77037   0.54156   0.00000  Uiso   1.00
C998   C     0.76811   0.60082   0.45855   0.00000  Uiso   1.00
C999   C     0.72747   0.89969   0.54147   0.00000  Uiso   1.00
C1000  C     0.85047   0.52009   0.95845   0.00000  Uiso   1.00
C1001  C     0.64953   0.97990   0.04155   0.00000  Uiso   1.00
C1002  C     0.98001   0.64951   0.95843   0.00000  Uiso   1.00
C1003  C     0.51996   0.85049   0.04157   0.00000  Uiso   1.00
C1004  C     0.64954   0.97988   0.95844   0.00000  Uiso   1.00
C1005  C     0.99267   0.71787   0.91854   0.00000  Uiso   1.00
C1006  C     0.85047   0.52010   0.04156   0.00000  Uiso   1.00
C1007  C     0.51995   0.85050   0.95846   0.00000  Uiso   1.00
C1008  C     0.98004   0.64950   0.04154   0.00000  Uiso   1.00
C1009  C     0.50732   0.78213   0.08146   0.00000  Uiso   1.00
C1010  C     0.50000   0.75000   0.39836   0.00000  Uiso   1.00
C1011  C     0.50000   0.74997   0.60164   0.00000  Uiso   1.00
C1012  C     0.74934   0.50007   0.39837   0.00000  Uiso   1.00
C1013  C     0.53210   0.75743   0.58146   0.00000  Uiso   1.00
C1014  C     0.74988   0.99997   0.60163   0.00000  Uiso   1.00
C1015  C     0.75000   0.50000   0.89836   0.00000  Uiso   1.00
C1016  C     0.75000   0.50000   0.10164   0.00000  Uiso   1.00
C1017  C     0.50000   0.75000   0.89836   0.00000  Uiso   1.00
C1018  C     0.50000   0.75000   0.10164   0.00000  Uiso   1.00
C1019  C     0.56559   0.76442   0.47958   0.00000  Uiso   1.00
C1020  C     0.93441   0.73554   0.52042   0.00000  Uiso   1.00
C1021  C     0.73335   0.93471   0.47953   0.00000  Uiso   1.00
C1022  C     0.76312   0.56572   0.52043   0.00000  Uiso   1.00
C1023  C     0.93440   0.73555   0.47957   0.00000  Uiso   1.00
C1024  C     0.75595   0.53233   0.41858   0.00000  Uiso   1.00
C1025  C     0.56559   0.76437   0.52043   0.00000  Uiso   1.00
C1026  C     0.76257   0.56588   0.47961   0.00000  Uiso   1.00
C1027  C     0.73472   0.93438   0.52042   0.00000  Uiso   1.00
C1028  C     0.81565   0.51417   0.97958   0.00000  Uiso   1.00
C1029  C     0.68435   0.98583   0.02042   0.00000  Uiso   1.00
C1030  C     0.98591   0.68433   0.97957   0.00000  Uiso   1.00
C1031  C     0.51408   0.81567   0.02043   0.00000  Uiso   1.00
C1032  C     0.68435   0.98582   0.97958   0.00000  Uiso   1.00
C1033  C     0.81565   0.51417   0.02043   0.00000  Uiso   1.00
C1034  C     0.51408   0.81567   0.97959   0.00000  Uiso   1.00
C1035  C     0.74235   0.96787   0.58150   0.00000  Uiso   1.00
C1036  C     0.98592   0.68433   0.02042   0.00000  Uiso   1.00
C1037  C     0.74996   0.50001   0.35595   0.00000  Uiso   1.00
C1038  C     0.75000   0.50000   0.64405   0.00000  Uiso   1.00
C1039  C     0.50000   0.75000   0.35595   0.00000  Uiso   1.00
C1040  C     0.50000   0.74999   0.64405   0.00000  Uiso   1.00
C1041  C     0.50000   0.75000   0.85595   0.00000  Uiso   1.00
C1042  C     0.50000   0.75000   0.14405   0.00000  Uiso   1.00
C1043  C     0.75000   0.50000   0.85595   0.00000  Uiso   1.00
C1044  C     0.75000   0.50000   0.14405   0.00000  Uiso   1.00
C1045  C     0.67994   0.57006   0.25000   0.00000  Uiso   1.00
C1046  C     0.53209   0.75750   0.41854   0.00000  Uiso   1.00
C1047  C     0.82006   0.92994   0.75000   0.00000  Uiso   1.00
C1048  C     0.92994   0.67994   0.25000   0.00000  Uiso   1.00
C1049  C     0.57006   0.82006   0.75000   0.00000  Uiso   1.00
C1050  C     0.82006   0.92994   0.25000   0.00000  Uiso   1.00
C1051  C     0.67994   0.57006   0.75000   0.00000  Uiso   1.00
C1052  C     0.57006   0.82006   0.25000   0.00000  Uiso   1.00
C1053  C     0.92994   0.67994   0.75000   0.00000  Uiso   1.00
C1054  C     0.67994   0.92994   0.75000   0.00000  Uiso   1.00
C1055  C     0.82006   0.57006   0.25000   0.00000  Uiso   1.00
C1056  C     0.92994   0.82006   0.75000   0.00000  Uiso   1.00
C1057  C     0.96790   0.74250   0.58146   0.00000  Uiso   1.00
C1058  C     0.57006   0.67994   0.25000   0.00000  Uiso   1.00
C1059  C     0.82006   0.57006   0.75000   0.00000  Uiso   1.00
C1060  C     0.67994   0.92994   0.25000   0.00000  Uiso   1.00
C1061  C     0.57006   0.67994   0.75000   0.00000  Uiso   1.00
C1062  C     0.92994   0.82006   0.25000   0.00000  Uiso   1.00
C1063  C     0.62218   0.90455   0.22454   0.00000  Uiso   1.00
C1064  C     0.87786   0.59540   0.77540   0.00000  Uiso   1.00
C1065  C     0.59521   0.62194   0.22488   0.00000  Uiso   1.00
C1066  C     0.90479   0.87806   0.77512   0.00000  Uiso   1.00
C1067  C     0.87786   0.59540   0.22460   0.00000  Uiso   1.00
C1068  C     0.74197   0.96794   0.41851   0.00000  Uiso   1.00
C1069  C     0.62214   0.90460   0.77540   0.00000  Uiso   1.00
C1070  C     0.90480   0.87806   0.22489   0.00000  Uiso   1.00
C1071  C     0.59521   0.62194   0.77512   0.00000  Uiso   1.00
C1072  C     0.62194   0.59521   0.77512   0.00000  Uiso   1.00
C1073  C     0.87806   0.90480   0.22489   0.00000  Uiso   1.00
C1074  C     0.59540   0.87786   0.77540   0.00000  Uiso   1.00
C1075  C     0.90460   0.62214   0.22460   0.00000  Uiso   1.00
C1076  C     0.87806   0.90480   0.77512   0.00000  Uiso   1.00
C1077  C     0.62194   0.59521   0.22488   0.00000  Uiso   1.00
C1078  C     0.90460   0.62214   0.77540   0.00000  Uiso   1.00
C1079  C     0.75709   0.53209   0.58143   0.00000  Uiso   1.00
C1080  C     0.59544   0.87781   0.22454   0.00000  Uiso   1.00
C1081  C     0.87214   0.65460   0.72460   0.00000  Uiso   1.00
C1082  C     0.62781   0.84546   0.27548   0.00000  Uiso   1.00
C1083  C     0.84521   0.87194   0.72488   0.00000  Uiso   1.00
C1084  C     0.65479   0.62806   0.27513   0.00000  Uiso   1.00
C1085  C     0.62786   0.84540   0.72460   0.00000  Uiso   1.00
C1086  C     0.87214   0.65461   0.27540   0.00000  Uiso   1.00
C1087  C     0.65479   0.62806   0.72488   0.00000  Uiso   1.00
C1088  C     0.84520   0.87194   0.27511   0.00000  Uiso   1.00
C1089  C     0.87193   0.84520   0.27511   0.00000  Uiso   1.00
C1090  C     0.71788   0.99264   0.91854   0.00000  Uiso   1.00
C1091  C     0.62806   0.65479   0.72488   0.00000  Uiso   1.00
C1092  C     0.84540   0.62787   0.27540   0.00000  Uiso   1.00
C1093  C     0.65460   0.87214   0.72460   0.00000  Uiso   1.00
C1094  C     0.62805   0.65479   0.27513   0.00000  Uiso   1.00
C1095  C     0.87194   0.84521   0.72488   0.00000  Uiso   1.00
C1096  C     0.65454   0.87220   0.27549   0.00000  Uiso   1.00
C1097  C     0.84540   0.62786   0.72460   0.00000  Uiso   1.00
C1098  C     0.53283   0.75724   0.45919   0.00000  Uiso   1.00
C1099  C     0.96717   0.74273   0.54081   0.00000  Uiso   1.00
C1100  C     0.74083   0.96744   0.45917   0.00000  Uiso   1.00
H1101  H     0.61959   0.92724   0.20460   0.00000  Uiso   1.00
H1102  H     0.88087   0.92769   0.20525   0.00000  Uiso   1.00
H1103  H     0.57267   0.88050   0.79528   0.00000  Uiso   1.00
H1104  H     0.92733   0.61950   0.20473   0.00000  Uiso   1.00
H1105  H     0.88086   0.92769   0.79477   0.00000  Uiso   1.00
H1106  H     0.61915   0.57232   0.20522   0.00000  Uiso   1.00
H1107  H     0.92733   0.61951   0.79528   0.00000  Uiso   1.00
H1108  H     0.57275   0.88041   0.20460   0.00000  Uiso   1.00
H1109  H     0.86951   0.67732   0.70472   0.00000  Uiso   1.00
H1110  H     0.63040   0.82277   0.29542   0.00000  Uiso   1.00
H1111  H     0.82232   0.86914   0.70523   0.00000  Uiso   1.00
H1112  H     0.88049   0.57268   0.79528   0.00000  Uiso   1.00
H1113  H     0.67768   0.63085   0.29478   0.00000  Uiso   1.00
H1114  H     0.63049   0.82267   0.70472   0.00000  Uiso   1.00
H1115  H     0.86950   0.67734   0.29527   0.00000  Uiso   1.00
H1116  H     0.67768   0.63085   0.70523   0.00000  Uiso   1.00
H1117  H     0.82231   0.86913   0.29475   0.00000  Uiso   1.00
H1118  H     0.86913   0.82231   0.29475   0.00000  Uiso   1.00
H1119  H     0.63086   0.67768   0.70523   0.00000  Uiso   1.00
H1120  H     0.82266   0.63050   0.29527   0.00000  Uiso   1.00
H1121  H     0.67733   0.86950   0.70472   0.00000  Uiso   1.00
H1122  H     0.63085   0.67768   0.29478   0.00000  Uiso   1.00
H1123  H     0.57232   0.61914   0.20522   0.00000  Uiso   1.00
H1124  H     0.86914   0.82231   0.70523   0.00000  Uiso   1.00
H1125  H     0.67723   0.86961   0.29542   0.00000  Uiso   1.00
H1126  H     0.82267   0.63049   0.70472   0.00000  Uiso   1.00
H1127  H     0.94358   0.73615   0.40210   0.00000  Uiso   1.00
H1128  H     0.55644   0.76375   0.59789   0.00000  Uiso   1.00
H1129  H     0.76221   0.55670   0.40218   0.00000  Uiso   1.00
H1130  H     0.73596   0.94366   0.59805   0.00000  Uiso   1.00
H1131  H     0.55642   0.76386   0.40211   0.00000  Uiso   1.00
H1132  H     0.94356   0.73618   0.59789   0.00000  Uiso   1.00
H1133  H     0.73743   0.94327   0.40202   0.00000  Uiso   1.00
H1134  H     0.92768   0.88086   0.79477   0.00000  Uiso   1.00
H1135  H     0.76341   0.55646   0.59782   0.00000  Uiso   1.00
H1136  H     0.69352   0.98639   0.90211   0.00000  Uiso   1.00
H1137  H     0.80648   0.51362   0.09789   0.00000  Uiso   1.00
H1138  H     0.51354   0.80650   0.90212   0.00000  Uiso   1.00
H1139  H     0.98645   0.69350   0.09788   0.00000  Uiso   1.00
H1140  H     0.80648   0.51361   0.90211   0.00000  Uiso   1.00
H1141  H     0.69352   0.98638   0.09789   0.00000  Uiso   1.00
H1142  H     0.98646   0.69350   0.90211   0.00000  Uiso   1.00
H1143  H     0.51355   0.80649   0.09789   0.00000  Uiso   1.00
H1144  H     0.64035   0.80577   0.44380   0.00000  Uiso   1.00
H1145  H     0.88050   0.57266   0.20473   0.00000  Uiso   1.00
H1146  H     0.85973   0.69425   0.55646   0.00000  Uiso   1.00
H1147  H     0.69068   0.87471   0.42106   0.00000  Uiso   1.00
H1148  H     0.80489   0.63965   0.55753   0.00000  Uiso   1.00
H1149  H     0.85952   0.69442   0.44380   0.00000  Uiso   1.00
H1150  H     0.64035   0.80545   0.55654   0.00000  Uiso   1.00
H1151  H     0.80227   0.64199   0.44485   0.00000  Uiso   1.00
H1152  H     0.69258   0.85825   0.55177   0.00000  Uiso   1.00
H1153  H     0.89062   0.55504   0.94368   0.00000  Uiso   1.00
H1154  H     0.60934   0.94498   0.05626   0.00000  Uiso   1.00
H1155  H     0.94508   0.60938   0.94357   0.00000  Uiso   1.00
H1156  H     0.61951   0.92733   0.79528   0.00000  Uiso   1.00
H1157  H     0.55484   0.89069   0.05636   0.00000  Uiso   1.00
H1158  H     0.60944   0.94490   0.94360   0.00000  Uiso   1.00
H1159  H     0.89063   0.55504   0.05633   0.00000  Uiso   1.00
H1160  H     0.55482   0.89072   0.94372   0.00000  Uiso   1.00
H1161  H     0.94519   0.60924   0.05623   0.00000  Uiso   1.00
H1162  H     0.92769   0.88086   0.20525   0.00000  Uiso   1.00
H1163  H     0.57232   0.61915   0.79477   0.00000  Uiso   1.00
H1164  H     0.61914   0.57232   0.79477   0.00000  Uiso   1.00
O1165  O     0.75000   0.50000   0.25000   0.00000  Uiso   1.00
O1166  O     0.75000   0.96963   0.66245   0.00000  Uiso   1.00
O1167  O     0.96964   0.75000   0.33755   0.00000  Uiso   1.00
O1168  O     0.53037   0.75000   0.66245   0.00000  Uiso   1.00
O1169  O     0.50000   0.71963   0.83755   0.00000  Uiso   1.00
O1170  O     0.50000   0.78036   0.16245   0.00000  Uiso   1.00
O1171  O     0.78037   0.50000   0.83755   0.00000  Uiso   1.00
O1172  O     0.71964   0.50000   0.16245   0.00000  Uiso   1.00
O1173  O     0.50000   0.78036   0.83755   0.00000  Uiso   1.00
O1174  O     0.50000   0.71963   0.16245   0.00000  Uiso   1.00
O1175  O     0.71964   0.50000   0.83755   0.00000  Uiso   1.00
O1176  O     0.75000   0.50000   0.75000   0.00000  Uiso   1.00
O1177  O     0.78037   0.50000   0.16245   0.00000  Uiso   1.00
O1178  O     0.70725   0.57308   0.27302   0.00000  Uiso   1.00
O1179  O     0.79276   0.92693   0.72698   0.00000  Uiso   1.00
O1180  O     0.92693   0.70725   0.27302   0.00000  Uiso   1.00
O1181  O     0.57308   0.79275   0.72698   0.00000  Uiso   1.00
O1182  O     0.79276   0.92693   0.27302   0.00000  Uiso   1.00
O1183  O     0.70725   0.57308   0.72698   0.00000  Uiso   1.00
O1184  O     0.57308   0.79275   0.27302   0.00000  Uiso   1.00
O1185  O     0.92693   0.70725   0.72698   0.00000  Uiso   1.00
O1186  O     0.70725   0.92692   0.72698   0.00000  Uiso   1.00
O1187  O     0.50000   0.75000   0.25000   0.00000  Uiso   1.00
O1188  O     0.79276   0.57308   0.27302   0.00000  Uiso   1.00
O1189  O     0.92693   0.79276   0.72698   0.00000  Uiso   1.00
O1190  O     0.57308   0.70724   0.27302   0.00000  Uiso   1.00
O1191  O     0.79276   0.57308   0.72698   0.00000  Uiso   1.00
O1192  O     0.70725   0.92692   0.27302   0.00000  Uiso   1.00
O1193  O     0.57308   0.70724   0.72698   0.00000  Uiso   1.00
O1194  O     0.92693   0.79276   0.27302   0.00000  Uiso   1.00
O1195  O     0.95725   0.82308   0.77302   0.00000  Uiso   1.00
O1196  O     0.54276   0.67692   0.22698   0.00000  Uiso   1.00
O1197  O     0.67693   0.95724   0.77302   0.00000  Uiso   1.00
O1198  O     0.50000   0.75000   0.75000   0.00000  Uiso   1.00
O1199  O     0.82308   0.54276   0.22698   0.00000  Uiso   1.00
O1200  O     0.54276   0.67692   0.77302   0.00000  Uiso   1.00
O1201  O     0.95725   0.82308   0.22698   0.00000  Uiso   1.00
O1202  O     0.82308   0.54276   0.77302   0.00000  Uiso   1.00
O1203  O     0.67693   0.95724   0.22698   0.00000  Uiso   1.00
O1204  O     0.95725   0.67693   0.22698   0.00000  Uiso   1.00
O1205  O     0.54276   0.82307   0.77302   0.00000  Uiso   1.00
O1206  O     0.67693   0.54276   0.22698   0.00000  Uiso   1.00
O1207  O     0.82308   0.95725   0.77302   0.00000  Uiso   1.00
O1208  O     0.54276   0.82307   0.22698   0.00000  Uiso   1.00
O1209  O     0.75000   0.96963   0.33755   0.00000  Uiso   1.00
O1210  O     0.95725   0.67693   0.77302   0.00000  Uiso   1.00
O1211  O     0.82308   0.95725   0.22698   0.00000  Uiso   1.00
O1212  O     0.67693   0.54276   0.77302   0.00000  Uiso   1.00
O1213  O     0.61442   0.74554   0.44040   0.00000  Uiso   1.00
O1214  O     0.61681   0.80498   0.45921   0.00000  Uiso   1.00
O1215  O     0.88551   0.75456   0.55942   0.00000  Uiso   1.00
O1216  O     0.88328   0.69499   0.54106   0.00000  Uiso   1.00
O1217  O     0.74336   0.87337   0.46259   0.00000  Uiso   1.00
O1218  O     0.69404   0.89944   0.43375   0.00000  Uiso   1.00
O1219  O     0.74403   0.61502   0.55878   0.00000  Uiso   1.00
O1220  O     0.75000   0.53037   0.66245   0.00000  Uiso   1.00
O1221  O     0.80408   0.61609   0.54215   0.00000  Uiso   1.00
O1222  O     0.88564   0.75456   0.44038   0.00000  Uiso   1.00
O1223  O     0.88306   0.69514   0.45920   0.00000  Uiso   1.00
O1224  O     0.61444   0.74521   0.55941   0.00000  Uiso   1.00
O1225  O     0.61682   0.80478   0.54111   0.00000  Uiso   1.00
O1226  O     0.74309   0.61402   0.43976   0.00000  Uiso   1.00
O1227  O     0.80189   0.61844   0.46028   0.00000  Uiso   1.00
O1228  O     0.75084   0.88665   0.56264   0.00000  Uiso   1.00
O1229  O     0.69419   0.88169   0.53625   0.00000  Uiso   1.00
O1230  O     0.86440   0.99494   0.94048   0.00000  Uiso   1.00
O1231  O     0.53037   0.75000   0.33755   0.00000  Uiso   1.00
O1232  O     0.86707   0.55441   0.95908   0.00000  Uiso   1.00
O1233  O     0.63563   0.50504   0.05957   0.00000  Uiso   1.00
O1234  O     0.63289   0.94560   0.04085   0.00000  Uiso   1.00
O1235  O     0.50520   0.63557   0.94052   0.00000  Uiso   1.00
O1236  O     0.94568   0.63293   0.95898   0.00000  Uiso   1.00
O1237  O     0.99478   0.86439   0.05953   0.00000  Uiso   1.00
O1238  O     0.55426   0.86714   0.04096   0.00000  Uiso   1.00
O1239  O     0.63557   0.50505   0.94052   0.00000  Uiso   1.00
O1240  O     0.63299   0.94553   0.95900   0.00000  Uiso   1.00
O1241  O     0.86439   0.99494   0.05954   0.00000  Uiso   1.00
O1242  O     0.96964   0.75000   0.66245   0.00000  Uiso   1.00
O1243  O     0.86707   0.55441   0.04092   0.00000  Uiso   1.00
O1244  O     0.99478   0.86438   0.94047   0.00000  Uiso   1.00
O1245  O     0.55424   0.86717   0.95912   0.00000  Uiso   1.00
O1246  O     0.50520   0.63564   0.05957   0.00000  Uiso   1.00
O1247  O     0.94577   0.63280   0.04082   0.00000  Uiso   1.00
O1248  O     0.75000   0.53037   0.33755   0.00000  Uiso   1.00
Zn1249 Zn    0.70660   0.50000   0.21735   0.00000  Uiso   1.00
Zn1250 Zn    0.54341   0.75000   0.28265   0.00000  Uiso   1.00
Zn1251 Zn    0.75000   0.95659   0.71735   0.00000  Uiso   1.00
Zn1252 Zn    0.75000   0.54341   0.28265   0.00000  Uiso   1.00
Zn1253 Zn    0.54341   0.75000   0.71735   0.00000  Uiso   1.00
Zn1254 Zn    0.95660   0.75000   0.28265   0.00000  Uiso   1.00
Zn1255 Zn    0.75000   0.54341   0.71735   0.00000  Uiso   1.00
Zn1256 Zn    0.75000   0.95659   0.28265   0.00000  Uiso   1.00
Zn1257 Zn    0.79341   0.50000   0.78265   0.00000  Uiso   1.00
Zn1258 Zn    0.50000   0.70660   0.21735   0.00000  Uiso   1.00
Zn1259 Zn    0.50000   0.79340   0.78265   0.00000  Uiso   1.00
Zn1260 Zn    0.79341   0.50000   0.21735   0.00000  Uiso   1.00
Zn1261 Zn    0.70660   0.50000   0.78265   0.00000  Uiso   1.00
Zn1262 Zn    0.50000   0.79341   0.21735   0.00000  Uiso   1.00
Zn1263 Zn    0.50000   0.70659   0.78265   0.00000  Uiso   1.00
Zn1264 Zn    0.95660   0.75000   0.71735   0.00000  Uiso   1.00
loop_
_geom_bond_atom_site_label_1
_geom_bond_atom_site_label_2
_geom_bond_distance
_geom_bond_site_symmetry_2
_ccdc_geom_bond_type
C1     C378    1.394   .     A
C1     C4      1.402   .     A
C1     H179    1.082   .     S
C2     C14     1.402   .     A
C2     C68     1.394   .     A
C2     H189    1.082   .     S
C3     C131    1.401   .     A
C3     C74     1.416   .     A
C3     C38     1.420   .     A
C4     C75     1.416   .     A
C4     C350    1.420   .     A
C5     C65     1.402   .     A
C5     C77     1.416   .     A
C5     C36     1.420   .     S
C6     C78     1.416   .     A
C6     C76     1.401   .     A
C6     C37     1.420   .     A
C7     C79     1.418   .     A
C7     C87     1.402   .     A
C7     C670    1.420   .     S
C8     C35     1.402   .     A
C8     C80     1.416   .     A
C8     C39     1.420   .     S
C9     C46     1.402   .     A
C9     C672    1.420   .     A
C9     C81     1.416   .     A
C10    C41     1.420   .     A
C10    C82     1.416   .     A
C10    C57     1.402   .     A
C11    C61     1.402   .     A
C11    C83     1.416   .     A
C11    C42     1.420   .     S
C12    C84     1.416   .     A
C12    C671    1.420   .     A
C12    C142    1.402   .     A
C13    H190    1.082   .     S
C13    C15     1.402   .     A
C13    C69     1.394   .     S
C14    C85     1.416   .     A
C14    C40     1.420   .     S
C15    C86     1.416   .     A
C15    C357    1.420   1_455 S
C16    C88     1.416   .     A
C16    C24     1.402   .     A
C16    C358    1.420   .     A
C17    C104    1.455   .     S
C17    C132    1.402   .     A
C17    C134    1.402   .     A
C18    C133    1.402   .     A
C18    C130    1.402   .     A
C18    C105    1.455   .     S
C19    C129    1.402   .     A
C19    C97     1.455   .     S
C19    C136    1.402   .     A
C20    C99     1.455   .     S
C20    C128    1.402   .     A
C20    C135    1.402   .     A
C21    C138    1.402   .     A
C21    C127    1.402   .     A
C21    C100    1.455   .     S
C22    C137    1.402   .     A
C22    C101    1.455   .     S
C22    C126    1.402   .     A
C23    C140    1.402   .     A
C23    C102    1.455   .     S
C23    C125    1.402   .     A
C24    H191    1.082   .     S
C24    C386    1.394   .     S
C25    C139    1.402   .     A
C25    C103    1.455   .     S
C25    C124    1.402   .     A
C26    C123    1.402   .     A
C26    C143    1.402   .     A
C26    C113    1.455   .     S
C27    C141    1.402   .     A
C27    C122    1.402   .     A
C27    C114    1.455   .     S
C28    C145    1.402   .     A
C28    C106    1.455   .     S
C28    C121    1.402   .     A
C29    C119    1.402   .     A
C29    C107    1.455   .     S
C29    C144    1.402   .     A
C30    C118    1.402   .     A
C30    C147    1.402   .     A
C30    C108    1.455   .     S
C31    C110    1.455   .     S
C31    C117    1.402   .     A
C31    C146    1.402   .     A
C32    C116    1.402   .     A
C32    C111    1.455   .     S
C32    C149    1.402   .     A
C33    C115    1.402   .     A
C33    C148    1.402   .     A
C33    C112    1.455   .     S
C34    C36     1.405   .     A
C34    C320    1.420   1_455 A
C34    C150    1.420   .     S
C35    H192    1.082   .     S
C35    C67     1.394   .     S
C36    C467    1.420   1_455 A
C37    C38     1.405   .     A
C37    C784    1.420   1_545 S
C38    C639    1.420   1_545 S
C39    C644    1.420   1_545 A
C39    C40     1.404   1_556 S
C40    C641    1.420   1_545 A
C40    C39     1.404   1_554 S
C41    C331    1.420   .     S
C41    C358    1.404   1_556 S
C42    C332    1.420   1_455 A
C42    C357    1.404   1_454 S
C43    O266    1.397   .     S
C43    C71     1.485   .     S
C43    O265    1.223   .     D
C44    C72     1.485   .     S
C44    O267    1.223   .     D
C44    O268    1.397   .     S
C45    O270    1.398   .     S
C45    O269    1.223   .     D
C45    C73     1.488   .     S
C46    H193    1.082   .     S
C46    C700    1.394   .     S
C47    C74     1.485   .     S
C47    O271    1.223   .     D
C47    O273    1.397   .     S
C48    O274    1.223   .     D
C48    C75     1.485   .     S
C48    O275    1.397   .     S
C49    O277    1.397   .     S
C49    C77     1.485   .     S
C49    O276    1.223   .     D
C50    O278    1.223   .     D
C50    C78     1.486   .     S
C50    O279    1.397   .     S
C51    O281    1.398   .     S
C51    C79     1.488   .     S
C51    O280    1.223   .     D
C52    O284    1.397   .     S
C52    C80     1.485   .     S
C52    O914    1.223   1_545 S
C53    C81     1.485   .     S
C53    O286    1.397   .     S
C53    O917    1.223   .     S
C54    O288    1.397   .     S
C54    C82     1.485   .     S
C54    O603    1.223   .     S
C55    C83     1.485   .     S
C55    O290    1.397   .     S
C55    O605    1.223   1_455 S
C56    C84     1.485   .     S
C56    O292    1.397   .     S
C56    O923    1.223   .     S
C57    H194    1.082   .     S
C57    C385    1.394   .     A
C58    O295    1.397   .     S
C58    C85     1.485   .     S
C58    O925    1.223   1_545 S
C59    O297    1.397   .     S
C59    C86     1.485   .     S
C59    O612    1.223   1_455 S
C60    C88     1.485   .     S
C60    O299    1.397   .     S
C60    O614    1.223   .     S
C61    C70     1.394   .     A
C61    H195    1.082   .     S
C62    C317    1.394   1_455 A
C62    C91     1.462   .     S
C62    C98     1.394   .     S
C63    C425    1.394   1_455 A
C63    C92     1.462   .     S
C63    C65     1.394   .     S
C64    C89     1.463   .     S
C64    C76     1.393   .     A
C64    C752    1.394   1_545 S
C65    H180    1.082   .     S
C66    C722    1.463   .     S
C66    C87     1.394   .     A
C66    C763    1.393   .     S
C67    C95     1.463   .     S
C67    C774    1.394   1_545 A
C68    C96     1.462   .     S
C68    C678    1.394   1_545 S
C69    C93     1.462   .     S
C69    C373    1.394   1_455 A
C70    C94     1.462   .     S
C70    C340    1.394   1_455 S
C71    C150    1.416   .     A
C71    C77     1.408   .     A
C72    C151    1.416   .     A
C72    C75     1.408   .     A
C73    C79     1.411   .     A
C73    C152    1.417   .     A
C74    C78     1.408   .     A
C76    H181    1.082   .     S
C80    C85     1.408   1_556 S
C81    C84     1.408   1_554 S
C82    C88     1.408   1_556 S
C83    C86     1.408   1_554 S
C84    C81     1.408   1_556 S
C85    C80     1.408   1_554 S
C86    C83     1.408   1_556 S
C87    H182    1.081   .     S
C88    C82     1.408   1_554 S
C89    O300    1.281   .     A
C89    O893    1.281   1_545 S
C90    O850    1.281   1_545 A
C90    C698    1.463   1_545 S
C90    O272    1.281   .     S
C91    O535    1.281   1_455 A
C91    O283    1.281   .     S
C92    O610    1.281   1_455 A
C92    O220    1.281   .     S
C93    O221    1.281   .     S
C93    O225    1.281   .     S
C94    O222    1.281   .     A
C94    O226    1.281   .     A
C95    O227    1.281   .     A
C95    O223    1.281   .     A
C96    O229    1.281   .     A
C96    O224    1.281   .     A
C97    O258    1.282   .     A
C97    O230    1.282   .     A
C98    H183    1.082   .     S
C98    C150    1.402   .     A
C99    O231    1.282   .     A
C99    O259    1.282   .     A
C100   O256    1.282   .     A
C100   O232    1.282   .     A
C101   O257    1.282   .     A
C101   O233    1.282   .     A
C102   O234    1.282   .     A
C102   O263    1.282   .     A
C103   O235    1.282   .     A
C103   O264    1.282   .     A
C104   O236    1.282   .     A
C104   O260    1.282   .     A
C105   O237    1.282   .     A
C105   O262    1.282   .     A
C106   O238    1.282   .     A
C106   O249    1.282   .     A
C107   O240    1.282   .     A
C107   O251    1.282   .     A
C108   O241    1.282   .     A
C108   O247    1.282   .     A
C109   C151    1.402   .     A
C109   H184    1.082   .     S
C109   C379    1.394   .     A
C110   O242    1.282   .     A
C110   O248    1.282   .     A
C111   O243    1.282   .     A
C111   O254    1.282   .     A
C112   O255    1.282   .     A
C112   O244    1.282   .     A
C113   O252    1.282   .     A
C113   O245    1.282   .     A
C114   O253    1.282   .     A
C114   O246    1.282   .     A
C115   H153    1.083   .     S
C115   C132    1.386   .     A
C116   C130    1.386   .     A
C116   H164    1.083   .     S
C117   C129    1.386   .     A
C117   H175    1.083   .     S
C118   H186    1.083   .     S
C118   C128    1.386   .     A
C119   C127    1.386   .     A
C119   H197    1.083   .     S
C120   H185    1.081   .     S
C120   C152    1.402   .     A
C120   C696    1.394   .     S
C121   H208    1.083   .     S
C121   C126    1.386   .     A
C122   C125    1.386   .     A
C122   H214    1.083   .     S
C123   C124    1.386   .     A
C123   H215    1.083   .     S
C124   H216    1.083   .     S
C125   H154    1.083   .     S
C126   H155    1.083   .     S
C127   H156    1.083   .     S
C128   H157    1.083   .     S
C129   H158    1.083   .     S
C130   H159    1.083   .     S
C131   H187    1.082   .     S
C131   C698    1.393   1_545 S
C132   H160    1.083   .     S
C133   C149    1.386   .     A
C133   H161    1.083   .     S
C134   H162    1.083   .     S
C134   C148    1.386   .     A
C135   H163    1.083   .     S
C135   C147    1.386   .     A
C136   C146    1.386   .     A
C136   H165    1.083   .     S
C137   H166    1.083   .     S
C137   C145    1.386   .     A
C138   C144    1.386   .     A
C138   H167    1.083   .     S
C139   C143    1.386   .     A
C139   H168    1.083   .     S
C140   C141    1.386   .     A
C140   H169    1.083   .     S
C141   H170    1.083   .     S
C142   H188    1.082   .     S
C142   C699    1.394   .     A
C143   H171    1.083   .     S
C144   H172    1.083   .     S
C145   H173    1.083   .     S
C146   H174    1.083   .     S
C147   H176    1.083   .     S
C148   H177    1.083   .     S
C149   H178    1.083   .     S
C151   C352    1.420   .     A
C152   C669    1.420   .     S
H196   O266    1.014   .     S
H198   O268    1.014   .     S
H199   O270    1.014   .     S
H200   O273    1.014   .     S
H201   O275    1.014   .     S
H202   O277    1.014   .     S
H203   O279    1.014   .     S
H204   O281    1.014   .     S
H205   O284    1.014   .     S
H206   O286    1.014   .     S
H207   O288    1.014   .     S
H209   O290    1.014   .     S
H210   O292    1.014   .     S
H211   O295    1.014   .     S
H212   O297    1.014   .     S
H213   O299    1.014   .     S
O217   Zn304   1.949   .     S
O217   Zn301   1.949   .     S
O217   Zn312   1.949   .     S
O217   Zn940   1.949   1_545 S
O218   C722    1.281   .     A
O218   Zn303   1.952   .     S
O219   Zn306   1.952   .     S
O219   C407    1.281   .     A
O220   Zn305   1.952   .     S
O221   Zn315   1.952   .     S
O222   Zn314   1.952   .     S
O223   Zn309   1.952   .     S
O224   Zn301   1.952   .     S
O225   Zn311   1.952   .     S
O226   Zn310   1.952   .     S
O227   Zn313   1.952   .     S
O228   Zn935   1.949   1_545 S
O228   Zn307   1.949   .     S
O228   Zn309   1.949   .     S
O228   Zn313   1.949   .     S
O229   Zn312   1.952   .     S
O230   Zn304   1.936   .     S
O231   Zn303   1.936   .     S
O232   Zn306   1.936   .     S
O233   Zn305   1.936   .     S
O234   Zn308   1.936   .     S
O235   Zn307   1.936   .     S
O236   Zn302   1.936   .     S
O237   Zn316   1.936   .     S
O238   Zn303   1.936   .     S
O239   Zn302   1.949   .     S
O239   Zn622   1.949   1_455 S
O239   Zn310   1.949   .     S
O239   Zn314   1.949   .     S
O240   Zn304   1.936   .     S
O241   Zn316   1.936   .     S
O242   Zn302   1.936   .     S
O243   Zn307   1.936   .     S
O244   Zn308   1.936   .     S
O245   Zn305   1.936   .     S
O246   Zn306   1.936   .     S
O247   Zn627   1.936   .     S
O248   Zn310   1.936   .     S
O249   Zn945   1.936   .     S
O250   Zn305   1.949   .     S
O250   Zn311   1.949   .     S
O250   Zn315   1.949   .     S
O250   Zn632   1.949   1_455 S
O251   Zn312   1.936   .     S
O252   Zn315   1.936   .     S
O253   Zn630   1.936   .     S
O254   Zn309   1.936   .     S
O255   Zn933   1.936   .     S
O256   Zn626   1.936   .     S
O257   Zn311   1.936   .     S
O258   Zn301   1.936   .     S
O259   Zn941   1.936   .     S
O260   Zn314   1.936   .     S
O261   Zn308   1.952   .     S
O261   C721    1.281   .     S
O262   Zn631   1.936   .     S
O263   Zn944   1.936   .     S
O264   Zn313   1.936   .     S
O272   Zn307   1.952   .     S
O282   C684    1.223   .     S
O283   Zn302   1.952   .     S
O285   C685    1.223   1_545 S
O287   C370    1.223   1_455 S
O289   C371    1.223   .     S
O291   C688    1.223   1_545 S
O293   C690    1.223   .     S
O294   C408    1.281   .     A
O294   Zn316   1.952   .     S
O296   C375    1.223   .     S
O298   C376    1.223   1_455 S
O300   Zn304   1.952   .     S
Zn301  O887    1.936   1_545 S
Zn303  O860    1.949   .     S
Zn306  O555    1.949   .     S
Zn308  O849    1.949   .     S
Zn309  O891    1.936   1_545 S
Zn310  O572    1.936   1_455 S
Zn311  O563    1.936   1_455 S
Zn312  O895    1.936   1_545 S
Zn313  O881    1.936   1_545 S
Zn314  O569    1.936   1_455 S
Zn315  O578    1.936   1_455 S
Zn316  O566    1.949   .     S
C317   C62     1.394   1_655 A
C317   C320    1.402   .     A
C317   H495    1.082   .     S
C318   C330    1.402   .     A
C318   C384    1.394   .     A
C318   H505    1.082   .     S
C319   C447    1.401   .     A
C319   C390    1.416   .     A
C319   C354    1.420   .     A
C320   C391    1.416   .     A
C320   C34     1.420   1_655 A
C321   C381    1.402   .     A
C321   C393    1.416   .     A
C321   C352    1.420   .     S
C322   C394    1.416   .     A
C322   C392    1.401   .     A
C322   C353    1.420   .     A
C323   C395    1.418   .     A
C323   C403    1.402   .     A
C323   C986    1.420   .     S
C324   C351    1.402   .     A
C324   C396    1.416   .     A
C324   C355    1.420   .     S
C325   C362    1.402   .     A
C325   C988    1.420   .     A
C325   C397    1.416   .     A
C326   C357    1.420   .     A
C326   C398    1.416   .     A
C326   C373    1.402   .     A
C327   C377    1.402   .     A
C327   C399    1.416   .     A
C327   C358    1.420   .     S
C328   C400    1.416   .     A
C328   C987    1.420   .     A
C328   C458    1.402   .     A
C329   H506    1.082   .     S
C329   C331    1.402   .     A
C329   C385    1.394   .     S
C330   C401    1.416   .     A
C330   C356    1.420   .     S
C331   C402    1.416   .     A
C332   C404    1.416   .     A
C332   C340    1.402   .     A
C332   C42     1.420   1_655 A
C333   C420    1.455   .     S
C333   C448    1.402   .     A
C333   C450    1.402   .     A
C334   C449    1.402   .     A
C334   C446    1.402   .     A
C334   C421    1.455   .     S
C335   C445    1.402   .     A
C335   C413    1.455   .     S
C335   C452    1.402   .     A
C336   C415    1.455   .     S
C336   C444    1.402   .     A
C336   C451    1.402   .     A
C337   C454    1.402   .     A
C337   C443    1.402   .     A
C337   C416    1.455   .     S
C338   C453    1.402   .     A
C338   C417    1.455   .     S
C338   C442    1.402   .     A
C339   C456    1.402   .     A
C339   C418    1.455   .     S
C339   C441    1.402   .     A
C340   H507    1.082   .     S
C340   C70     1.394   1_655 S
C341   C455    1.402   .     A
C341   C419    1.455   .     S
C341   C440    1.402   .     A
C342   C439    1.402   .     A
C342   C459    1.402   .     A
C342   C429    1.455   .     S
C343   C457    1.402   .     A
C343   C438    1.402   .     A
C343   C430    1.455   .     S
C344   C461    1.402   .     A
C344   C422    1.455   .     S
C344   C437    1.402   .     A
C345   C435    1.402   .     A
C345   C423    1.455   .     S
C345   C460    1.402   .     A
C346   C434    1.402   .     A
C346   C463    1.402   .     A
C346   C424    1.455   .     S
C347   C426    1.455   .     S
C347   C433    1.402   .     A
C347   C462    1.402   .     A
C348   C432    1.402   .     A
C348   C427    1.455   .     S
C348   C465    1.402   .     A
C349   C431    1.402   .     A
C349   C464    1.402   .     A
C349   C428    1.455   .     S
C350   C352    1.405   .     A
C350   C466    1.420   .     S
C351   H508    1.082   .     S
C351   C383    1.394   .     S
C353   C354    1.405   .     A
C353   C1100   1.420   1_545 S
C354   C955    1.420   1_545 S
C355   C960    1.420   1_545 A
C355   C356    1.404   1_556 S
C356   C957    1.420   1_545 A
C356   C355    1.404   1_554 S
C357   C15     1.420   1_655 S
C357   C42     1.404   1_656 S
C358   C41     1.404   1_554 S
C359   O582    1.397   .     S
C359   C387    1.485   .     S
C359   O581    1.223   .     D
C360   C388    1.485   .     S
C360   O583    1.223   .     D
C360   O584    1.397   .     S
C361   O586    1.398   .     S
C361   O585    1.223   .     D
C361   C389    1.488   .     S
C362   H509    1.082   .     S
C362   C1016   1.394   .     S
C363   C390    1.485   .     S
C363   O587    1.223   .     D
C363   O589    1.397   .     S
C364   O590    1.223   .     D
C364   C391    1.485   .     S
C364   O591    1.397   .     S
C365   O593    1.397   .     S
C365   C393    1.485   .     S
C365   O592    1.223   .     D
C366   O594    1.223   .     D
C366   C394    1.486   .     S
C366   O595    1.397   .     S
C367   O597    1.398   .     S
C367   C395    1.488   .     S
C367   O596    1.223   .     D
C368   O600    1.397   .     S
C368   C396    1.485   .     S
C368   O1230   1.223   1_545 S
C369   C397    1.485   .     S
C369   O602    1.397   .     S
C369   O1233   1.223   .     S
C370   O604    1.397   .     S
C370   C398    1.485   .     S
C370   O287    1.223   1_655 S
C371   C399    1.485   .     S
C371   O606    1.397   .     S
C372   C400    1.485   .     S
C372   O608    1.397   .     S
C372   O1239   1.223   .     S
C373   H510    1.082   .     S
C373   C69     1.394   1_655 A
C374   O611    1.397   .     S
C374   C401    1.485   .     S
C374   O1241   1.223   1_545 S
C375   O613    1.397   .     S
C375   C402    1.485   .     S
C376   C404    1.485   .     S
C376   O615    1.397   .     S
C376   O298    1.223   1_655 S
C377   C386    1.394   .     A
C377   H511    1.082   .     S
C378   C407    1.462   .     S
C378   C414    1.394   .     S
C379   C408    1.462   .     S
C379   C381    1.394   .     S
C380   C405    1.463   .     S
C380   C392    1.393   .     A
C380   C1068   1.394   1_545 S
C381   H496    1.082   .     S
C382   C1038   1.463   .     S
C382   C403    1.394   .     A
C382   C1079   1.393   .     S
C383   C411    1.463   .     S
C383   C1090   1.394   1_545 A
C384   C412    1.462   .     S
C384   C994    1.394   1_545 S
C385   C409    1.462   .     S
C386   C410    1.462   .     S
C387   C466    1.416   .     A
C387   C393    1.408   .     A
C388   C467    1.416   .     A
C388   C391    1.408   .     A
C389   C395    1.411   .     A
C389   C468    1.417   .     A
C390   C394    1.408   .     A
C392   H497    1.082   .     S
C396   C401    1.408   1_556 S
C397   C400    1.408   1_554 S
C398   C404    1.408   1_556 S
C399   C402    1.408   1_554 S
C400   C397    1.408   1_556 S
C401   C396    1.408   1_554 S
C402   C399    1.408   1_556 S
C403   H498    1.081   .     S
C404   C398    1.408   1_554 S
C405   O616    1.281   .     A
C405   O1209   1.281   1_545 S
C406   O1166   1.281   1_545 A
C406   C1014   1.463   1_545 S
C406   O588    1.281   .     S
C407   O599    1.281   .     S
C408   O536    1.281   .     S
C409   O537    1.281   .     S
C409   O541    1.281   .     S
C410   O538    1.281   .     A
C410   O542    1.281   .     A
C411   O543    1.281   .     A
C411   O539    1.281   .     A
C412   O545    1.281   .     A
C412   O540    1.281   .     A
C413   O574    1.282   .     A
C413   O546    1.282   .     A
C414   H499    1.082   .     S
C414   C466    1.402   .     A
C415   O547    1.282   .     A
C415   O575    1.282   .     A
C416   O572    1.282   .     A
C416   O548    1.282   .     A
C417   O573    1.282   .     A
C417   O549    1.282   .     A
C418   O550    1.282   .     A
C418   O579    1.282   .     A
C419   O551    1.282   .     A
C419   O580    1.282   .     A
C420   O552    1.282   .     A
C420   O576    1.282   .     A
C421   O553    1.282   .     A
C421   O578    1.282   .     A
C422   O554    1.282   .     A
C422   O565    1.282   .     A
C423   O556    1.282   .     A
C423   O567    1.282   .     A
C424   O557    1.282   .     A
C424   O563    1.282   .     A
C425   C467    1.402   .     A
C425   H500    1.082   .     S
C425   C63     1.394   1_655 A
C426   O558    1.282   .     A
C426   O564    1.282   .     A
C427   O559    1.282   .     A
C427   O570    1.282   .     A
C428   O571    1.282   .     A
C428   O560    1.282   .     A
C429   O568    1.282   .     A
C429   O561    1.282   .     A
C430   O569    1.282   .     A
C430   O562    1.282   .     A
C431   H469    1.083   .     S
C431   C448    1.386   .     A
C432   C446    1.386   .     A
C432   H480    1.083   .     S
C433   C445    1.386   .     A
C433   H491    1.083   .     S
C434   H502    1.083   .     S
C434   C444    1.386   .     A
C435   C443    1.386   .     A
C435   H513    1.083   .     S
C436   H501    1.081   .     S
C436   C468    1.402   .     A
C436   C1012   1.394   .     S
C437   H524    1.083   .     S
C437   C442    1.386   .     A
C438   C441    1.386   .     A
C438   H530    1.083   .     S
C439   C440    1.386   .     A
C439   H531    1.083   .     S
C440   H532    1.083   .     S
C441   H470    1.083   .     S
C442   H471    1.083   .     S
C443   H472    1.083   .     S
C444   H473    1.083   .     S
C445   H474    1.083   .     S
C446   H475    1.083   .     S
C447   H503    1.082   .     S
C447   C1014   1.393   1_545 S
C448   H476    1.083   .     S
C449   C465    1.386   .     A
C449   H477    1.083   .     S
C450   H478    1.083   .     S
C450   C464    1.386   .     A
C451   H479    1.083   .     S
C451   C463    1.386   .     A
C452   C462    1.386   .     A
C452   H481    1.083   .     S
C453   H482    1.083   .     S
C453   C461    1.386   .     A
C454   C460    1.386   .     A
C454   H483    1.083   .     S
C455   C459    1.386   .     A
C455   H484    1.083   .     S
C456   C457    1.386   .     A
C456   H485    1.083   .     S
C457   H486    1.083   .     S
C458   H504    1.082   .     S
C458   C1015   1.394   .     A
C459   H487    1.083   .     S
C460   H488    1.083   .     S
C461   H489    1.083   .     S
C462   H490    1.083   .     S
C463   H492    1.083   .     S
C464   H493    1.083   .     S
C465   H494    1.083   .     S
C467   C36     1.420   1_655 A
C468   C985    1.420   .     S
H512   O582    1.014   .     S
H514   O584    1.014   .     S
H515   O586    1.014   .     S
H516   O589    1.014   .     S
H517   O591    1.014   .     S
H518   O593    1.014   .     S
H519   O595    1.014   .     S
H520   O597    1.014   .     S
H521   O600    1.014   .     S
H522   O602    1.014   .     S
H523   O604    1.014   .     S
H525   O606    1.014   .     S
H526   O608    1.014   .     S
H527   O611    1.014   .     S
H528   O613    1.014   .     S
H529   O615    1.014   .     S
O533   Zn620   1.949   .     S
O533   Zn617   1.949   .     S
O533   Zn628   1.949   .     S
O533   Zn1256  1.949   1_545 S
O534   C1038   1.281   .     A
O534   Zn619   1.952   .     S
O535   Zn622   1.952   .     S
O535   C91     1.281   1_655 A
O536   Zn621   1.952   .     S
O537   Zn631   1.952   .     S
O538   Zn630   1.952   .     S
O539   Zn625   1.952   .     S
O540   Zn617   1.952   .     S
O541   Zn627   1.952   .     S
O542   Zn626   1.952   .     S
O543   Zn629   1.952   .     S
O544   Zn1251  1.949   1_545 S
O544   Zn623   1.949   .     S
O544   Zn625   1.949   .     S
O544   Zn629   1.949   .     S
O545   Zn628   1.952   .     S
O546   Zn620   1.936   .     S
O547   Zn619   1.936   .     S
O548   Zn622   1.936   .     S
O549   Zn621   1.936   .     S
O550   Zn624   1.936   .     S
O551   Zn623   1.936   .     S
O552   Zn618   1.936   .     S
O553   Zn632   1.936   .     S
O554   Zn619   1.936   .     S
O555   Zn618   1.949   .     S
O555   Zn626   1.949   .     S
O555   Zn630   1.949   .     S
O556   Zn620   1.936   .     S
O557   Zn632   1.936   .     S
O558   Zn618   1.936   .     S
O559   Zn623   1.936   .     S
O560   Zn624   1.936   .     S
O561   Zn621   1.936   .     S
O562   Zn622   1.936   .     S
O563   Zn311   1.936   1_655 S
O564   Zn626   1.936   .     S
O565   Zn1261  1.936   .     S
O566   Zn621   1.949   .     S
O566   Zn627   1.949   .     S
O566   Zn631   1.949   .     S
O567   Zn628   1.936   .     S
O568   Zn631   1.936   .     S
O569   Zn314   1.936   1_655 S
O570   Zn625   1.936   .     S
O571   Zn1249  1.936   .     S
O572   Zn310   1.936   1_655 S
O573   Zn627   1.936   .     S
O574   Zn617   1.936   .     S
O575   Zn1257  1.936   .     S
O576   Zn630   1.936   .     S
O577   Zn624   1.952   .     S
O577   C1037   1.281   .     S
O578   Zn315   1.936   1_655 S
O579   Zn1260  1.936   .     S
O580   Zn629   1.936   .     S
O588   Zn623   1.952   .     S
O598   C1000   1.223   .     S
O599   Zn618   1.952   .     S
O601   C1001   1.223   1_545 S
O605   C55     1.223   1_655 S
O607   C1004   1.223   1_545 S
O609   C1006   1.223   .     S
O610   C92     1.281   1_655 A
O610   Zn632   1.952   .     S
O612   C59     1.223   1_655 S
O616   Zn620   1.952   .     S
Zn617  O1203   1.936   1_545 S
Zn619  O1176   1.949   .     S
Zn622  O239    1.949   1_655 S
Zn624  O1165   1.949   .     S
Zn625  O1207   1.936   1_545 S
Zn628  O1211   1.936   1_545 S
Zn629  O1197   1.936   1_545 S
Zn632  O250    1.949   1_655 S
C633   C1010   1.394   .     A
C633   C636    1.402   .     A
C633   H811    1.082   .     S
C634   C646    1.402   .     A
C634   C700    1.394   .     A
C634   H821    1.082   .     S
C635   C763    1.401   .     A
C635   C706    1.416   .     A
C635   C670    1.420   .     A
C636   C707    1.416   .     A
C636   C982    1.420   .     A
C637   C697    1.402   .     A
C637   C709    1.416   .     A
C637   C668    1.420   .     S
C638   C710    1.416   .     A
C638   C708    1.401   .     A
C638   C669    1.420   .     A
C639   C711    1.418   .     A
C639   C719    1.402   .     A
C639   C38     1.420   1_565 S
C640   C667    1.402   .     A
C640   C712    1.416   .     A
C640   C671    1.420   .     S
C641   C678    1.402   .     A
C641   C40     1.420   1_565 A
C641   C713    1.416   .     A
C642   C673    1.420   .     A
C642   C714    1.416   .     A
C642   C689    1.402   .     A
C643   C693    1.402   .     A
C643   C715    1.416   .     A
C643   C674    1.420   .     S
C644   C716    1.416   .     A
C644   C39     1.420   1_565 A
C644   C774    1.402   .     A
C645   H822    1.082   .     S
C645   C647    1.402   .     A
C645   C701    1.394   .     S
C646   C717    1.416   .     A
C646   C672    1.420   .     S
C647   C718    1.416   .     A
C647   C989    1.420   1_455 S
C648   C720    1.416   .     A
C648   C656    1.402   .     A
C648   C990    1.420   .     A
C649   C736    1.455   .     S
C649   C764    1.402   .     A
C649   C766    1.402   .     A
C650   C765    1.402   .     A
C650   C762    1.402   .     A
C650   C737    1.455   .     S
C651   C761    1.402   .     A
C651   C729    1.455   .     S
C651   C768    1.402   .     A
C652   C731    1.455   .     S
C652   C760    1.402   .     A
C652   C767    1.402   .     A
C653   C770    1.402   .     A
C653   C759    1.402   .     A
C653   C732    1.455   .     S
C654   C769    1.402   .     A
C654   C733    1.455   .     S
C654   C758    1.402   .     A
C655   C772    1.402   .     A
C655   C734    1.455   .     S
C655   C757    1.402   .     A
C656   H823    1.082   .     S
C656   C1018   1.394   .     S
C657   C771    1.402   .     A
C657   C735    1.455   .     S
C657   C756    1.402   .     A
C658   C755    1.402   .     A
C658   C775    1.402   .     A
C658   C745    1.455   .     S
C659   C773    1.402   .     A
C659   C754    1.402   .     A
C659   C746    1.455   .     S
C660   C777    1.402   .     A
C660   C738    1.455   .     S
C660   C753    1.402   .     A
C661   C751    1.402   .     A
C661   C739    1.455   .     S
C661   C776    1.402   .     A
C662   C750    1.402   .     A
C662   C779    1.402   .     A
C662   C740    1.455   .     S
C663   C742    1.455   .     S
C663   C749    1.402   .     A
C663   C778    1.402   .     A
C664   C748    1.402   .     A
C664   C743    1.455   .     S
C664   C781    1.402   .     A
C665   C747    1.402   .     A
C665   C780    1.402   .     A
C665   C744    1.455   .     S
C666   C668    1.405   .     A
C666   C952    1.420   1_455 A
C666   C782    1.420   .     S
C667   H824    1.082   .     S
C667   C699    1.394   .     S
C668   C1099   1.420   1_455 A
C669   C670    1.405   .     A
C671   C672    1.404   1_556 S
C672   C671    1.404   1_554 S
C673   C963    1.420   .     S
C673   C990    1.404   1_556 S
C674   C964    1.420   1_455 A
C674   C989    1.404   1_454 S
C675   O898    1.397   .     S
C675   C703    1.485   .     S
C675   O897    1.223   .     D
C676   C704    1.485   .     S
C676   O899    1.223   .     D
C676   O900    1.397   .     S
C677   O902    1.398   .     S
C677   O901    1.223   .     D
C677   C705    1.488   .     S
C678   H825    1.082   .     S
C678   C68     1.394   1_565 S
C679   C706    1.485   .     S
C679   O903    1.223   .     D
C679   O905    1.397   .     S
C680   O906    1.223   .     D
C680   C707    1.485   .     S
C680   O907    1.397   .     S
C681   O909    1.397   .     S
C681   C709    1.485   .     S
C681   O908    1.223   .     D
C682   O910    1.223   .     D
C682   C710    1.486   .     S
C682   O911    1.397   .     S
C683   O913    1.398   .     S
C683   C711    1.488   .     S
C683   O912    1.223   .     D
C684   O916    1.397   .     S
C684   C712    1.485   .     S
C685   C713    1.485   .     S
C685   O918    1.397   .     S
C685   O285    1.223   1_565 S
C686   O920    1.397   .     S
C686   C714    1.485   .     S
C686   O1235   1.223   .     S
C687   C715    1.485   .     S
C687   O922    1.397   .     S
C687   O1237   1.223   1_455 S
C688   C716    1.485   .     S
C688   O924    1.397   .     S
C688   O291    1.223   1_565 S
C689   H826    1.082   .     S
C689   C1017   1.394   .     A
C690   O927    1.397   .     S
C690   C717    1.485   .     S
C691   O929    1.397   .     S
C691   C718    1.485   .     S
C691   O1244   1.223   1_455 S
C692   C720    1.485   .     S
C692   O931    1.397   .     S
C692   O1246   1.223   .     S
C693   C702    1.394   .     A
C693   H827    1.082   .     S
C694   C949    1.394   1_455 A
C694   C723    1.462   .     S
C694   C730    1.394   .     S
C695   C1057   1.394   1_455 A
C695   C724    1.462   .     S
C695   C697    1.394   .     S
C696   C721    1.463   .     S
C696   C708    1.393   .     A
C697   H812    1.082   .     S
C698   C90     1.463   1_565 S
C698   C719    1.394   .     A
C698   C131    1.393   1_565 S
C699   C727    1.463   .     S
C700   C728    1.462   .     S
C701   C725    1.462   .     S
C701   C1005   1.394   1_455 A
C702   C726    1.462   .     S
C702   C972    1.394   1_455 S
C703   C782    1.416   .     A
C703   C709    1.408   .     A
C704   C783    1.416   .     A
C704   C707    1.408   .     A
C705   C711    1.411   .     A
C705   C784    1.417   .     A
C706   C710    1.408   .     A
C708   H813    1.082   .     S
C712   C717    1.408   1_556 S
C713   C716    1.408   1_554 S
C714   C720    1.408   1_556 S
C715   C718    1.408   1_554 S
C716   C713    1.408   1_556 S
C717   C712    1.408   1_554 S
C718   C715    1.408   1_556 S
C719   H814    1.081   .     S
C720   C714    1.408   1_554 S
C721   O932    1.281   .     A
C722   O904    1.281   .     S
C723   O1167   1.281   1_455 A
C723   O915    1.281   .     S
C724   O1242   1.281   1_455 A
C724   O852    1.281   .     S
C725   O853    1.281   .     S
C725   O857    1.281   .     S
C726   O854    1.281   .     A
C726   O858    1.281   .     A
C727   O859    1.281   .     A
C727   O855    1.281   .     A
C728   O861    1.281   .     A
C728   O856    1.281   .     A
C729   O890    1.282   .     A
C729   O862    1.282   .     A
C730   H815    1.082   .     S
C730   C782    1.402   .     A
C731   O863    1.282   .     A
C731   O891    1.282   .     A
C732   O888    1.282   .     A
C732   O864    1.282   .     A
C733   O889    1.282   .     A
C733   O865    1.282   .     A
C734   O866    1.282   .     A
C734   O895    1.282   .     A
C735   O867    1.282   .     A
C735   O896    1.282   .     A
C736   O868    1.282   .     A
C736   O892    1.282   .     A
C737   O869    1.282   .     A
C737   O894    1.282   .     A
C738   O870    1.282   .     A
C738   O881    1.282   .     A
C739   O872    1.282   .     A
C739   O883    1.282   .     A
C740   O873    1.282   .     A
C740   O879    1.282   .     A
C741   C783    1.402   .     A
C741   H816    1.082   .     S
C741   C1011   1.394   .     A
C742   O874    1.282   .     A
C742   O880    1.282   .     A
C743   O875    1.282   .     A
C743   O886    1.282   .     A
C744   O887    1.282   .     A
C744   O876    1.282   .     A
C745   O884    1.282   .     A
C745   O877    1.282   .     A
C746   O885    1.282   .     A
C746   O878    1.282   .     A
C747   H785    1.083   .     S
C747   C764    1.386   .     A
C748   C762    1.386   .     A
C748   H796    1.083   .     S
C749   C761    1.386   .     A
C749   H807    1.083   .     S
C750   H818    1.083   .     S
C750   C760    1.386   .     A
C751   C759    1.386   .     A
C751   H829    1.083   .     S
C752   H817    1.081   .     S
C752   C784    1.402   .     A
C752   C64     1.394   1_565 S
C753   H840    1.083   .     S
C753   C758    1.386   .     A
C754   C757    1.386   .     A
C754   H846    1.083   .     S
C755   C756    1.386   .     A
C755   H847    1.083   .     S
C756   H848    1.083   .     S
C757   H786    1.083   .     S
C758   H787    1.083   .     S
C759   H788    1.083   .     S
C760   H789    1.083   .     S
C761   H790    1.083   .     S
C762   H791    1.083   .     S
C763   H819    1.082   .     S
C764   H792    1.083   .     S
C765   C781    1.386   .     A
C765   H793    1.083   .     S
C766   H794    1.083   .     S
C766   C780    1.386   .     A
C767   H795    1.083   .     S
C767   C779    1.386   .     A
C768   C778    1.386   .     A
C768   H797    1.083   .     S
C769   H798    1.083   .     S
C769   C777    1.386   .     A
C770   C776    1.386   .     A
C770   H799    1.083   .     S
C771   C775    1.386   .     A
C771   H800    1.083   .     S
C772   C773    1.386   .     A
C772   H801    1.083   .     S
C773   H802    1.083   .     S
C774   H820    1.082   .     S
C774   C67     1.394   1_565 A
C775   H803    1.083   .     S
C776   H804    1.083   .     S
C777   H805    1.083   .     S
C778   H806    1.083   .     S
C779   H808    1.083   .     S
C780   H809    1.083   .     S
C781   H810    1.083   .     S
C783   C984    1.420   .     A
C784   C37     1.420   1_565 S
H828   O898    1.014   .     S
H830   O900    1.014   .     S
H831   O902    1.014   .     S
H832   O905    1.014   .     S
H833   O907    1.014   .     S
H834   O909    1.014   .     S
H835   O911    1.014   .     S
H836   O913    1.014   .     S
H837   O916    1.014   .     S
H838   O918    1.014   .     S
H839   O920    1.014   .     S
H841   O922    1.014   .     S
H842   O924    1.014   .     S
H843   O927    1.014   .     S
H844   O929    1.014   .     S
H845   O931    1.014   .     S
O849   Zn936   1.949   .     S
O849   Zn933   1.949   .     S
O849   Zn944   1.949   .     S
O850   C90     1.281   1_565 A
O850   Zn935   1.952   .     S
O851   Zn938   1.952   .     S
O851   C1039   1.281   .     A
O852   Zn937   1.952   .     S
O853   Zn947   1.952   .     S
O854   Zn946   1.952   .     S
O855   Zn941   1.952   .     S
O856   Zn933   1.952   .     S
O857   Zn943   1.952   .     S
O858   Zn942   1.952   .     S
O859   Zn945   1.952   .     S
O860   Zn939   1.949   .     S
O860   Zn941   1.949   .     S
O860   Zn945   1.949   .     S
O861   Zn944   1.952   .     S
O862   Zn936   1.936   .     S
O863   Zn935   1.936   .     S
O864   Zn938   1.936   .     S
O865   Zn937   1.936   .     S
O866   Zn940   1.936   .     S
O867   Zn939   1.936   .     S
O868   Zn934   1.936   .     S
O869   Zn948   1.936   .     S
O870   Zn935   1.936   .     S
O871   Zn934   1.949   .     S
O871   Zn1254  1.949   1_455 S
O871   Zn942   1.949   .     S
O871   Zn946   1.949   .     S
O872   Zn936   1.936   .     S
O873   Zn948   1.936   .     S
O874   Zn934   1.936   .     S
O875   Zn939   1.936   .     S
O876   Zn940   1.936   .     S
O877   Zn937   1.936   .     S
O878   Zn938   1.936   .     S
O879   Zn1259  1.936   .     S
O880   Zn942   1.936   .     S
O881   Zn313   1.936   1_565 S
O882   Zn937   1.949   .     S
O882   Zn943   1.949   .     S
O882   Zn947   1.949   .     S
O882   Zn1264  1.949   1_455 S
O883   Zn944   1.936   .     S
O884   Zn947   1.936   .     S
O885   Zn1262  1.936   .     S
O886   Zn941   1.936   .     S
O887   Zn301   1.936   1_565 S
O888   Zn1258  1.936   .     S
O889   Zn943   1.936   .     S
O890   Zn933   1.936   .     S
O891   Zn309   1.936   1_565 S
O892   Zn946   1.936   .     S
O893   Zn940   1.952   .     S
O893   C89     1.281   1_565 S
O894   Zn1263  1.936   .     S
O895   Zn312   1.936   1_565 S
O896   Zn945   1.936   .     S
O904   Zn939   1.952   .     S
O914   C52     1.223   1_565 S
O915   Zn934   1.952   .     S
O919   C1002   1.223   1_455 S
O921   C1003   1.223   .     S
O925   C58     1.223   1_565 S
O926   C1040   1.281   .     A
O926   Zn948   1.952   .     S
O928   C1007   1.223   .     S
O930   C1008   1.223   1_455 S
O932   Zn936   1.952   .     S
Zn935  O228    1.949   1_565 S
Zn938  O1187   1.949   .     S
Zn940  O217    1.949   1_565 S
Zn942  O1204   1.936   1_455 S
Zn943  O1195   1.936   1_455 S
Zn946  O1201   1.936   1_455 S
Zn947  O1210   1.936   1_455 S
Zn948  O1198   1.949   .     S
C949   C694    1.394   1_655 A
C949   C952    1.402   .     A
C949   H1127   1.082   .     S
C950   C962    1.402   .     A
C950   C1016   1.394   .     A
C950   H1137   1.082   .     S
C951   C1079   1.401   .     A
C951   C1022   1.416   .     A
C951   C986    1.420   .     A
C952   C1023   1.416   .     A
C952   C666    1.420   1_655 A
C953   C1013   1.402   .     A
C953   C1025   1.416   .     A
C953   C984    1.420   .     S
C954   C1026   1.416   .     A
C954   C1024   1.401   .     A
C954   C985    1.420   .     A
C955   C1027   1.418   .     A
C955   C1035   1.402   .     A
C955   C354    1.420   1_565 S
C956   C983    1.402   .     A
C956   C1028   1.416   .     A
C956   C987    1.420   .     S
C957   C994    1.402   .     A
C957   C356    1.420   1_565 A
C957   C1029   1.416   .     A
C958   C989    1.420   .     A
C958   C1030   1.416   .     A
C958   C1005   1.402   .     A
C959   C1009   1.402   .     A
C959   C1031   1.416   .     A
C959   C990    1.420   .     S
C960   C1032   1.416   .     A
C960   C355    1.420   1_565 A
C960   C1090   1.402   .     A
C961   H1138   1.082   .     S
C961   C963    1.402   .     A
C961   C1017   1.394   .     S
C962   C1033   1.416   .     A
C962   C988    1.420   .     S
C963   C1034   1.416   .     A
C964   C1036   1.416   .     A
C964   C972    1.402   .     A
C964   C674    1.420   1_655 A
C965   C1052   1.455   .     S
C965   C1080   1.402   .     A
C965   C1082   1.402   .     A
C966   C1081   1.402   .     A
C966   C1078   1.402   .     A
C966   C1053   1.455   .     S
C967   C1077   1.402   .     A
C967   C1045   1.455   .     S
C967   C1084   1.402   .     A
C968   C1047   1.455   .     S
C968   C1076   1.402   .     A
C968   C1083   1.402   .     A
C969   C1086   1.402   .     A
C969   C1075   1.402   .     A
C969   C1048   1.455   .     S
C970   C1085   1.402   .     A
C970   C1049   1.455   .     S
C970   C1074   1.402   .     A
C971   C1088   1.402   .     A
C971   C1050   1.455   .     S
C971   C1073   1.402   .     A
C972   H1139   1.082   .     S
C972   C702    1.394   1_655 S
C973   C1087   1.402   .     A
C973   C1051   1.455   .     S
C973   C1072   1.402   .     A
C974   C1071   1.402   .     A
C974   C1091   1.402   .     A
C974   C1061   1.455   .     S
C975   C1089   1.402   .     A
C975   C1070   1.402   .     A
C975   C1062   1.455   .     S
C976   C1093   1.402   .     A
C976   C1054   1.455   .     S
C976   C1069   1.402   .     A
C977   C1067   1.402   .     A
C977   C1055   1.455   .     S
C977   C1092   1.402   .     A
C978   C1066   1.402   .     A
C978   C1095   1.402   .     A
C978   C1056   1.455   .     S
C979   C1058   1.455   .     S
C979   C1065   1.402   .     A
C979   C1094   1.402   .     A
C980   C1064   1.402   .     A
C980   C1059   1.455   .     S
C980   C1097   1.402   .     A
C981   C1063   1.402   .     A
C981   C1096   1.402   .     A
C981   C1060   1.455   .     S
C982   C984    1.405   .     A
C982   C1098   1.420   .     S
C983   H1140   1.082   .     S
C983   C1015   1.394   .     S
C985   C986    1.405   .     A
C987   C988    1.404   1_556 S
C988   C987    1.404   1_554 S
C989   C647    1.420   1_655 S
C989   C674    1.404   1_656 S
C990   C673    1.404   1_554 S
C991   O1214   1.397   .     S
C991   C1019   1.485   .     S
C991   O1213   1.223   .     D
C992   C1020   1.485   .     S
C992   O1215   1.223   .     D
C992   O1216   1.397   .     S
C993   O1218   1.398   .     S
C993   O1217   1.223   .     D
C993   C1021   1.488   .     S
C994   H1141   1.082   .     S
C994   C384    1.394   1_565 S
C995   C1022   1.485   .     S
C995   O1219   1.223   .     D
C995   O1221   1.397   .     S
C996   O1222   1.223   .     D
C996   C1023   1.485   .     S
C996   O1223   1.397   .     S
C997   O1225   1.397   .     S
C997   C1025   1.485   .     S
C997   O1224   1.223   .     D
C998   O1226   1.223   .     D
C998   C1026   1.486   .     S
C998   O1227   1.397   .     S
C999   O1229   1.398   .     S
C999   C1027   1.488   .     S
C999   O1228   1.223   .     D
C1000  O1232   1.397   .     S
C1000  C1028   1.485   .     S
C1001  C1029   1.485   .     S
C1001  O1234   1.397   .     S
C1001  O601    1.223   1_565 S
C1002  O1236   1.397   .     S
C1002  C1030   1.485   .     S
C1002  O919    1.223   1_655 S
C1003  C1031   1.485   .     S
C1003  O1238   1.397   .     S
C1004  C1032   1.485   .     S
C1004  O1240   1.397   .     S
C1004  O607    1.223   1_565 S
C1005  H1142   1.082   .     S
C1005  C701    1.394   1_655 A
C1006  O1243   1.397   .     S
C1006  C1033   1.485   .     S
C1007  O1245   1.397   .     S
C1007  C1034   1.485   .     S
C1008  C1036   1.485   .     S
C1008  O1247   1.397   .     S
C1008  O930    1.223   1_655 S
C1009  C1018   1.394   .     A
C1009  H1143   1.082   .     S
C1010  C1039   1.462   .     S
C1010  C1046   1.394   .     S
C1011  C1040   1.462   .     S
C1011  C1013   1.394   .     S
C1012  C1037   1.463   .     S
C1012  C1024   1.393   .     A
C1013  H1128   1.082   .     S
C1014  C406    1.463   1_565 S
C1014  C1035   1.394   .     A
C1014  C447    1.393   1_565 S
C1015  C1043   1.463   .     S
C1016  C1044   1.462   .     S
C1017  C1041   1.462   .     S
C1018  C1042   1.462   .     S
C1019  C1098   1.416   .     A
C1019  C1025   1.408   .     A
C1020  C1099   1.416   .     A
C1020  C1023   1.408   .     A
C1021  C1027   1.411   .     A
C1021  C1100   1.417   .     A
C1022  C1026   1.408   .     A
C1024  H1129   1.082   .     S
C1028  C1033   1.408   1_556 S
C1029  C1032   1.408   1_554 S
C1030  C1036   1.408   1_556 S
C1031  C1034   1.408   1_554 S
C1032  C1029   1.408   1_556 S
C1033  C1028   1.408   1_554 S
C1034  C1031   1.408   1_556 S
C1035  H1130   1.081   .     S
C1036  C1030   1.408   1_554 S
C1037  O1248   1.281   .     A
C1038  O1220   1.281   .     S
C1039  O1231   1.281   .     S
C1040  O1168   1.281   .     S
C1041  O1169   1.281   .     S
C1041  O1173   1.281   .     S
C1042  O1170   1.281   .     A
C1042  O1174   1.281   .     A
C1043  O1175   1.281   .     A
C1043  O1171   1.281   .     A
C1044  O1177   1.281   .     A
C1044  O1172   1.281   .     A
C1045  O1206   1.282   .     A
C1045  O1178   1.282   .     A
C1046  H1131   1.082   .     S
C1046  C1098   1.402   .     A
C1047  O1179   1.282   .     A
C1047  O1207   1.282   .     A
C1048  O1204   1.282   .     A
C1048  O1180   1.282   .     A
C1049  O1205   1.282   .     A
C1049  O1181   1.282   .     A
C1050  O1182   1.282   .     A
C1050  O1211   1.282   .     A
C1051  O1183   1.282   .     A
C1051  O1212   1.282   .     A
C1052  O1184   1.282   .     A
C1052  O1208   1.282   .     A
C1053  O1185   1.282   .     A
C1053  O1210   1.282   .     A
C1054  O1186   1.282   .     A
C1054  O1197   1.282   .     A
C1055  O1188   1.282   .     A
C1055  O1199   1.282   .     A
C1056  O1189   1.282   .     A
C1056  O1195   1.282   .     A
C1057  C1099   1.402   .     A
C1057  H1132   1.082   .     S
C1057  C695    1.394   1_655 A
C1058  O1190   1.282   .     A
C1058  O1196   1.282   .     A
C1059  O1191   1.282   .     A
C1059  O1202   1.282   .     A
C1060  O1203   1.282   .     A
C1060  O1192   1.282   .     A
C1061  O1200   1.282   .     A
C1061  O1193   1.282   .     A
C1062  O1201   1.282   .     A
C1062  O1194   1.282   .     A
C1063  H1101   1.083   .     S
C1063  C1080   1.386   .     A
C1064  C1078   1.386   .     A
C1064  H1112   1.083   .     S
C1065  C1077   1.386   .     A
C1065  H1123   1.083   .     S
C1066  H1134   1.083   .     S
C1066  C1076   1.386   .     A
C1067  C1075   1.386   .     A
C1067  H1145   1.083   .     S
C1068  H1133   1.081   .     S
C1068  C1100   1.402   .     A
C1068  C380    1.394   1_565 S
C1069  H1156   1.083   .     S
C1069  C1074   1.386   .     A
C1070  C1073   1.386   .     A
C1070  H1162   1.083   .     S
C1071  C1072   1.386   .     A
C1071  H1163   1.083   .     S
C1072  H1164   1.083   .     S
C1073  H1102   1.083   .     S
C1074  H1103   1.083   .     S
C1075  H1104   1.083   .     S
C1076  H1105   1.083   .     S
C1077  H1106   1.083   .     S
C1078  H1107   1.083   .     S
C1079  H1135   1.082   .     S
C1080  H1108   1.083   .     S
C1081  C1097   1.386   .     A
C1081  H1109   1.083   .     S
C1082  H1110   1.083   .     S
C1082  C1096   1.386   .     A
C1083  H1111   1.083   .     S
C1083  C1095   1.386   .     A
C1084  C1094   1.386   .     A
C1084  H1113   1.083   .     S
C1085  H1114   1.083   .     S
C1085  C1093   1.386   .     A
C1086  C1092   1.386   .     A
C1086  H1115   1.083   .     S
C1087  C1091   1.386   .     A
C1087  H1116   1.083   .     S
C1088  C1089   1.386   .     A
C1088  H1117   1.083   .     S
C1089  H1118   1.083   .     S
C1090  H1136   1.082   .     S
C1090  C383    1.394   1_565 A
C1091  H1119   1.083   .     S
C1092  H1120   1.083   .     S
C1093  H1121   1.083   .     S
C1094  H1122   1.083   .     S
C1095  H1124   1.083   .     S
C1096  H1125   1.083   .     S
C1097  H1126   1.083   .     S
C1099  C668    1.420   1_655 A
C1100  C353    1.420   1_565 S
H1144  O1214   1.014   .     S
H1146  O1216   1.014   .     S
H1147  O1218   1.014   .     S
H1148  O1221   1.014   .     S
H1149  O1223   1.014   .     S
H1150  O1225   1.014   .     S
H1151  O1227   1.014   .     S
H1152  O1229   1.014   .     S
H1153  O1232   1.014   .     S
H1154  O1234   1.014   .     S
H1155  O1236   1.014   .     S
H1157  O1238   1.014   .     S
H1158  O1240   1.014   .     S
H1159  O1243   1.014   .     S
H1160  O1245   1.014   .     S
H1161  O1247   1.014   .     S
O1165  Zn1252  1.949   .     S
O1165  Zn1249  1.949   .     S
O1165  Zn1260  1.949   .     S
O1166  C406    1.281   1_565 A
O1166  Zn1251  1.952   .     S
O1167  Zn1254  1.952   .     S
O1167  C723    1.281   1_655 A
O1168  Zn1253  1.952   .     S
O1169  Zn1263  1.952   .     S
O1170  Zn1262  1.952   .     S
O1171  Zn1257  1.952   .     S
O1172  Zn1249  1.952   .     S
O1173  Zn1259  1.952   .     S
O1174  Zn1258  1.952   .     S
O1175  Zn1261  1.952   .     S
O1176  Zn1255  1.949   .     S
O1176  Zn1257  1.949   .     S
O1176  Zn1261  1.949   .     S
O1177  Zn1260  1.952   .     S
O1178  Zn1252  1.936   .     S
O1179  Zn1251  1.936   .     S
O1180  Zn1254  1.936   .     S
O1181  Zn1253  1.936   .     S
O1182  Zn1256  1.936   .     S
O1183  Zn1255  1.936   .     S
O1184  Zn1250  1.936   .     S
O1185  Zn1264  1.936   .     S
O1186  Zn1251  1.936   .     S
O1187  Zn1250  1.949   .     S
O1187  Zn1258  1.949   .     S
O1187  Zn1262  1.949   .     S
O1188  Zn1252  1.936   .     S
O1189  Zn1264  1.936   .     S
O1190  Zn1250  1.936   .     S
O1191  Zn1255  1.936   .     S
O1192  Zn1256  1.936   .     S
O1193  Zn1253  1.936   .     S
O1194  Zn1254  1.936   .     S
O1195  Zn943   1.936   1_655 S
O1196  Zn1258  1.936   .     S
O1197  Zn629   1.936   1_565 S
O1198  Zn1253  1.949   .     S
O1198  Zn1259  1.949   .     S
O1198  Zn1263  1.949   .     S
O1199  Zn1260  1.936   .     S
O1200  Zn1263  1.936   .     S
O1201  Zn946   1.936   1_655 S
O1202  Zn1257  1.936   .     S
O1203  Zn617   1.936   1_565 S
O1204  Zn942   1.936   1_655 S
O1205  Zn1259  1.936   .     S
O1206  Zn1249  1.936   .     S
O1207  Zn625   1.936   1_565 S
O1208  Zn1262  1.936   .     S
O1209  Zn1256  1.952   .     S
O1209  C405    1.281   1_565 S
O1210  Zn947   1.936   1_655 S
O1211  Zn628   1.936   1_565 S
O1212  Zn1261  1.936   .     S
O1220  Zn1255  1.952   .     S
O1230  C368    1.223   1_565 S
O1231  Zn1250  1.952   .     S
O1237  C687    1.223   1_655 S
O1241  C374    1.223   1_565 S
O1242  C724    1.281   1_655 A
O1242  Zn1264  1.952   .     S
O1244  C691    1.223   1_655 S
O1248  Zn1252  1.952   .     S
Zn1251 O544    1.949   1_565 S
Zn1254 O871    1.949   1_655 S
Zn1256 O533    1.949   1_565 S
Zn1264 O882    1.949   1_655 S
