data_str_m3_o10_o18_pcu_sym.86
_audit_creation_date              2020-01-03
_audit_creation_method            'Materials Studio'
_symmetry_space_group_name_H-M    'P1'
_symmetry_Int_Tables_number       1
_symmetry_cell_setting            triclinic
loop_
_symmetry_equiv_pos_as_xyz
  x,y,z
_cell_length_a                    23.5173
_cell_length_b                    25.7493
_cell_length_c                    27.6771
_cell_angle_alpha                 94.0328
_cell_angle_beta                  93.0585
_cell_angle_gamma                 93.4451
loop_
_atom_site_label
_atom_site_type_symbol
_atom_site_fract_x
_atom_site_fract_y
_atom_site_fract_z
_atom_site_U_iso_or_equiv
_atom_site_adp_type
_atom_site_occupancy
C1     C     0.01446   0.26475   0.24871   0.00000  Uiso   1.00
C2     C     0.31231   0.16218   0.15897   0.00000  Uiso   1.00
C3     C     0.03080   0.17504   0.39366   0.00000  Uiso   1.00
C4     C     0.30115   0.15274   0.10678   0.00000  Uiso   1.00
C5     C     0.01188   0.21042   0.47400   0.00000  Uiso   1.00
C6     C     0.31057   0.10124   0.03152   0.00000  Uiso   1.00
C7     C     0.32748   0.20042   0.42489   0.00000  Uiso   1.00
C8     C     0.33281   0.11894   0.07822   0.00000  Uiso   1.00
C9     C     0.08073   0.15567   0.41209   0.00000  Uiso   1.00
C10    C     0.25165   0.17183   0.08756   0.00000  Uiso   1.00
C11    C     0.09814   0.16397   0.46102   0.00000  Uiso   1.00
C12    C     0.31894   0.06860   0.25170   0.00000  Uiso   1.00
C13    C     0.22650   0.15134   0.04306   0.00000  Uiso   1.00
C14    C     0.06433   0.19409   0.49159   0.00000  Uiso   1.00
C15    C     0.25721   0.11614   0.01447   0.00000  Uiso   1.00
C16    C     0.15026   0.14610   0.47936   0.00000  Uiso   1.00
C17    C     0.17142   0.16443   0.02673   0.00000  Uiso   1.00
C18    C     0.13613   0.19395   0.05664   0.00000  Uiso   1.00
C19    C     0.18155   0.11017   0.45207   0.00000  Uiso   1.00
C20    C     0.08339   0.20805   0.03927   0.00000  Uiso   1.00
C21    C     0.23407   0.09558   0.46949   0.00000  Uiso   1.00
C22    C     0.01741   0.31726   0.23840   0.00000  Uiso   1.00
C23    C     0.31606   0.01606   0.26226   0.00000  Uiso   1.00
C24    C     0.02101   0.17095   0.34106   0.00000  Uiso   1.00
H25    H     0.05750   0.23044   0.06316   0.00000  Uiso   1.00
H26    H     0.17076   0.20827   0.28672   0.00000  Uiso   1.00
H27    H     0.06758   0.08027   0.07149   0.00000  Uiso   1.00
H28    H     0.25591   0.23325   0.43368   0.00000  Uiso   1.00
H29    H     0.10053   0.26690   0.16082   0.00000  Uiso   1.00
H30    H     0.31107   0.06775   0.36709   0.00000  Uiso   1.00
H31    H     0.25655   0.06774   0.44776   0.00000  Uiso   1.00
H32    H     0.23259   0.20164   0.10939   0.00000  Uiso   1.00
H33    H     0.10738   0.13682   0.38670   0.00000  Uiso   1.00
H34    H     0.31874   0.23188   0.49823   0.00000  Uiso   1.00
H35    H     0.00078   0.07489   0.00906   0.00000  Uiso   1.00
H36    H     0.14689   0.20542   0.09432   0.00000  Uiso   1.00
H37    H     0.16570   0.09095   0.41773   0.00000  Uiso   1.00
H38    H     0.16259   0.12510   0.21325   0.00000  Uiso   1.00
N39    N     0.14695   0.15216   0.23739   0.00000  Uiso   1.00
N40    N     0.18638   0.18117   0.26260   0.00000  Uiso   1.00
O41    O     0.29719   0.24631   0.25309   0.00000  Uiso   1.00
O42    O     0.27632   0.21690   0.40668   0.00000  Uiso   1.00
O43    O     0.00793   0.02592   0.15227   0.00000  Uiso   1.00
O44    O     0.10379   0.02912   0.19218   0.00000  Uiso   1.00
O45    O     0.06078   0.27407   0.15109   0.00000  Uiso   1.00
O46    O     0.22437   0.30864   0.30396   0.00000  Uiso   1.00
O47    O     0.31727   0.30139   0.34649   0.00000  Uiso   1.00
O48    O     0.27334   0.05815   0.35018   0.00000  Uiso   1.00
O49    O     0.03614   0.08702   0.24690   0.00000  Uiso   1.00
O50    O     0.05822   0.23702   0.24501   0.00000  Uiso   1.00
O51    O     0.27512   0.09632   0.25498   0.00000  Uiso   1.00
O52    O     0.30328   0.17397   0.32247   0.00000  Uiso   1.00
O53    O     0.03005   0.15937   0.17753   0.00000  Uiso   1.00
O54    O     0.06431   0.16467   0.31439   0.00000  Uiso   1.00
O55    O     0.26902   0.16866   0.18561   0.00000  Uiso   1.00
O56    O     0.05097   0.10329   0.09654   0.00000  Uiso   1.00
S57    S     0.04839   0.33018   0.18252   0.00000  Uiso   1.00
S58    S     0.28213   0.00241   0.31675   0.00000  Uiso   1.00
Zn59   Zn    0.27033   0.17287   0.25539   0.00000  Uiso   1.00
Zn60   Zn    0.06300   0.16046   0.24460   0.00000  Uiso   1.00
C61    C     0.34780   0.26475   0.24871   0.00000  Uiso   1.00
C62    C     0.64564   0.16218   0.15897   0.00000  Uiso   1.00
C63    C     0.36413   0.17504   0.39366   0.00000  Uiso   1.00
C64    C     0.63448   0.15274   0.10678   0.00000  Uiso   1.00
C65    C     0.34521   0.21042   0.47400   0.00000  Uiso   1.00
C66    C     0.64390   0.10124   0.03152   0.00000  Uiso   1.00
C67    C     0.66081   0.20042   0.42489   0.00000  Uiso   1.00
C68    C     0.66614   0.11894   0.07822   0.00000  Uiso   1.00
C69    C     0.41406   0.15567   0.41209   0.00000  Uiso   1.00
C70    C     0.58498   0.17183   0.08756   0.00000  Uiso   1.00
C71    C     0.43147   0.16397   0.46102   0.00000  Uiso   1.00
C72    C     0.65228   0.06860   0.25170   0.00000  Uiso   1.00
C73    C     0.55983   0.15134   0.04306   0.00000  Uiso   1.00
C74    C     0.39766   0.19409   0.49159   0.00000  Uiso   1.00
C75    C     0.59055   0.11614   0.01447   0.00000  Uiso   1.00
C76    C     0.48359   0.14610   0.47936   0.00000  Uiso   1.00
C77    C     0.50475   0.16443   0.02673   0.00000  Uiso   1.00
C78    C     0.46946   0.19395   0.05664   0.00000  Uiso   1.00
C79    C     0.51488   0.11017   0.45207   0.00000  Uiso   1.00
C80    C     0.41672   0.20805   0.03927   0.00000  Uiso   1.00
C81    C     0.56741   0.09558   0.46949   0.00000  Uiso   1.00
C82    C     0.35074   0.31726   0.23840   0.00000  Uiso   1.00
C83    C     0.64940   0.01606   0.26226   0.00000  Uiso   1.00
C84    C     0.35434   0.17095   0.34106   0.00000  Uiso   1.00
H85    H     0.39083   0.23044   0.06316   0.00000  Uiso   1.00
H86    H     0.50409   0.20827   0.28672   0.00000  Uiso   1.00
H87    H     0.40092   0.08027   0.07149   0.00000  Uiso   1.00
H88    H     0.58925   0.23325   0.43368   0.00000  Uiso   1.00
H89    H     0.43386   0.26690   0.16082   0.00000  Uiso   1.00
H90    H     0.64441   0.06775   0.36709   0.00000  Uiso   1.00
H91    H     0.58988   0.06774   0.44776   0.00000  Uiso   1.00
H92    H     0.56593   0.20164   0.10939   0.00000  Uiso   1.00
H93    H     0.44072   0.13682   0.38670   0.00000  Uiso   1.00
H94    H     0.65208   0.23188   0.49823   0.00000  Uiso   1.00
H95    H     0.33412   0.07489   0.00906   0.00000  Uiso   1.00
H96    H     0.48022   0.20542   0.09432   0.00000  Uiso   1.00
H97    H     0.49903   0.09095   0.41773   0.00000  Uiso   1.00
H98    H     0.49592   0.12510   0.21325   0.00000  Uiso   1.00
N99    N     0.48029   0.15216   0.23739   0.00000  Uiso   1.00
N100   N     0.51971   0.18117   0.26260   0.00000  Uiso   1.00
O101   O     0.63052   0.24631   0.25309   0.00000  Uiso   1.00
O102   O     0.60965   0.21690   0.40668   0.00000  Uiso   1.00
O103   O     0.34126   0.02592   0.15227   0.00000  Uiso   1.00
O104   O     0.43712   0.02912   0.19218   0.00000  Uiso   1.00
O105   O     0.39411   0.27407   0.15109   0.00000  Uiso   1.00
O106   O     0.55770   0.30864   0.30396   0.00000  Uiso   1.00
O107   O     0.65061   0.30139   0.34649   0.00000  Uiso   1.00
O108   O     0.60667   0.05815   0.35018   0.00000  Uiso   1.00
O109   O     0.36948   0.08702   0.24690   0.00000  Uiso   1.00
O110   O     0.39155   0.23702   0.24501   0.00000  Uiso   1.00
O111   O     0.60845   0.09632   0.25498   0.00000  Uiso   1.00
O112   O     0.63662   0.17397   0.32247   0.00000  Uiso   1.00
O113   O     0.36338   0.15937   0.17753   0.00000  Uiso   1.00
O114   O     0.39764   0.16467   0.31439   0.00000  Uiso   1.00
O115   O     0.60236   0.16866   0.18561   0.00000  Uiso   1.00
O116   O     0.38430   0.10329   0.09654   0.00000  Uiso   1.00
S117   S     0.38172   0.33018   0.18252   0.00000  Uiso   1.00
S118   S     0.61546   0.00241   0.31675   0.00000  Uiso   1.00
Zn119  Zn    0.60366   0.17287   0.25539   0.00000  Uiso   1.00
Zn120  Zn    0.39634   0.16046   0.24460   0.00000  Uiso   1.00
C121   C     0.68113   0.26475   0.24871   0.00000  Uiso   1.00
C122   C     0.97897   0.16218   0.15897   0.00000  Uiso   1.00
C123   C     0.69746   0.17504   0.39366   0.00000  Uiso   1.00
C124   C     0.96782   0.15274   0.10678   0.00000  Uiso   1.00
C125   C     0.67855   0.21042   0.47400   0.00000  Uiso   1.00
C126   C     0.97723   0.10124   0.03152   0.00000  Uiso   1.00
C127   C     0.99414   0.20042   0.42489   0.00000  Uiso   1.00
C128   C     0.99948   0.11894   0.07822   0.00000  Uiso   1.00
C129   C     0.74739   0.15567   0.41209   0.00000  Uiso   1.00
C130   C     0.91832   0.17183   0.08756   0.00000  Uiso   1.00
C131   C     0.76481   0.16397   0.46102   0.00000  Uiso   1.00
C132   C     0.98561   0.06860   0.25170   0.00000  Uiso   1.00
C133   C     0.89317   0.15134   0.04306   0.00000  Uiso   1.00
C134   C     0.73099   0.19409   0.49159   0.00000  Uiso   1.00
C135   C     0.92388   0.11614   0.01447   0.00000  Uiso   1.00
C136   C     0.81692   0.14610   0.47936   0.00000  Uiso   1.00
C137   C     0.83808   0.16443   0.02673   0.00000  Uiso   1.00
C138   C     0.80280   0.19395   0.05664   0.00000  Uiso   1.00
C139   C     0.84822   0.11017   0.45207   0.00000  Uiso   1.00
C140   C     0.75006   0.20805   0.03927   0.00000  Uiso   1.00
C141   C     0.90074   0.09558   0.46949   0.00000  Uiso   1.00
C142   C     0.68408   0.31726   0.23840   0.00000  Uiso   1.00
C143   C     0.98273   0.01606   0.26226   0.00000  Uiso   1.00
C144   C     0.68767   0.17095   0.34106   0.00000  Uiso   1.00
H145   H     0.72416   0.23044   0.06316   0.00000  Uiso   1.00
H146   H     0.83743   0.20827   0.28672   0.00000  Uiso   1.00
H147   H     0.73425   0.08027   0.07149   0.00000  Uiso   1.00
H148   H     0.92258   0.23325   0.43368   0.00000  Uiso   1.00
H149   H     0.76720   0.26690   0.16082   0.00000  Uiso   1.00
H150   H     0.97774   0.06775   0.36709   0.00000  Uiso   1.00
H151   H     0.92322   0.06774   0.44776   0.00000  Uiso   1.00
H152   H     0.89926   0.20164   0.10939   0.00000  Uiso   1.00
H153   H     0.77405   0.13682   0.38670   0.00000  Uiso   1.00
H154   H     0.98541   0.23188   0.49823   0.00000  Uiso   1.00
H155   H     0.66745   0.07489   0.00906   0.00000  Uiso   1.00
H156   H     0.81356   0.20542   0.09432   0.00000  Uiso   1.00
H157   H     0.83236   0.09095   0.41773   0.00000  Uiso   1.00
H158   H     0.82926   0.12510   0.21325   0.00000  Uiso   1.00
N159   N     0.81362   0.15216   0.23739   0.00000  Uiso   1.00
N160   N     0.85305   0.18117   0.26260   0.00000  Uiso   1.00
O161   O     0.96386   0.24631   0.25309   0.00000  Uiso   1.00
O162   O     0.94299   0.21690   0.40668   0.00000  Uiso   1.00
O163   O     0.67459   0.02592   0.15227   0.00000  Uiso   1.00
O164   O     0.77045   0.02912   0.19218   0.00000  Uiso   1.00
O165   O     0.72745   0.27407   0.15109   0.00000  Uiso   1.00
O166   O     0.89103   0.30864   0.30396   0.00000  Uiso   1.00
O167   O     0.98394   0.30139   0.34649   0.00000  Uiso   1.00
O168   O     0.94000   0.05815   0.35018   0.00000  Uiso   1.00
O169   O     0.70281   0.08702   0.24690   0.00000  Uiso   1.00
O170   O     0.72488   0.23702   0.24501   0.00000  Uiso   1.00
O171   O     0.94178   0.09632   0.25498   0.00000  Uiso   1.00
O172   O     0.96995   0.17397   0.32247   0.00000  Uiso   1.00
O173   O     0.69672   0.15937   0.17753   0.00000  Uiso   1.00
O174   O     0.73098   0.16467   0.31439   0.00000  Uiso   1.00
O175   O     0.93569   0.16866   0.18561   0.00000  Uiso   1.00
O176   O     0.71763   0.10329   0.09654   0.00000  Uiso   1.00
S177   S     0.71505   0.33018   0.18252   0.00000  Uiso   1.00
S178   S     0.94879   0.00241   0.31675   0.00000  Uiso   1.00
Zn179  Zn    0.93700   0.17287   0.25539   0.00000  Uiso   1.00
Zn180  Zn    0.72967   0.16046   0.24460   0.00000  Uiso   1.00
C181   C     0.01446   0.59808   0.24871   0.00000  Uiso   1.00
C182   C     0.31231   0.49551   0.15897   0.00000  Uiso   1.00
C183   C     0.03080   0.50837   0.39366   0.00000  Uiso   1.00
C184   C     0.30115   0.48607   0.10678   0.00000  Uiso   1.00
C185   C     0.01188   0.54376   0.47400   0.00000  Uiso   1.00
C186   C     0.31057   0.43457   0.03152   0.00000  Uiso   1.00
C187   C     0.32748   0.53375   0.42489   0.00000  Uiso   1.00
C188   C     0.33281   0.45227   0.07822   0.00000  Uiso   1.00
C189   C     0.08073   0.48900   0.41209   0.00000  Uiso   1.00
C190   C     0.25165   0.50517   0.08756   0.00000  Uiso   1.00
C191   C     0.09814   0.49730   0.46102   0.00000  Uiso   1.00
C192   C     0.31894   0.40194   0.25170   0.00000  Uiso   1.00
C193   C     0.22650   0.48467   0.04306   0.00000  Uiso   1.00
C194   C     0.06433   0.52742   0.49159   0.00000  Uiso   1.00
C195   C     0.25721   0.44947   0.01447   0.00000  Uiso   1.00
C196   C     0.15026   0.47943   0.47936   0.00000  Uiso   1.00
C197   C     0.17142   0.49776   0.02673   0.00000  Uiso   1.00
C198   C     0.13613   0.52728   0.05664   0.00000  Uiso   1.00
C199   C     0.18155   0.44351   0.45207   0.00000  Uiso   1.00
C200   C     0.08339   0.54138   0.03927   0.00000  Uiso   1.00
C201   C     0.23407   0.42891   0.46949   0.00000  Uiso   1.00
C202   C     0.01741   0.65059   0.23840   0.00000  Uiso   1.00
C203   C     0.31606   0.34939   0.26226   0.00000  Uiso   1.00
C204   C     0.02101   0.50429   0.34106   0.00000  Uiso   1.00
H205   H     0.05750   0.56378   0.06316   0.00000  Uiso   1.00
H206   H     0.17076   0.54161   0.28672   0.00000  Uiso   1.00
H207   H     0.06758   0.41361   0.07149   0.00000  Uiso   1.00
H208   H     0.25591   0.56658   0.43368   0.00000  Uiso   1.00
H209   H     0.10053   0.60023   0.16082   0.00000  Uiso   1.00
H210   H     0.31107   0.40108   0.36709   0.00000  Uiso   1.00
H211   H     0.25655   0.40107   0.44776   0.00000  Uiso   1.00
H212   H     0.23259   0.53498   0.10939   0.00000  Uiso   1.00
H213   H     0.10738   0.47015   0.38670   0.00000  Uiso   1.00
H214   H     0.31874   0.56521   0.49823   0.00000  Uiso   1.00
H215   H     0.00078   0.40823   0.00906   0.00000  Uiso   1.00
H216   H     0.14689   0.53876   0.09432   0.00000  Uiso   1.00
H217   H     0.16570   0.42428   0.41773   0.00000  Uiso   1.00
H218   H     0.16259   0.45843   0.21325   0.00000  Uiso   1.00
N219   N     0.14695   0.48550   0.23739   0.00000  Uiso   1.00
N220   N     0.18638   0.51450   0.26260   0.00000  Uiso   1.00
O221   O     0.29719   0.57964   0.25309   0.00000  Uiso   1.00
O222   O     0.27632   0.55024   0.40668   0.00000  Uiso   1.00
O223   O     0.00793   0.35925   0.15227   0.00000  Uiso   1.00
O224   O     0.10379   0.36246   0.19218   0.00000  Uiso   1.00
O225   O     0.06078   0.60741   0.15109   0.00000  Uiso   1.00
O226   O     0.22437   0.64198   0.30396   0.00000  Uiso   1.00
O227   O     0.31727   0.63472   0.34649   0.00000  Uiso   1.00
O228   O     0.27334   0.39148   0.35018   0.00000  Uiso   1.00
O229   O     0.03614   0.42036   0.24690   0.00000  Uiso   1.00
O230   O     0.05822   0.57035   0.24501   0.00000  Uiso   1.00
O231   O     0.27512   0.42965   0.25498   0.00000  Uiso   1.00
O232   O     0.30328   0.50730   0.32247   0.00000  Uiso   1.00
O233   O     0.03005   0.49270   0.17753   0.00000  Uiso   1.00
O234   O     0.06431   0.49801   0.31439   0.00000  Uiso   1.00
O235   O     0.26902   0.50199   0.18561   0.00000  Uiso   1.00
O236   O     0.05097   0.43663   0.09654   0.00000  Uiso   1.00
S237   S     0.04839   0.66352   0.18252   0.00000  Uiso   1.00
S238   S     0.28213   0.33574   0.31675   0.00000  Uiso   1.00
Zn239  Zn    0.27033   0.50621   0.25539   0.00000  Uiso   1.00
Zn240  Zn    0.06300   0.49379   0.24460   0.00000  Uiso   1.00
C241   C     0.34780   0.59808   0.24871   0.00000  Uiso   1.00
C242   C     0.64564   0.49551   0.15897   0.00000  Uiso   1.00
C243   C     0.36413   0.50837   0.39366   0.00000  Uiso   1.00
C244   C     0.63448   0.48607   0.10678   0.00000  Uiso   1.00
C245   C     0.34521   0.54376   0.47400   0.00000  Uiso   1.00
C246   C     0.64390   0.43457   0.03152   0.00000  Uiso   1.00
C247   C     0.66081   0.53375   0.42489   0.00000  Uiso   1.00
C248   C     0.66614   0.45227   0.07822   0.00000  Uiso   1.00
C249   C     0.41406   0.48900   0.41209   0.00000  Uiso   1.00
C250   C     0.58498   0.50517   0.08756   0.00000  Uiso   1.00
C251   C     0.43147   0.49730   0.46102   0.00000  Uiso   1.00
C252   C     0.65228   0.40194   0.25170   0.00000  Uiso   1.00
C253   C     0.55983   0.48467   0.04306   0.00000  Uiso   1.00
C254   C     0.39766   0.52742   0.49159   0.00000  Uiso   1.00
C255   C     0.59055   0.44947   0.01447   0.00000  Uiso   1.00
C256   C     0.48359   0.47943   0.47936   0.00000  Uiso   1.00
C257   C     0.50475   0.49776   0.02673   0.00000  Uiso   1.00
C258   C     0.46946   0.52728   0.05664   0.00000  Uiso   1.00
C259   C     0.51488   0.44351   0.45207   0.00000  Uiso   1.00
C260   C     0.41672   0.54138   0.03927   0.00000  Uiso   1.00
C261   C     0.56741   0.42891   0.46949   0.00000  Uiso   1.00
C262   C     0.35074   0.65059   0.23840   0.00000  Uiso   1.00
C263   C     0.64940   0.34939   0.26226   0.00000  Uiso   1.00
C264   C     0.35434   0.50429   0.34106   0.00000  Uiso   1.00
H265   H     0.39083   0.56378   0.06316   0.00000  Uiso   1.00
H266   H     0.50409   0.54161   0.28672   0.00000  Uiso   1.00
H267   H     0.40092   0.41361   0.07149   0.00000  Uiso   1.00
H268   H     0.58925   0.56658   0.43368   0.00000  Uiso   1.00
H269   H     0.43386   0.60023   0.16082   0.00000  Uiso   1.00
H270   H     0.64441   0.40108   0.36709   0.00000  Uiso   1.00
H271   H     0.58988   0.40107   0.44776   0.00000  Uiso   1.00
H272   H     0.56593   0.53498   0.10939   0.00000  Uiso   1.00
H273   H     0.44072   0.47015   0.38670   0.00000  Uiso   1.00
H274   H     0.65208   0.56521   0.49823   0.00000  Uiso   1.00
H275   H     0.33412   0.40823   0.00906   0.00000  Uiso   1.00
H276   H     0.48022   0.53876   0.09432   0.00000  Uiso   1.00
H277   H     0.49903   0.42428   0.41773   0.00000  Uiso   1.00
H278   H     0.49592   0.45843   0.21325   0.00000  Uiso   1.00
N279   N     0.48029   0.48550   0.23739   0.00000  Uiso   1.00
N280   N     0.51971   0.51450   0.26260   0.00000  Uiso   1.00
O281   O     0.63052   0.57964   0.25309   0.00000  Uiso   1.00
O282   O     0.60965   0.55024   0.40668   0.00000  Uiso   1.00
O283   O     0.34126   0.35925   0.15227   0.00000  Uiso   1.00
O284   O     0.43712   0.36246   0.19218   0.00000  Uiso   1.00
O285   O     0.39411   0.60741   0.15109   0.00000  Uiso   1.00
O286   O     0.55770   0.64198   0.30396   0.00000  Uiso   1.00
O287   O     0.65061   0.63472   0.34649   0.00000  Uiso   1.00
O288   O     0.60667   0.39148   0.35018   0.00000  Uiso   1.00
O289   O     0.36948   0.42036   0.24690   0.00000  Uiso   1.00
O290   O     0.39155   0.57035   0.24501   0.00000  Uiso   1.00
O291   O     0.60845   0.42965   0.25498   0.00000  Uiso   1.00
O292   O     0.63662   0.50730   0.32247   0.00000  Uiso   1.00
O293   O     0.36338   0.49270   0.17753   0.00000  Uiso   1.00
O294   O     0.39764   0.49801   0.31439   0.00000  Uiso   1.00
O295   O     0.60236   0.50199   0.18561   0.00000  Uiso   1.00
O296   O     0.38430   0.43663   0.09654   0.00000  Uiso   1.00
S297   S     0.38172   0.66352   0.18252   0.00000  Uiso   1.00
S298   S     0.61546   0.33574   0.31675   0.00000  Uiso   1.00
Zn299  Zn    0.60366   0.50621   0.25539   0.00000  Uiso   1.00
Zn300  Zn    0.39634   0.49379   0.24460   0.00000  Uiso   1.00
C301   C     0.68113   0.59808   0.24871   0.00000  Uiso   1.00
C302   C     0.97897   0.49551   0.15897   0.00000  Uiso   1.00
C303   C     0.69746   0.50837   0.39366   0.00000  Uiso   1.00
C304   C     0.96782   0.48607   0.10678   0.00000  Uiso   1.00
C305   C     0.67855   0.54376   0.47400   0.00000  Uiso   1.00
C306   C     0.97723   0.43457   0.03152   0.00000  Uiso   1.00
C307   C     0.99414   0.53375   0.42489   0.00000  Uiso   1.00
C308   C     0.99948   0.45227   0.07822   0.00000  Uiso   1.00
C309   C     0.74739   0.48900   0.41209   0.00000  Uiso   1.00
C310   C     0.91832   0.50517   0.08756   0.00000  Uiso   1.00
C311   C     0.76481   0.49730   0.46102   0.00000  Uiso   1.00
C312   C     0.98561   0.40194   0.25170   0.00000  Uiso   1.00
C313   C     0.89317   0.48467   0.04306   0.00000  Uiso   1.00
C314   C     0.73099   0.52742   0.49159   0.00000  Uiso   1.00
C315   C     0.92388   0.44947   0.01447   0.00000  Uiso   1.00
C316   C     0.81692   0.47943   0.47936   0.00000  Uiso   1.00
C317   C     0.83808   0.49776   0.02673   0.00000  Uiso   1.00
C318   C     0.80280   0.52728   0.05664   0.00000  Uiso   1.00
C319   C     0.84822   0.44351   0.45207   0.00000  Uiso   1.00
C320   C     0.75006   0.54138   0.03927   0.00000  Uiso   1.00
C321   C     0.90074   0.42891   0.46949   0.00000  Uiso   1.00
C322   C     0.68408   0.65059   0.23840   0.00000  Uiso   1.00
C323   C     0.98273   0.34939   0.26226   0.00000  Uiso   1.00
C324   C     0.68767   0.50429   0.34106   0.00000  Uiso   1.00
H325   H     0.72416   0.56378   0.06316   0.00000  Uiso   1.00
H326   H     0.83743   0.54161   0.28672   0.00000  Uiso   1.00
H327   H     0.73425   0.41361   0.07149   0.00000  Uiso   1.00
H328   H     0.92258   0.56658   0.43368   0.00000  Uiso   1.00
H329   H     0.76720   0.60023   0.16082   0.00000  Uiso   1.00
H330   H     0.97774   0.40108   0.36709   0.00000  Uiso   1.00
H331   H     0.92322   0.40107   0.44776   0.00000  Uiso   1.00
H332   H     0.89926   0.53498   0.10939   0.00000  Uiso   1.00
H333   H     0.77405   0.47015   0.38670   0.00000  Uiso   1.00
H334   H     0.98541   0.56521   0.49823   0.00000  Uiso   1.00
H335   H     0.66745   0.40823   0.00906   0.00000  Uiso   1.00
H336   H     0.81356   0.53876   0.09432   0.00000  Uiso   1.00
H337   H     0.83236   0.42428   0.41773   0.00000  Uiso   1.00
H338   H     0.82926   0.45843   0.21325   0.00000  Uiso   1.00
N339   N     0.81362   0.48550   0.23739   0.00000  Uiso   1.00
N340   N     0.85305   0.51450   0.26260   0.00000  Uiso   1.00
O341   O     0.96386   0.57964   0.25309   0.00000  Uiso   1.00
O342   O     0.94299   0.55024   0.40668   0.00000  Uiso   1.00
O343   O     0.67459   0.35925   0.15227   0.00000  Uiso   1.00
O344   O     0.77045   0.36246   0.19218   0.00000  Uiso   1.00
O345   O     0.72745   0.60741   0.15109   0.00000  Uiso   1.00
O346   O     0.89103   0.64198   0.30396   0.00000  Uiso   1.00
O347   O     0.98394   0.63472   0.34649   0.00000  Uiso   1.00
O348   O     0.94000   0.39148   0.35018   0.00000  Uiso   1.00
O349   O     0.70281   0.42036   0.24690   0.00000  Uiso   1.00
O350   O     0.72488   0.57035   0.24501   0.00000  Uiso   1.00
O351   O     0.94178   0.42965   0.25498   0.00000  Uiso   1.00
O352   O     0.96995   0.50730   0.32247   0.00000  Uiso   1.00
O353   O     0.69672   0.49270   0.17753   0.00000  Uiso   1.00
O354   O     0.73098   0.49801   0.31439   0.00000  Uiso   1.00
O355   O     0.93569   0.50199   0.18561   0.00000  Uiso   1.00
O356   O     0.71763   0.43663   0.09654   0.00000  Uiso   1.00
S357   S     0.71505   0.66352   0.18252   0.00000  Uiso   1.00
S358   S     0.94879   0.33574   0.31675   0.00000  Uiso   1.00
Zn359  Zn    0.93700   0.50621   0.25539   0.00000  Uiso   1.00
Zn360  Zn    0.72967   0.49379   0.24460   0.00000  Uiso   1.00
C361   C     0.01446   0.93141   0.24871   0.00000  Uiso   1.00
C362   C     0.31231   0.82884   0.15897   0.00000  Uiso   1.00
C363   C     0.03080   0.84170   0.39366   0.00000  Uiso   1.00
C364   C     0.30115   0.81940   0.10678   0.00000  Uiso   1.00
C365   C     0.01188   0.87709   0.47400   0.00000  Uiso   1.00
C366   C     0.31057   0.76790   0.03152   0.00000  Uiso   1.00
C367   C     0.32748   0.86708   0.42489   0.00000  Uiso   1.00
C368   C     0.33281   0.78561   0.07822   0.00000  Uiso   1.00
C369   C     0.08073   0.82234   0.41209   0.00000  Uiso   1.00
C370   C     0.25165   0.83850   0.08756   0.00000  Uiso   1.00
C371   C     0.09814   0.83064   0.46102   0.00000  Uiso   1.00
C372   C     0.31894   0.73527   0.25170   0.00000  Uiso   1.00
C373   C     0.22650   0.81801   0.04306   0.00000  Uiso   1.00
C374   C     0.06433   0.86075   0.49159   0.00000  Uiso   1.00
C375   C     0.25721   0.78280   0.01447   0.00000  Uiso   1.00
C376   C     0.15026   0.81277   0.47936   0.00000  Uiso   1.00
C377   C     0.17142   0.83110   0.02673   0.00000  Uiso   1.00
C378   C     0.13613   0.86061   0.05664   0.00000  Uiso   1.00
C379   C     0.18155   0.77684   0.45207   0.00000  Uiso   1.00
C380   C     0.08339   0.87471   0.03927   0.00000  Uiso   1.00
C381   C     0.23407   0.76225   0.46949   0.00000  Uiso   1.00
C382   C     0.01741   0.98392   0.23840   0.00000  Uiso   1.00
C383   C     0.31606   0.68272   0.26226   0.00000  Uiso   1.00
C384   C     0.02101   0.83762   0.34106   0.00000  Uiso   1.00
H385   H     0.05750   0.89711   0.06316   0.00000  Uiso   1.00
H386   H     0.17076   0.87494   0.28672   0.00000  Uiso   1.00
H387   H     0.06758   0.74694   0.07149   0.00000  Uiso   1.00
H388   H     0.25591   0.89991   0.43368   0.00000  Uiso   1.00
H389   H     0.10053   0.93356   0.16082   0.00000  Uiso   1.00
H390   H     0.31107   0.73441   0.36709   0.00000  Uiso   1.00
H391   H     0.25655   0.73440   0.44776   0.00000  Uiso   1.00
H392   H     0.23259   0.86831   0.10939   0.00000  Uiso   1.00
H393   H     0.10738   0.80348   0.38670   0.00000  Uiso   1.00
H394   H     0.31874   0.89855   0.49823   0.00000  Uiso   1.00
H395   H     0.00078   0.74156   0.00906   0.00000  Uiso   1.00
H396   H     0.14689   0.87209   0.09432   0.00000  Uiso   1.00
H397   H     0.16570   0.75761   0.41773   0.00000  Uiso   1.00
H398   H     0.16259   0.79177   0.21325   0.00000  Uiso   1.00
N399   N     0.14695   0.81883   0.23739   0.00000  Uiso   1.00
N400   N     0.18638   0.84784   0.26260   0.00000  Uiso   1.00
O401   O     0.29719   0.91298   0.25309   0.00000  Uiso   1.00
O402   O     0.27632   0.88357   0.40668   0.00000  Uiso   1.00
O403   O     0.00793   0.69258   0.15227   0.00000  Uiso   1.00
O404   O     0.10379   0.69579   0.19218   0.00000  Uiso   1.00
O405   O     0.06078   0.94074   0.15109   0.00000  Uiso   1.00
O406   O     0.22437   0.97531   0.30396   0.00000  Uiso   1.00
O407   O     0.31727   0.96805   0.34649   0.00000  Uiso   1.00
O408   O     0.27334   0.72482   0.35018   0.00000  Uiso   1.00
O409   O     0.03614   0.75369   0.24690   0.00000  Uiso   1.00
O410   O     0.05822   0.90368   0.24501   0.00000  Uiso   1.00
O411   O     0.27512   0.76298   0.25498   0.00000  Uiso   1.00
O412   O     0.30328   0.84063   0.32247   0.00000  Uiso   1.00
O413   O     0.03005   0.82603   0.17753   0.00000  Uiso   1.00
O414   O     0.06431   0.83134   0.31439   0.00000  Uiso   1.00
O415   O     0.26902   0.83533   0.18561   0.00000  Uiso   1.00
O416   O     0.05097   0.76996   0.09654   0.00000  Uiso   1.00
S417   S     0.04839   0.99685   0.18252   0.00000  Uiso   1.00
S418   S     0.28213   0.66908   0.31675   0.00000  Uiso   1.00
Zn419  Zn    0.27033   0.83954   0.25539   0.00000  Uiso   1.00
Zn420  Zn    0.06300   0.82713   0.24460   0.00000  Uiso   1.00
C421   C     0.34780   0.93141   0.24871   0.00000  Uiso   1.00
C422   C     0.64564   0.82884   0.15897   0.00000  Uiso   1.00
C423   C     0.36413   0.84170   0.39366   0.00000  Uiso   1.00
C424   C     0.63448   0.81940   0.10678   0.00000  Uiso   1.00
C425   C     0.34521   0.87709   0.47400   0.00000  Uiso   1.00
C426   C     0.64390   0.76790   0.03152   0.00000  Uiso   1.00
C427   C     0.66081   0.86708   0.42489   0.00000  Uiso   1.00
C428   C     0.66614   0.78561   0.07822   0.00000  Uiso   1.00
C429   C     0.41406   0.82234   0.41209   0.00000  Uiso   1.00
C430   C     0.58498   0.83850   0.08756   0.00000  Uiso   1.00
C431   C     0.43147   0.83064   0.46102   0.00000  Uiso   1.00
C432   C     0.65228   0.73527   0.25170   0.00000  Uiso   1.00
C433   C     0.55983   0.81801   0.04306   0.00000  Uiso   1.00
C434   C     0.39766   0.86075   0.49159   0.00000  Uiso   1.00
C435   C     0.59055   0.78280   0.01447   0.00000  Uiso   1.00
C436   C     0.48359   0.81277   0.47936   0.00000  Uiso   1.00
C437   C     0.50475   0.83110   0.02673   0.00000  Uiso   1.00
C438   C     0.46946   0.86061   0.05664   0.00000  Uiso   1.00
C439   C     0.51488   0.77684   0.45207   0.00000  Uiso   1.00
C440   C     0.41672   0.87471   0.03927   0.00000  Uiso   1.00
C441   C     0.56741   0.76225   0.46949   0.00000  Uiso   1.00
C442   C     0.35074   0.98392   0.23840   0.00000  Uiso   1.00
C443   C     0.64940   0.68272   0.26226   0.00000  Uiso   1.00
C444   C     0.35434   0.83762   0.34106   0.00000  Uiso   1.00
H445   H     0.39083   0.89711   0.06316   0.00000  Uiso   1.00
H446   H     0.50409   0.87494   0.28672   0.00000  Uiso   1.00
H447   H     0.40092   0.74694   0.07149   0.00000  Uiso   1.00
H448   H     0.58925   0.89991   0.43368   0.00000  Uiso   1.00
H449   H     0.43386   0.93356   0.16082   0.00000  Uiso   1.00
H450   H     0.64441   0.73441   0.36709   0.00000  Uiso   1.00
H451   H     0.58988   0.73440   0.44776   0.00000  Uiso   1.00
H452   H     0.56593   0.86831   0.10939   0.00000  Uiso   1.00
H453   H     0.44072   0.80348   0.38670   0.00000  Uiso   1.00
H454   H     0.65208   0.89855   0.49823   0.00000  Uiso   1.00
H455   H     0.33412   0.74156   0.00906   0.00000  Uiso   1.00
H456   H     0.48022   0.87209   0.09432   0.00000  Uiso   1.00
H457   H     0.49903   0.75761   0.41773   0.00000  Uiso   1.00
H458   H     0.49592   0.79177   0.21325   0.00000  Uiso   1.00
N459   N     0.48029   0.81883   0.23739   0.00000  Uiso   1.00
N460   N     0.51971   0.84784   0.26260   0.00000  Uiso   1.00
O461   O     0.63052   0.91298   0.25309   0.00000  Uiso   1.00
O462   O     0.60965   0.88357   0.40668   0.00000  Uiso   1.00
O463   O     0.34126   0.69258   0.15227   0.00000  Uiso   1.00
O464   O     0.43712   0.69579   0.19218   0.00000  Uiso   1.00
O465   O     0.39411   0.94074   0.15109   0.00000  Uiso   1.00
O466   O     0.55770   0.97531   0.30396   0.00000  Uiso   1.00
O467   O     0.65061   0.96805   0.34649   0.00000  Uiso   1.00
O468   O     0.60667   0.72482   0.35018   0.00000  Uiso   1.00
O469   O     0.36948   0.75369   0.24690   0.00000  Uiso   1.00
O470   O     0.39155   0.90368   0.24501   0.00000  Uiso   1.00
O471   O     0.60845   0.76298   0.25498   0.00000  Uiso   1.00
O472   O     0.63662   0.84063   0.32247   0.00000  Uiso   1.00
O473   O     0.36338   0.82603   0.17753   0.00000  Uiso   1.00
O474   O     0.39764   0.83134   0.31439   0.00000  Uiso   1.00
O475   O     0.60236   0.83533   0.18561   0.00000  Uiso   1.00
O476   O     0.38430   0.76996   0.09654   0.00000  Uiso   1.00
S477   S     0.38172   0.99685   0.18252   0.00000  Uiso   1.00
S478   S     0.61546   0.66908   0.31675   0.00000  Uiso   1.00
Zn479  Zn    0.60366   0.83954   0.25539   0.00000  Uiso   1.00
Zn480  Zn    0.39634   0.82713   0.24460   0.00000  Uiso   1.00
C481   C     0.68113   0.93141   0.24871   0.00000  Uiso   1.00
C482   C     0.97897   0.82884   0.15897   0.00000  Uiso   1.00
C483   C     0.69746   0.84170   0.39366   0.00000  Uiso   1.00
C484   C     0.96782   0.81940   0.10678   0.00000  Uiso   1.00
C485   C     0.67855   0.87709   0.47400   0.00000  Uiso   1.00
C486   C     0.97723   0.76790   0.03152   0.00000  Uiso   1.00
C487   C     0.99414   0.86708   0.42489   0.00000  Uiso   1.00
C488   C     0.99948   0.78561   0.07822   0.00000  Uiso   1.00
C489   C     0.74739   0.82234   0.41209   0.00000  Uiso   1.00
C490   C     0.91832   0.83850   0.08756   0.00000  Uiso   1.00
C491   C     0.76481   0.83064   0.46102   0.00000  Uiso   1.00
C492   C     0.98561   0.73527   0.25170   0.00000  Uiso   1.00
C493   C     0.89317   0.81801   0.04306   0.00000  Uiso   1.00
C494   C     0.73099   0.86075   0.49159   0.00000  Uiso   1.00
C495   C     0.92388   0.78280   0.01447   0.00000  Uiso   1.00
C496   C     0.81692   0.81277   0.47936   0.00000  Uiso   1.00
C497   C     0.83808   0.83110   0.02673   0.00000  Uiso   1.00
C498   C     0.80280   0.86061   0.05664   0.00000  Uiso   1.00
C499   C     0.84822   0.77684   0.45207   0.00000  Uiso   1.00
C500   C     0.75006   0.87471   0.03927   0.00000  Uiso   1.00
C501   C     0.90074   0.76225   0.46949   0.00000  Uiso   1.00
C502   C     0.68408   0.98392   0.23840   0.00000  Uiso   1.00
C503   C     0.98273   0.68272   0.26226   0.00000  Uiso   1.00
C504   C     0.68767   0.83762   0.34106   0.00000  Uiso   1.00
H505   H     0.72416   0.89711   0.06316   0.00000  Uiso   1.00
H506   H     0.83743   0.87494   0.28672   0.00000  Uiso   1.00
H507   H     0.73425   0.74694   0.07149   0.00000  Uiso   1.00
H508   H     0.92258   0.89991   0.43368   0.00000  Uiso   1.00
H509   H     0.76720   0.93356   0.16082   0.00000  Uiso   1.00
H510   H     0.97774   0.73441   0.36709   0.00000  Uiso   1.00
H511   H     0.92322   0.73440   0.44776   0.00000  Uiso   1.00
H512   H     0.89926   0.86831   0.10939   0.00000  Uiso   1.00
H513   H     0.77405   0.80348   0.38670   0.00000  Uiso   1.00
H514   H     0.98541   0.89855   0.49823   0.00000  Uiso   1.00
H515   H     0.66745   0.74156   0.00906   0.00000  Uiso   1.00
H516   H     0.81356   0.87209   0.09432   0.00000  Uiso   1.00
H517   H     0.83236   0.75761   0.41773   0.00000  Uiso   1.00
H518   H     0.82926   0.79177   0.21325   0.00000  Uiso   1.00
N519   N     0.81362   0.81883   0.23739   0.00000  Uiso   1.00
N520   N     0.85305   0.84784   0.26260   0.00000  Uiso   1.00
O521   O     0.96386   0.91298   0.25309   0.00000  Uiso   1.00
O522   O     0.94299   0.88357   0.40668   0.00000  Uiso   1.00
O523   O     0.67459   0.69258   0.15227   0.00000  Uiso   1.00
O524   O     0.77045   0.69579   0.19218   0.00000  Uiso   1.00
O525   O     0.72745   0.94074   0.15109   0.00000  Uiso   1.00
O526   O     0.89103   0.97531   0.30396   0.00000  Uiso   1.00
O527   O     0.98394   0.96805   0.34649   0.00000  Uiso   1.00
O528   O     0.94000   0.72482   0.35018   0.00000  Uiso   1.00
O529   O     0.70281   0.75369   0.24690   0.00000  Uiso   1.00
O530   O     0.72488   0.90368   0.24501   0.00000  Uiso   1.00
O531   O     0.94178   0.76298   0.25498   0.00000  Uiso   1.00
O532   O     0.96995   0.84063   0.32247   0.00000  Uiso   1.00
O533   O     0.69672   0.82603   0.17753   0.00000  Uiso   1.00
O534   O     0.73098   0.83134   0.31439   0.00000  Uiso   1.00
O535   O     0.93569   0.83533   0.18561   0.00000  Uiso   1.00
O536   O     0.71763   0.76996   0.09654   0.00000  Uiso   1.00
S537   S     0.71505   0.99685   0.18252   0.00000  Uiso   1.00
S538   S     0.94879   0.66908   0.31675   0.00000  Uiso   1.00
Zn539  Zn    0.93700   0.83954   0.25539   0.00000  Uiso   1.00
Zn540  Zn    0.72967   0.82713   0.24460   0.00000  Uiso   1.00
C541   C     0.01446   0.26475   0.74871   0.00000  Uiso   1.00
C542   C     0.31231   0.16218   0.65897   0.00000  Uiso   1.00
C543   C     0.03080   0.17504   0.89366   0.00000  Uiso   1.00
C544   C     0.30115   0.15274   0.60678   0.00000  Uiso   1.00
C545   C     0.01188   0.21042   0.97400   0.00000  Uiso   1.00
C546   C     0.31057   0.10124   0.53152   0.00000  Uiso   1.00
C547   C     0.32748   0.20042   0.92489   0.00000  Uiso   1.00
C548   C     0.33281   0.11894   0.57822   0.00000  Uiso   1.00
C549   C     0.08073   0.15567   0.91209   0.00000  Uiso   1.00
C550   C     0.25165   0.17183   0.58756   0.00000  Uiso   1.00
C551   C     0.09814   0.16397   0.96102   0.00000  Uiso   1.00
C552   C     0.31894   0.06860   0.75170   0.00000  Uiso   1.00
C553   C     0.22650   0.15134   0.54306   0.00000  Uiso   1.00
C554   C     0.06433   0.19409   0.99159   0.00000  Uiso   1.00
C555   C     0.25721   0.11614   0.51447   0.00000  Uiso   1.00
C556   C     0.15026   0.14610   0.97936   0.00000  Uiso   1.00
C557   C     0.17142   0.16443   0.52673   0.00000  Uiso   1.00
C558   C     0.13613   0.19395   0.55664   0.00000  Uiso   1.00
C559   C     0.18155   0.11017   0.95207   0.00000  Uiso   1.00
C560   C     0.08339   0.20805   0.53927   0.00000  Uiso   1.00
C561   C     0.23407   0.09558   0.96949   0.00000  Uiso   1.00
C562   C     0.01741   0.31726   0.73840   0.00000  Uiso   1.00
C563   C     0.31606   0.01606   0.76226   0.00000  Uiso   1.00
C564   C     0.02101   0.17095   0.84106   0.00000  Uiso   1.00
H565   H     0.05750   0.23044   0.56316   0.00000  Uiso   1.00
H566   H     0.17076   0.20827   0.78672   0.00000  Uiso   1.00
H567   H     0.06758   0.08027   0.57149   0.00000  Uiso   1.00
H568   H     0.25591   0.23325   0.93368   0.00000  Uiso   1.00
H569   H     0.10053   0.26690   0.66082   0.00000  Uiso   1.00
H570   H     0.31107   0.06775   0.86709   0.00000  Uiso   1.00
H571   H     0.25655   0.06774   0.94776   0.00000  Uiso   1.00
H572   H     0.23259   0.20164   0.60939   0.00000  Uiso   1.00
H573   H     0.10738   0.13682   0.88670   0.00000  Uiso   1.00
H574   H     0.31874   0.23188   0.99823   0.00000  Uiso   1.00
H575   H     0.00078   0.07489   0.50906   0.00000  Uiso   1.00
H576   H     0.14689   0.20542   0.59432   0.00000  Uiso   1.00
H577   H     0.16570   0.09095   0.91773   0.00000  Uiso   1.00
H578   H     0.16259   0.12510   0.71325   0.00000  Uiso   1.00
N579   N     0.14695   0.15216   0.73739   0.00000  Uiso   1.00
N580   N     0.18638   0.18117   0.76260   0.00000  Uiso   1.00
O581   O     0.29719   0.24631   0.75309   0.00000  Uiso   1.00
O582   O     0.27632   0.21690   0.90668   0.00000  Uiso   1.00
O583   O     0.00793   0.02592   0.65227   0.00000  Uiso   1.00
O584   O     0.10379   0.02912   0.69218   0.00000  Uiso   1.00
O585   O     0.06078   0.27407   0.65109   0.00000  Uiso   1.00
O586   O     0.22437   0.30864   0.80396   0.00000  Uiso   1.00
O587   O     0.31727   0.30139   0.84649   0.00000  Uiso   1.00
O588   O     0.27334   0.05815   0.85018   0.00000  Uiso   1.00
O589   O     0.03614   0.08702   0.74690   0.00000  Uiso   1.00
O590   O     0.05822   0.23702   0.74501   0.00000  Uiso   1.00
O591   O     0.27512   0.09632   0.75498   0.00000  Uiso   1.00
O592   O     0.30328   0.17397   0.82247   0.00000  Uiso   1.00
O593   O     0.03005   0.15937   0.67753   0.00000  Uiso   1.00
O594   O     0.06431   0.16467   0.81439   0.00000  Uiso   1.00
O595   O     0.26902   0.16866   0.68561   0.00000  Uiso   1.00
O596   O     0.05097   0.10329   0.59654   0.00000  Uiso   1.00
S597   S     0.04839   0.33018   0.68252   0.00000  Uiso   1.00
S598   S     0.28213   0.00241   0.81675   0.00000  Uiso   1.00
Zn599  Zn    0.27033   0.17287   0.75539   0.00000  Uiso   1.00
Zn600  Zn    0.06300   0.16046   0.74460   0.00000  Uiso   1.00
C601   C     0.34780   0.26475   0.74871   0.00000  Uiso   1.00
C602   C     0.64564   0.16218   0.65897   0.00000  Uiso   1.00
C603   C     0.36413   0.17504   0.89366   0.00000  Uiso   1.00
C604   C     0.63448   0.15274   0.60678   0.00000  Uiso   1.00
C605   C     0.34521   0.21042   0.97400   0.00000  Uiso   1.00
C606   C     0.64390   0.10124   0.53152   0.00000  Uiso   1.00
C607   C     0.66081   0.20042   0.92489   0.00000  Uiso   1.00
C608   C     0.66614   0.11894   0.57822   0.00000  Uiso   1.00
C609   C     0.41406   0.15567   0.91209   0.00000  Uiso   1.00
C610   C     0.58498   0.17183   0.58756   0.00000  Uiso   1.00
C611   C     0.43147   0.16397   0.96102   0.00000  Uiso   1.00
C612   C     0.65228   0.06860   0.75170   0.00000  Uiso   1.00
C613   C     0.55983   0.15134   0.54306   0.00000  Uiso   1.00
C614   C     0.39766   0.19409   0.99159   0.00000  Uiso   1.00
C615   C     0.59055   0.11614   0.51447   0.00000  Uiso   1.00
C616   C     0.48359   0.14610   0.97936   0.00000  Uiso   1.00
C617   C     0.50475   0.16443   0.52673   0.00000  Uiso   1.00
C618   C     0.46946   0.19395   0.55664   0.00000  Uiso   1.00
C619   C     0.51488   0.11017   0.95207   0.00000  Uiso   1.00
C620   C     0.41672   0.20805   0.53927   0.00000  Uiso   1.00
C621   C     0.56741   0.09558   0.96949   0.00000  Uiso   1.00
C622   C     0.35074   0.31726   0.73840   0.00000  Uiso   1.00
C623   C     0.64940   0.01606   0.76226   0.00000  Uiso   1.00
C624   C     0.35434   0.17095   0.84106   0.00000  Uiso   1.00
H625   H     0.39083   0.23044   0.56316   0.00000  Uiso   1.00
H626   H     0.50409   0.20827   0.78672   0.00000  Uiso   1.00
H627   H     0.40092   0.08027   0.57149   0.00000  Uiso   1.00
H628   H     0.58925   0.23325   0.93368   0.00000  Uiso   1.00
H629   H     0.43386   0.26690   0.66082   0.00000  Uiso   1.00
H630   H     0.64441   0.06775   0.86709   0.00000  Uiso   1.00
H631   H     0.58988   0.06774   0.94776   0.00000  Uiso   1.00
H632   H     0.56593   0.20164   0.60939   0.00000  Uiso   1.00
H633   H     0.44072   0.13682   0.88670   0.00000  Uiso   1.00
H634   H     0.65208   0.23188   0.99823   0.00000  Uiso   1.00
H635   H     0.33412   0.07489   0.50906   0.00000  Uiso   1.00
H636   H     0.48022   0.20542   0.59432   0.00000  Uiso   1.00
H637   H     0.49903   0.09095   0.91773   0.00000  Uiso   1.00
H638   H     0.49592   0.12510   0.71325   0.00000  Uiso   1.00
N639   N     0.48029   0.15216   0.73739   0.00000  Uiso   1.00
N640   N     0.51971   0.18117   0.76260   0.00000  Uiso   1.00
O641   O     0.63052   0.24631   0.75309   0.00000  Uiso   1.00
O642   O     0.60965   0.21690   0.90668   0.00000  Uiso   1.00
O643   O     0.34126   0.02592   0.65227   0.00000  Uiso   1.00
O644   O     0.43712   0.02912   0.69218   0.00000  Uiso   1.00
O645   O     0.39411   0.27407   0.65109   0.00000  Uiso   1.00
O646   O     0.55770   0.30864   0.80396   0.00000  Uiso   1.00
O647   O     0.65061   0.30139   0.84649   0.00000  Uiso   1.00
O648   O     0.60667   0.05815   0.85018   0.00000  Uiso   1.00
O649   O     0.36948   0.08702   0.74690   0.00000  Uiso   1.00
O650   O     0.39155   0.23702   0.74501   0.00000  Uiso   1.00
O651   O     0.60845   0.09632   0.75498   0.00000  Uiso   1.00
O652   O     0.63662   0.17397   0.82247   0.00000  Uiso   1.00
O653   O     0.36338   0.15937   0.67753   0.00000  Uiso   1.00
O654   O     0.39764   0.16467   0.81439   0.00000  Uiso   1.00
O655   O     0.60236   0.16866   0.68561   0.00000  Uiso   1.00
O656   O     0.38430   0.10329   0.59654   0.00000  Uiso   1.00
S657   S     0.38172   0.33018   0.68252   0.00000  Uiso   1.00
S658   S     0.61546   0.00241   0.81675   0.00000  Uiso   1.00
Zn659  Zn    0.60366   0.17287   0.75539   0.00000  Uiso   1.00
Zn660  Zn    0.39634   0.16046   0.74460   0.00000  Uiso   1.00
C661   C     0.68113   0.26475   0.74871   0.00000  Uiso   1.00
C662   C     0.97897   0.16218   0.65897   0.00000  Uiso   1.00
C663   C     0.69746   0.17504   0.89366   0.00000  Uiso   1.00
C664   C     0.96782   0.15274   0.60678   0.00000  Uiso   1.00
C665   C     0.67855   0.21042   0.97400   0.00000  Uiso   1.00
C666   C     0.97723   0.10124   0.53152   0.00000  Uiso   1.00
C667   C     0.99414   0.20042   0.92489   0.00000  Uiso   1.00
C668   C     0.99948   0.11894   0.57822   0.00000  Uiso   1.00
C669   C     0.74739   0.15567   0.91209   0.00000  Uiso   1.00
C670   C     0.91832   0.17183   0.58756   0.00000  Uiso   1.00
C671   C     0.76481   0.16397   0.96102   0.00000  Uiso   1.00
C672   C     0.98561   0.06860   0.75170   0.00000  Uiso   1.00
C673   C     0.89317   0.15134   0.54306   0.00000  Uiso   1.00
C674   C     0.73099   0.19409   0.99159   0.00000  Uiso   1.00
C675   C     0.92388   0.11614   0.51447   0.00000  Uiso   1.00
C676   C     0.81692   0.14610   0.97936   0.00000  Uiso   1.00
C677   C     0.83808   0.16443   0.52673   0.00000  Uiso   1.00
C678   C     0.80280   0.19395   0.55664   0.00000  Uiso   1.00
C679   C     0.84822   0.11017   0.95207   0.00000  Uiso   1.00
C680   C     0.75006   0.20805   0.53927   0.00000  Uiso   1.00
C681   C     0.90074   0.09558   0.96949   0.00000  Uiso   1.00
C682   C     0.68408   0.31726   0.73840   0.00000  Uiso   1.00
C683   C     0.98273   0.01606   0.76226   0.00000  Uiso   1.00
C684   C     0.68767   0.17095   0.84106   0.00000  Uiso   1.00
H685   H     0.72416   0.23044   0.56316   0.00000  Uiso   1.00
H686   H     0.83743   0.20827   0.78672   0.00000  Uiso   1.00
H687   H     0.73425   0.08027   0.57149   0.00000  Uiso   1.00
H688   H     0.92258   0.23325   0.93368   0.00000  Uiso   1.00
H689   H     0.76720   0.26690   0.66082   0.00000  Uiso   1.00
H690   H     0.97774   0.06775   0.86709   0.00000  Uiso   1.00
H691   H     0.92322   0.06774   0.94776   0.00000  Uiso   1.00
H692   H     0.89926   0.20164   0.60939   0.00000  Uiso   1.00
H693   H     0.77405   0.13682   0.88670   0.00000  Uiso   1.00
H694   H     0.98541   0.23188   0.99823   0.00000  Uiso   1.00
H695   H     0.66745   0.07489   0.50906   0.00000  Uiso   1.00
H696   H     0.81356   0.20542   0.59432   0.00000  Uiso   1.00
H697   H     0.83236   0.09095   0.91773   0.00000  Uiso   1.00
H698   H     0.82926   0.12510   0.71325   0.00000  Uiso   1.00
N699   N     0.81362   0.15216   0.73739   0.00000  Uiso   1.00
N700   N     0.85305   0.18117   0.76260   0.00000  Uiso   1.00
O701   O     0.96386   0.24631   0.75309   0.00000  Uiso   1.00
O702   O     0.94299   0.21690   0.90668   0.00000  Uiso   1.00
O703   O     0.67459   0.02592   0.65227   0.00000  Uiso   1.00
O704   O     0.77045   0.02912   0.69218   0.00000  Uiso   1.00
O705   O     0.72745   0.27407   0.65109   0.00000  Uiso   1.00
O706   O     0.89103   0.30864   0.80396   0.00000  Uiso   1.00
O707   O     0.98394   0.30139   0.84649   0.00000  Uiso   1.00
O708   O     0.94000   0.05815   0.85018   0.00000  Uiso   1.00
O709   O     0.70281   0.08702   0.74690   0.00000  Uiso   1.00
O710   O     0.72488   0.23702   0.74501   0.00000  Uiso   1.00
O711   O     0.94178   0.09632   0.75498   0.00000  Uiso   1.00
O712   O     0.96995   0.17397   0.82247   0.00000  Uiso   1.00
O713   O     0.69672   0.15937   0.67753   0.00000  Uiso   1.00
O714   O     0.73098   0.16467   0.81439   0.00000  Uiso   1.00
O715   O     0.93569   0.16866   0.68561   0.00000  Uiso   1.00
O716   O     0.71763   0.10329   0.59654   0.00000  Uiso   1.00
S717   S     0.71505   0.33018   0.68252   0.00000  Uiso   1.00
S718   S     0.94879   0.00241   0.81675   0.00000  Uiso   1.00
Zn719  Zn    0.93700   0.17287   0.75539   0.00000  Uiso   1.00
Zn720  Zn    0.72967   0.16046   0.74460   0.00000  Uiso   1.00
C721   C     0.01446   0.59808   0.74871   0.00000  Uiso   1.00
C722   C     0.31231   0.49551   0.65897   0.00000  Uiso   1.00
C723   C     0.03080   0.50837   0.89366   0.00000  Uiso   1.00
C724   C     0.30115   0.48607   0.60678   0.00000  Uiso   1.00
C725   C     0.01188   0.54376   0.97400   0.00000  Uiso   1.00
C726   C     0.31057   0.43457   0.53152   0.00000  Uiso   1.00
C727   C     0.32748   0.53375   0.92489   0.00000  Uiso   1.00
C728   C     0.33281   0.45227   0.57822   0.00000  Uiso   1.00
C729   C     0.08073   0.48900   0.91209   0.00000  Uiso   1.00
C730   C     0.25165   0.50517   0.58756   0.00000  Uiso   1.00
C731   C     0.09814   0.49730   0.96102   0.00000  Uiso   1.00
C732   C     0.31894   0.40194   0.75170   0.00000  Uiso   1.00
C733   C     0.22650   0.48467   0.54306   0.00000  Uiso   1.00
C734   C     0.06433   0.52742   0.99159   0.00000  Uiso   1.00
C735   C     0.25721   0.44947   0.51447   0.00000  Uiso   1.00
C736   C     0.15026   0.47943   0.97936   0.00000  Uiso   1.00
C737   C     0.17142   0.49776   0.52673   0.00000  Uiso   1.00
C738   C     0.13613   0.52728   0.55664   0.00000  Uiso   1.00
C739   C     0.18155   0.44351   0.95207   0.00000  Uiso   1.00
C740   C     0.08339   0.54138   0.53927   0.00000  Uiso   1.00
C741   C     0.23407   0.42891   0.96949   0.00000  Uiso   1.00
C742   C     0.01741   0.65059   0.73840   0.00000  Uiso   1.00
C743   C     0.31606   0.34939   0.76226   0.00000  Uiso   1.00
C744   C     0.02101   0.50429   0.84106   0.00000  Uiso   1.00
H745   H     0.05750   0.56378   0.56316   0.00000  Uiso   1.00
H746   H     0.17076   0.54161   0.78672   0.00000  Uiso   1.00
H747   H     0.06758   0.41361   0.57149   0.00000  Uiso   1.00
H748   H     0.25591   0.56658   0.93368   0.00000  Uiso   1.00
H749   H     0.10053   0.60023   0.66082   0.00000  Uiso   1.00
H750   H     0.31107   0.40108   0.86709   0.00000  Uiso   1.00
H751   H     0.25655   0.40107   0.94776   0.00000  Uiso   1.00
H752   H     0.23259   0.53498   0.60939   0.00000  Uiso   1.00
H753   H     0.10738   0.47015   0.88670   0.00000  Uiso   1.00
H754   H     0.31874   0.56521   0.99823   0.00000  Uiso   1.00
H755   H     0.00078   0.40823   0.50906   0.00000  Uiso   1.00
H756   H     0.14689   0.53876   0.59432   0.00000  Uiso   1.00
H757   H     0.16570   0.42428   0.91773   0.00000  Uiso   1.00
H758   H     0.16259   0.45843   0.71325   0.00000  Uiso   1.00
N759   N     0.14695   0.48550   0.73739   0.00000  Uiso   1.00
N760   N     0.18638   0.51450   0.76260   0.00000  Uiso   1.00
O761   O     0.29719   0.57964   0.75309   0.00000  Uiso   1.00
O762   O     0.27632   0.55024   0.90668   0.00000  Uiso   1.00
O763   O     0.00793   0.35925   0.65227   0.00000  Uiso   1.00
O764   O     0.10379   0.36246   0.69218   0.00000  Uiso   1.00
O765   O     0.06078   0.60741   0.65109   0.00000  Uiso   1.00
O766   O     0.22437   0.64198   0.80396   0.00000  Uiso   1.00
O767   O     0.31727   0.63472   0.84649   0.00000  Uiso   1.00
O768   O     0.27334   0.39148   0.85018   0.00000  Uiso   1.00
O769   O     0.03614   0.42036   0.74690   0.00000  Uiso   1.00
O770   O     0.05822   0.57035   0.74501   0.00000  Uiso   1.00
O771   O     0.27512   0.42965   0.75498   0.00000  Uiso   1.00
O772   O     0.30328   0.50730   0.82247   0.00000  Uiso   1.00
O773   O     0.03005   0.49270   0.67753   0.00000  Uiso   1.00
O774   O     0.06431   0.49801   0.81439   0.00000  Uiso   1.00
O775   O     0.26902   0.50199   0.68561   0.00000  Uiso   1.00
O776   O     0.05097   0.43663   0.59654   0.00000  Uiso   1.00
S777   S     0.04839   0.66352   0.68252   0.00000  Uiso   1.00
S778   S     0.28213   0.33574   0.81675   0.00000  Uiso   1.00
Zn779  Zn    0.27033   0.50621   0.75539   0.00000  Uiso   1.00
Zn780  Zn    0.06300   0.49379   0.74460   0.00000  Uiso   1.00
C781   C     0.34780   0.59808   0.74871   0.00000  Uiso   1.00
C782   C     0.64564   0.49551   0.65897   0.00000  Uiso   1.00
C783   C     0.36413   0.50837   0.89366   0.00000  Uiso   1.00
C784   C     0.63448   0.48607   0.60678   0.00000  Uiso   1.00
C785   C     0.34521   0.54376   0.97400   0.00000  Uiso   1.00
C786   C     0.64390   0.43457   0.53152   0.00000  Uiso   1.00
C787   C     0.66081   0.53375   0.92489   0.00000  Uiso   1.00
C788   C     0.66614   0.45227   0.57822   0.00000  Uiso   1.00
C789   C     0.41406   0.48900   0.91209   0.00000  Uiso   1.00
C790   C     0.58498   0.50517   0.58756   0.00000  Uiso   1.00
C791   C     0.43147   0.49730   0.96102   0.00000  Uiso   1.00
C792   C     0.65228   0.40194   0.75170   0.00000  Uiso   1.00
C793   C     0.55983   0.48467   0.54306   0.00000  Uiso   1.00
C794   C     0.39766   0.52742   0.99159   0.00000  Uiso   1.00
C795   C     0.59055   0.44947   0.51447   0.00000  Uiso   1.00
C796   C     0.48359   0.47943   0.97936   0.00000  Uiso   1.00
C797   C     0.50475   0.49776   0.52673   0.00000  Uiso   1.00
C798   C     0.46946   0.52728   0.55664   0.00000  Uiso   1.00
C799   C     0.51488   0.44351   0.95207   0.00000  Uiso   1.00
C800   C     0.41672   0.54138   0.53927   0.00000  Uiso   1.00
C801   C     0.56741   0.42891   0.96949   0.00000  Uiso   1.00
C802   C     0.35074   0.65059   0.73840   0.00000  Uiso   1.00
C803   C     0.64940   0.34939   0.76226   0.00000  Uiso   1.00
C804   C     0.35434   0.50429   0.84106   0.00000  Uiso   1.00
H805   H     0.39083   0.56378   0.56316   0.00000  Uiso   1.00
H806   H     0.50409   0.54161   0.78672   0.00000  Uiso   1.00
H807   H     0.40092   0.41361   0.57149   0.00000  Uiso   1.00
H808   H     0.58925   0.56658   0.93368   0.00000  Uiso   1.00
H809   H     0.43386   0.60023   0.66082   0.00000  Uiso   1.00
H810   H     0.64441   0.40108   0.86709   0.00000  Uiso   1.00
H811   H     0.58988   0.40107   0.94776   0.00000  Uiso   1.00
H812   H     0.56593   0.53498   0.60939   0.00000  Uiso   1.00
H813   H     0.44072   0.47015   0.88670   0.00000  Uiso   1.00
H814   H     0.65208   0.56521   0.99823   0.00000  Uiso   1.00
H815   H     0.33412   0.40823   0.50906   0.00000  Uiso   1.00
H816   H     0.48022   0.53876   0.59432   0.00000  Uiso   1.00
H817   H     0.49903   0.42428   0.91773   0.00000  Uiso   1.00
H818   H     0.49592   0.45843   0.71325   0.00000  Uiso   1.00
N819   N     0.48029   0.48550   0.73739   0.00000  Uiso   1.00
N820   N     0.51971   0.51450   0.76260   0.00000  Uiso   1.00
O821   O     0.63052   0.57964   0.75309   0.00000  Uiso   1.00
O822   O     0.60965   0.55024   0.90668   0.00000  Uiso   1.00
O823   O     0.34126   0.35925   0.65227   0.00000  Uiso   1.00
O824   O     0.43712   0.36246   0.69218   0.00000  Uiso   1.00
O825   O     0.39411   0.60741   0.65109   0.00000  Uiso   1.00
O826   O     0.55770   0.64198   0.80396   0.00000  Uiso   1.00
O827   O     0.65061   0.63472   0.84649   0.00000  Uiso   1.00
O828   O     0.60667   0.39148   0.85018   0.00000  Uiso   1.00
O829   O     0.36948   0.42036   0.74690   0.00000  Uiso   1.00
O830   O     0.39155   0.57035   0.74501   0.00000  Uiso   1.00
O831   O     0.60845   0.42965   0.75498   0.00000  Uiso   1.00
O832   O     0.63662   0.50730   0.82247   0.00000  Uiso   1.00
O833   O     0.36338   0.49270   0.67753   0.00000  Uiso   1.00
O834   O     0.39764   0.49801   0.81439   0.00000  Uiso   1.00
O835   O     0.60236   0.50199   0.68561   0.00000  Uiso   1.00
O836   O     0.38430   0.43663   0.59654   0.00000  Uiso   1.00
S837   S     0.38172   0.66352   0.68252   0.00000  Uiso   1.00
S838   S     0.61546   0.33574   0.81675   0.00000  Uiso   1.00
Zn839  Zn    0.60366   0.50621   0.75539   0.00000  Uiso   1.00
Zn840  Zn    0.39634   0.49379   0.74460   0.00000  Uiso   1.00
C841   C     0.68113   0.59808   0.74871   0.00000  Uiso   1.00
C842   C     0.97897   0.49551   0.65897   0.00000  Uiso   1.00
C843   C     0.69746   0.50837   0.89366   0.00000  Uiso   1.00
C844   C     0.96782   0.48607   0.60678   0.00000  Uiso   1.00
C845   C     0.67855   0.54376   0.97400   0.00000  Uiso   1.00
C846   C     0.97723   0.43457   0.53152   0.00000  Uiso   1.00
C847   C     0.99414   0.53375   0.92489   0.00000  Uiso   1.00
C848   C     0.99948   0.45227   0.57822   0.00000  Uiso   1.00
C849   C     0.74739   0.48900   0.91209   0.00000  Uiso   1.00
C850   C     0.91832   0.50517   0.58756   0.00000  Uiso   1.00
C851   C     0.76481   0.49730   0.96102   0.00000  Uiso   1.00
C852   C     0.98561   0.40194   0.75170   0.00000  Uiso   1.00
C853   C     0.89317   0.48467   0.54306   0.00000  Uiso   1.00
C854   C     0.73099   0.52742   0.99159   0.00000  Uiso   1.00
C855   C     0.92388   0.44947   0.51447   0.00000  Uiso   1.00
C856   C     0.81692   0.47943   0.97936   0.00000  Uiso   1.00
C857   C     0.83808   0.49776   0.52673   0.00000  Uiso   1.00
C858   C     0.80280   0.52728   0.55664   0.00000  Uiso   1.00
C859   C     0.84822   0.44351   0.95207   0.00000  Uiso   1.00
C860   C     0.75006   0.54138   0.53927   0.00000  Uiso   1.00
C861   C     0.90074   0.42891   0.96949   0.00000  Uiso   1.00
C862   C     0.68408   0.65059   0.73840   0.00000  Uiso   1.00
C863   C     0.98273   0.34939   0.76226   0.00000  Uiso   1.00
C864   C     0.68767   0.50429   0.84106   0.00000  Uiso   1.00
H865   H     0.72416   0.56378   0.56316   0.00000  Uiso   1.00
H866   H     0.83743   0.54161   0.78672   0.00000  Uiso   1.00
H867   H     0.73425   0.41361   0.57149   0.00000  Uiso   1.00
H868   H     0.92258   0.56658   0.93368   0.00000  Uiso   1.00
H869   H     0.76720   0.60023   0.66082   0.00000  Uiso   1.00
H870   H     0.97774   0.40108   0.86709   0.00000  Uiso   1.00
H871   H     0.92322   0.40107   0.94776   0.00000  Uiso   1.00
H872   H     0.89926   0.53498   0.60939   0.00000  Uiso   1.00
H873   H     0.77405   0.47015   0.88670   0.00000  Uiso   1.00
H874   H     0.98541   0.56521   0.99823   0.00000  Uiso   1.00
H875   H     0.66745   0.40823   0.50906   0.00000  Uiso   1.00
H876   H     0.81356   0.53876   0.59432   0.00000  Uiso   1.00
H877   H     0.83236   0.42428   0.91773   0.00000  Uiso   1.00
H878   H     0.82926   0.45843   0.71325   0.00000  Uiso   1.00
N879   N     0.81362   0.48550   0.73739   0.00000  Uiso   1.00
N880   N     0.85305   0.51450   0.76260   0.00000  Uiso   1.00
O881   O     0.96386   0.57964   0.75309   0.00000  Uiso   1.00
O882   O     0.94299   0.55024   0.90668   0.00000  Uiso   1.00
O883   O     0.67459   0.35925   0.65227   0.00000  Uiso   1.00
O884   O     0.77045   0.36246   0.69218   0.00000  Uiso   1.00
O885   O     0.72745   0.60741   0.65109   0.00000  Uiso   1.00
O886   O     0.89103   0.64198   0.80396   0.00000  Uiso   1.00
O887   O     0.98394   0.63472   0.84649   0.00000  Uiso   1.00
O888   O     0.94000   0.39148   0.85018   0.00000  Uiso   1.00
O889   O     0.70281   0.42036   0.74690   0.00000  Uiso   1.00
O890   O     0.72488   0.57035   0.74501   0.00000  Uiso   1.00
O891   O     0.94178   0.42965   0.75498   0.00000  Uiso   1.00
O892   O     0.96995   0.50730   0.82247   0.00000  Uiso   1.00
O893   O     0.69672   0.49270   0.67753   0.00000  Uiso   1.00
O894   O     0.73098   0.49801   0.81439   0.00000  Uiso   1.00
O895   O     0.93569   0.50199   0.68561   0.00000  Uiso   1.00
O896   O     0.71763   0.43663   0.59654   0.00000  Uiso   1.00
S897   S     0.71505   0.66352   0.68252   0.00000  Uiso   1.00
S898   S     0.94879   0.33574   0.81675   0.00000  Uiso   1.00
Zn899  Zn    0.93700   0.50621   0.75539   0.00000  Uiso   1.00
Zn900  Zn    0.72967   0.49379   0.74460   0.00000  Uiso   1.00
C901   C     0.01446   0.93141   0.74871   0.00000  Uiso   1.00
C902   C     0.31231   0.82884   0.65897   0.00000  Uiso   1.00
C903   C     0.03080   0.84170   0.89366   0.00000  Uiso   1.00
C904   C     0.30115   0.81940   0.60678   0.00000  Uiso   1.00
C905   C     0.01188   0.87709   0.97400   0.00000  Uiso   1.00
C906   C     0.31057   0.76790   0.53152   0.00000  Uiso   1.00
C907   C     0.32748   0.86708   0.92489   0.00000  Uiso   1.00
C908   C     0.33281   0.78561   0.57822   0.00000  Uiso   1.00
C909   C     0.08073   0.82234   0.91209   0.00000  Uiso   1.00
C910   C     0.25165   0.83850   0.58756   0.00000  Uiso   1.00
C911   C     0.09814   0.83064   0.96102   0.00000  Uiso   1.00
C912   C     0.31894   0.73527   0.75170   0.00000  Uiso   1.00
C913   C     0.22650   0.81801   0.54306   0.00000  Uiso   1.00
C914   C     0.06433   0.86075   0.99159   0.00000  Uiso   1.00
C915   C     0.25721   0.78280   0.51447   0.00000  Uiso   1.00
C916   C     0.15026   0.81277   0.97936   0.00000  Uiso   1.00
C917   C     0.17142   0.83110   0.52673   0.00000  Uiso   1.00
C918   C     0.13613   0.86061   0.55664   0.00000  Uiso   1.00
C919   C     0.18155   0.77684   0.95207   0.00000  Uiso   1.00
C920   C     0.08339   0.87471   0.53927   0.00000  Uiso   1.00
C921   C     0.23407   0.76225   0.96949   0.00000  Uiso   1.00
C922   C     0.01741   0.98392   0.73840   0.00000  Uiso   1.00
C923   C     0.31606   0.68272   0.76226   0.00000  Uiso   1.00
C924   C     0.02101   0.83762   0.84106   0.00000  Uiso   1.00
H925   H     0.05750   0.89711   0.56316   0.00000  Uiso   1.00
H926   H     0.17076   0.87494   0.78672   0.00000  Uiso   1.00
H927   H     0.06758   0.74694   0.57149   0.00000  Uiso   1.00
H928   H     0.25591   0.89991   0.93368   0.00000  Uiso   1.00
H929   H     0.10053   0.93356   0.66082   0.00000  Uiso   1.00
H930   H     0.31107   0.73441   0.86709   0.00000  Uiso   1.00
H931   H     0.25655   0.73440   0.94776   0.00000  Uiso   1.00
H932   H     0.23259   0.86831   0.60939   0.00000  Uiso   1.00
H933   H     0.10738   0.80348   0.88670   0.00000  Uiso   1.00
H934   H     0.31874   0.89855   0.99823   0.00000  Uiso   1.00
H935   H     0.00078   0.74156   0.50906   0.00000  Uiso   1.00
H936   H     0.14689   0.87209   0.59432   0.00000  Uiso   1.00
H937   H     0.16570   0.75761   0.91773   0.00000  Uiso   1.00
H938   H     0.16259   0.79177   0.71325   0.00000  Uiso   1.00
N939   N     0.14695   0.81883   0.73739   0.00000  Uiso   1.00
N940   N     0.18638   0.84784   0.76260   0.00000  Uiso   1.00
O941   O     0.29719   0.91298   0.75309   0.00000  Uiso   1.00
O942   O     0.27632   0.88357   0.90668   0.00000  Uiso   1.00
O943   O     0.00793   0.69258   0.65227   0.00000  Uiso   1.00
O944   O     0.10379   0.69579   0.69218   0.00000  Uiso   1.00
O945   O     0.06078   0.94074   0.65109   0.00000  Uiso   1.00
O946   O     0.22437   0.97531   0.80396   0.00000  Uiso   1.00
O947   O     0.31727   0.96805   0.84649   0.00000  Uiso   1.00
O948   O     0.27334   0.72482   0.85018   0.00000  Uiso   1.00
O949   O     0.03614   0.75369   0.74690   0.00000  Uiso   1.00
O950   O     0.05822   0.90368   0.74501   0.00000  Uiso   1.00
O951   O     0.27512   0.76298   0.75498   0.00000  Uiso   1.00
O952   O     0.30328   0.84063   0.82247   0.00000  Uiso   1.00
O953   O     0.03005   0.82603   0.67753   0.00000  Uiso   1.00
O954   O     0.06431   0.83134   0.81439   0.00000  Uiso   1.00
O955   O     0.26902   0.83533   0.68561   0.00000  Uiso   1.00
O956   O     0.05097   0.76996   0.59654   0.00000  Uiso   1.00
S957   S     0.04839   0.99685   0.68252   0.00000  Uiso   1.00
S958   S     0.28213   0.66908   0.81675   0.00000  Uiso   1.00
Zn959  Zn    0.27033   0.83954   0.75539   0.00000  Uiso   1.00
Zn960  Zn    0.06300   0.82713   0.74460   0.00000  Uiso   1.00
C961   C     0.34780   0.93141   0.74871   0.00000  Uiso   1.00
C962   C     0.64564   0.82884   0.65897   0.00000  Uiso   1.00
C963   C     0.36413   0.84170   0.89366   0.00000  Uiso   1.00
C964   C     0.63448   0.81940   0.60678   0.00000  Uiso   1.00
C965   C     0.34521   0.87709   0.97400   0.00000  Uiso   1.00
C966   C     0.64390   0.76790   0.53152   0.00000  Uiso   1.00
C967   C     0.66081   0.86708   0.92489   0.00000  Uiso   1.00
C968   C     0.66614   0.78561   0.57822   0.00000  Uiso   1.00
C969   C     0.41406   0.82234   0.91209   0.00000  Uiso   1.00
C970   C     0.58498   0.83850   0.58756   0.00000  Uiso   1.00
C971   C     0.43147   0.83064   0.96102   0.00000  Uiso   1.00
C972   C     0.65228   0.73527   0.75170   0.00000  Uiso   1.00
C973   C     0.55983   0.81801   0.54306   0.00000  Uiso   1.00
C974   C     0.39766   0.86075   0.99159   0.00000  Uiso   1.00
C975   C     0.59055   0.78280   0.51447   0.00000  Uiso   1.00
C976   C     0.48359   0.81277   0.97936   0.00000  Uiso   1.00
C977   C     0.50475   0.83110   0.52673   0.00000  Uiso   1.00
C978   C     0.46946   0.86061   0.55664   0.00000  Uiso   1.00
C979   C     0.51488   0.77684   0.95207   0.00000  Uiso   1.00
C980   C     0.41672   0.87471   0.53927   0.00000  Uiso   1.00
C981   C     0.56741   0.76225   0.96949   0.00000  Uiso   1.00
C982   C     0.35074   0.98392   0.73840   0.00000  Uiso   1.00
C983   C     0.64940   0.68272   0.76226   0.00000  Uiso   1.00
C984   C     0.35434   0.83762   0.84106   0.00000  Uiso   1.00
H985   H     0.39083   0.89711   0.56316   0.00000  Uiso   1.00
H986   H     0.50409   0.87494   0.78672   0.00000  Uiso   1.00
H987   H     0.40092   0.74694   0.57149   0.00000  Uiso   1.00
H988   H     0.58925   0.89991   0.93368   0.00000  Uiso   1.00
H989   H     0.43386   0.93356   0.66082   0.00000  Uiso   1.00
H990   H     0.64441   0.73441   0.86709   0.00000  Uiso   1.00
H991   H     0.58988   0.73440   0.94776   0.00000  Uiso   1.00
H992   H     0.56593   0.86831   0.60939   0.00000  Uiso   1.00
H993   H     0.44072   0.80348   0.88670   0.00000  Uiso   1.00
H994   H     0.65208   0.89855   0.99823   0.00000  Uiso   1.00
H995   H     0.33412   0.74156   0.50906   0.00000  Uiso   1.00
H996   H     0.48022   0.87209   0.59432   0.00000  Uiso   1.00
H997   H     0.49903   0.75761   0.91773   0.00000  Uiso   1.00
H998   H     0.49592   0.79177   0.71325   0.00000  Uiso   1.00
N999   N     0.48029   0.81883   0.73739   0.00000  Uiso   1.00
N1000  N     0.51971   0.84784   0.76260   0.00000  Uiso   1.00
O1001  O     0.63052   0.91298   0.75309   0.00000  Uiso   1.00
O1002  O     0.60965   0.88357   0.90668   0.00000  Uiso   1.00
O1003  O     0.34126   0.69258   0.65227   0.00000  Uiso   1.00
O1004  O     0.43712   0.69579   0.69218   0.00000  Uiso   1.00
O1005  O     0.39411   0.94074   0.65109   0.00000  Uiso   1.00
O1006  O     0.55770   0.97531   0.80396   0.00000  Uiso   1.00
O1007  O     0.65061   0.96805   0.84649   0.00000  Uiso   1.00
O1008  O     0.60667   0.72482   0.85018   0.00000  Uiso   1.00
O1009  O     0.36948   0.75369   0.74690   0.00000  Uiso   1.00
O1010  O     0.39155   0.90368   0.74501   0.00000  Uiso   1.00
O1011  O     0.60845   0.76298   0.75498   0.00000  Uiso   1.00
O1012  O     0.63662   0.84063   0.82247   0.00000  Uiso   1.00
O1013  O     0.36338   0.82603   0.67753   0.00000  Uiso   1.00
O1014  O     0.39764   0.83134   0.81439   0.00000  Uiso   1.00
O1015  O     0.60236   0.83533   0.68561   0.00000  Uiso   1.00
O1016  O     0.38430   0.76996   0.59654   0.00000  Uiso   1.00
S1017  S     0.38172   0.99685   0.68252   0.00000  Uiso   1.00
S1018  S     0.61546   0.66908   0.81675   0.00000  Uiso   1.00
Zn1019 Zn    0.60366   0.83954   0.75539   0.00000  Uiso   1.00
Zn1020 Zn    0.39634   0.82713   0.74460   0.00000  Uiso   1.00
C1021  C     0.68113   0.93141   0.74871   0.00000  Uiso   1.00
C1022  C     0.97897   0.82884   0.65897   0.00000  Uiso   1.00
C1023  C     0.69746   0.84170   0.89366   0.00000  Uiso   1.00
C1024  C     0.96782   0.81940   0.60678   0.00000  Uiso   1.00
C1025  C     0.67855   0.87709   0.97400   0.00000  Uiso   1.00
C1026  C     0.97723   0.76790   0.53152   0.00000  Uiso   1.00
C1027  C     0.99414   0.86708   0.92489   0.00000  Uiso   1.00
C1028  C     0.99948   0.78561   0.57822   0.00000  Uiso   1.00
C1029  C     0.74739   0.82234   0.91209   0.00000  Uiso   1.00
C1030  C     0.91832   0.83850   0.58756   0.00000  Uiso   1.00
C1031  C     0.76481   0.83064   0.96102   0.00000  Uiso   1.00
C1032  C     0.98561   0.73527   0.75170   0.00000  Uiso   1.00
C1033  C     0.89317   0.81801   0.54306   0.00000  Uiso   1.00
C1034  C     0.73099   0.86075   0.99159   0.00000  Uiso   1.00
C1035  C     0.92388   0.78280   0.51447   0.00000  Uiso   1.00
C1036  C     0.81692   0.81277   0.97936   0.00000  Uiso   1.00
C1037  C     0.83808   0.83110   0.52673   0.00000  Uiso   1.00
C1038  C     0.80280   0.86061   0.55664   0.00000  Uiso   1.00
C1039  C     0.84822   0.77684   0.95207   0.00000  Uiso   1.00
C1040  C     0.75006   0.87471   0.53927   0.00000  Uiso   1.00
C1041  C     0.90074   0.76225   0.96949   0.00000  Uiso   1.00
C1042  C     0.68408   0.98392   0.73840   0.00000  Uiso   1.00
C1043  C     0.98273   0.68272   0.76226   0.00000  Uiso   1.00
C1044  C     0.68767   0.83762   0.84106   0.00000  Uiso   1.00
H1045  H     0.72416   0.89711   0.56316   0.00000  Uiso   1.00
H1046  H     0.83743   0.87494   0.78672   0.00000  Uiso   1.00
H1047  H     0.73425   0.74694   0.57149   0.00000  Uiso   1.00
H1048  H     0.92258   0.89991   0.93368   0.00000  Uiso   1.00
H1049  H     0.76720   0.93356   0.66082   0.00000  Uiso   1.00
H1050  H     0.97774   0.73441   0.86709   0.00000  Uiso   1.00
H1051  H     0.92322   0.73440   0.94776   0.00000  Uiso   1.00
H1052  H     0.89926   0.86831   0.60939   0.00000  Uiso   1.00
H1053  H     0.77405   0.80348   0.88670   0.00000  Uiso   1.00
H1054  H     0.98541   0.89855   0.99823   0.00000  Uiso   1.00
H1055  H     0.66745   0.74156   0.50906   0.00000  Uiso   1.00
H1056  H     0.81356   0.87209   0.59432   0.00000  Uiso   1.00
H1057  H     0.83236   0.75761   0.91773   0.00000  Uiso   1.00
H1058  H     0.82926   0.79177   0.71325   0.00000  Uiso   1.00
N1059  N     0.81362   0.81883   0.73739   0.00000  Uiso   1.00
N1060  N     0.85305   0.84784   0.76260   0.00000  Uiso   1.00
O1061  O     0.96386   0.91298   0.75309   0.00000  Uiso   1.00
O1062  O     0.94299   0.88357   0.90668   0.00000  Uiso   1.00
O1063  O     0.67459   0.69258   0.65227   0.00000  Uiso   1.00
O1064  O     0.77045   0.69579   0.69218   0.00000  Uiso   1.00
O1065  O     0.72745   0.94074   0.65109   0.00000  Uiso   1.00
O1066  O     0.89103   0.97531   0.80396   0.00000  Uiso   1.00
O1067  O     0.98394   0.96805   0.84649   0.00000  Uiso   1.00
O1068  O     0.94000   0.72482   0.85018   0.00000  Uiso   1.00
O1069  O     0.70281   0.75369   0.74690   0.00000  Uiso   1.00
O1070  O     0.72488   0.90368   0.74501   0.00000  Uiso   1.00
O1071  O     0.94178   0.76298   0.75498   0.00000  Uiso   1.00
O1072  O     0.96995   0.84063   0.82247   0.00000  Uiso   1.00
O1073  O     0.69672   0.82603   0.67753   0.00000  Uiso   1.00
O1074  O     0.73098   0.83134   0.81439   0.00000  Uiso   1.00
O1075  O     0.93569   0.83533   0.68561   0.00000  Uiso   1.00
O1076  O     0.71763   0.76996   0.59654   0.00000  Uiso   1.00
S1077  S     0.71505   0.99685   0.68252   0.00000  Uiso   1.00
S1078  S     0.94879   0.66908   0.81675   0.00000  Uiso   1.00
Zn1079 Zn    0.93700   0.83954   0.75539   0.00000  Uiso   1.00
Zn1080 Zn    0.72967   0.82713   0.74460   0.00000  Uiso   1.00
loop_
_geom_bond_atom_site_label_1
_geom_bond_atom_site_label_2
_geom_bond_distance
_geom_bond_site_symmetry_2
_ccdc_geom_bond_type
C1     O50     1.292   .     A
C1     C22     1.400   .     S
C1     O161    1.270   1_455 S
C2     C4      1.455   .     S
C2     O55     1.300   .     A
C2     O113    1.289   .     S
C3     C9      1.389   .     A
C3     C24     1.457   .     S
C3     C127    1.409   1_455 S
C4     C8      1.407   .     A
C4     C10     1.385   .     A
C5     C14     1.401   .     A
C5     C127    1.402   1_455 S
C5     H154    1.084   1_455 S
C6     C8      1.403   .     A
C6     C15     1.402   .     A
C6     H95     1.084   .     S
C7     O42     1.381   .     S
C7     C63     1.409   .     S
C7     C65     1.402   .     S
C8     O116    1.381   .     S
C9     C11     1.392   .     A
C9     H33     1.076   .     S
C10    H32     1.077   .     S
C10    C13     1.392   .     A
C11    C14     1.415   .     A
C11    C16     1.416   .     A
C12    C23     1.403   .     S
C12    O51     1.292   .     A
C12    O109    1.270   .     S
C13    C17     1.417   .     A
C13    C15     1.417   .     A
C14    C560    1.387   .     S
C15    C561    1.388   1_554 S
C16    C19     1.418   .     A
C16    C557    1.416   .     S
C17    C18     1.419   .     A
C17    C556    1.416   1_554 S
C18    C20     1.384   .     A
C18    H36     1.076   .     S
C19    C21     1.385   .     A
C19    H37     1.078   .     S
C20    H25     1.083   .     S
C20    C554    1.387   1_554 S
C21    H31     1.084   .     S
C21    C555    1.388   .     S
C22    S57     1.788   .     S
C22    C323    1.359   1_455 S
C23    S58     1.790   .     S
C23    C442    1.359   1_545 S
C24    O54     1.300   .     A
C24    O172    1.290   1_455 S
H26    N40     1.029   .     S
H27    O56     0.992   .     S
H28    O42     0.992   .     S
H29    O45     0.991   .     S
H30    O48     0.990   .     S
H34    C65     1.084   .     S
H35    C126    1.084   1_455 S
H38    N39     1.029   .     S
N39    Zn60    2.017   .     S
N39    N40     1.296   .     D
N40    Zn59    2.017   .     S
O41    Zn59    1.964   .     S
O41    C61     1.270   .     S
O43    S417    1.502   1_545 S
O44    S417    1.504   1_545 S
O45    S57     1.682   .     S
O46    S238    1.503   .     S
O47    S238    1.504   .     S
O48    S58     1.682   .     S
O49    Zn60    1.964   .     S
O49    C132    1.270   1_455 S
O50    Zn60    1.981   .     S
O51    Zn59    1.981   .     S
O52    Zn59    1.971   .     S
O52    C84     1.290   .     S
O53    Zn60    1.971   .     S
O53    C122    1.289   1_455 S
O54    Zn60    1.925   .     S
O55    Zn59    1.925   .     S
O56    C128    1.381   1_455 S
S57    O223    1.502   .     S
S57    O224    1.504   .     S
S58    O407    1.504   1_545 S
S58    O406    1.503   1_545 S
C61    O110    1.292   .     A
C61    C82     1.400   .     S
C62    C64     1.455   .     S
C62    O115    1.300   .     A
C62    O173    1.289   .     S
C63    C69     1.389   .     A
C63    C84     1.457   .     S
C64    C68     1.407   .     A
C64    C70     1.385   .     A
C65    C74     1.401   .     A
C66    C68     1.403   .     A
C66    C75     1.402   .     A
C66    H155    1.084   .     S
C67    O102    1.381   .     S
C67    C123    1.409   .     S
C67    C125    1.402   .     S
C68    O176    1.381   .     S
C69    C71     1.392   .     A
C69    H93     1.076   .     S
C70    H92     1.077   .     S
C70    C73     1.392   .     A
C71    C74     1.415   .     A
C71    C76     1.416   .     A
C72    C83     1.403   .     S
C72    O111    1.292   .     A
C72    O169    1.270   .     S
C73    C77     1.417   .     A
C73    C75     1.417   .     A
C74    C620    1.387   .     S
C75    C621    1.388   1_554 S
C76    C79     1.418   .     A
C76    C617    1.416   .     S
C77    C78     1.419   .     A
C77    C616    1.416   1_554 S
C78    C80     1.384   .     A
C78    H96     1.076   .     S
C79    C81     1.385   .     A
C79    H97     1.078   .     S
C80    H85     1.083   .     S
C80    C614    1.387   1_554 S
C81    H91     1.084   .     S
C81    C615    1.388   .     S
C82    S117    1.788   .     S
C82    C203    1.359   .     S
C83    S118    1.790   .     S
C83    C502    1.359   1_545 S
C84    O114    1.300   .     A
H86    N100    1.029   .     S
H87    O116    0.992   .     S
H88    O102    0.992   .     S
H89    O105    0.991   .     S
H90    O108    0.990   .     S
H94    C125    1.084   .     S
H98    N99     1.029   .     S
N99    Zn120   2.017   .     S
N99    N100    1.296   .     D
N100   Zn119   2.017   .     S
O101   Zn119   1.964   .     S
O101   C121    1.270   .     S
O103   S477    1.502   1_545 S
O104   S477    1.504   1_545 S
O105   S117    1.682   .     S
O106   S298    1.503   .     S
O107   S298    1.504   .     S
O108   S118    1.682   .     S
O109   Zn120   1.964   .     S
O110   Zn120   1.981   .     S
O111   Zn119   1.981   .     S
O112   Zn119   1.971   .     S
O112   C144    1.290   .     S
O113   Zn120   1.971   .     S
O114   Zn120   1.925   .     S
O115   Zn119   1.925   .     S
S117   O283    1.502   .     S
S117   O284    1.504   .     S
S118   O467    1.504   1_545 S
S118   O466    1.503   1_545 S
C121   O170    1.292   .     A
C121   C142    1.400   .     S
C122   C124    1.455   .     S
C122   O175    1.300   .     A
C122   O53     1.289   1_655 S
C123   C129    1.389   .     A
C123   C144    1.457   .     S
C124   C128    1.407   .     A
C124   C130    1.385   .     A
C125   C134    1.401   .     A
C126   C128    1.403   .     A
C126   C135    1.402   .     A
C126   H35     1.084   1_655 S
C127   O162    1.381   .     S
C127   C3      1.409   1_655 S
C127   C5      1.402   1_655 S
C128   O56     1.381   1_655 S
C129   C131    1.392   .     A
C129   H153    1.076   .     S
C130   H152    1.077   .     S
C130   C133    1.392   .     A
C131   C134    1.415   .     A
C131   C136    1.416   .     A
C132   C143    1.403   .     S
C132   O171    1.292   .     A
C132   O49     1.270   1_655 S
C133   C137    1.417   .     A
C133   C135    1.417   .     A
C134   C680    1.387   .     S
C135   C681    1.388   1_554 S
C136   C139    1.418   .     A
C136   C677    1.416   .     S
C137   C138    1.419   .     A
C137   C676    1.416   1_554 S
C138   C140    1.384   .     A
C138   H156    1.076   .     S
C139   C141    1.385   .     A
C139   H157    1.078   .     S
C140   H145    1.083   .     S
C140   C674    1.387   1_554 S
C141   H151    1.084   .     S
C141   C675    1.388   .     S
C142   S177    1.788   .     S
C142   C263    1.359   .     S
C143   S178    1.790   .     S
C143   C382    1.359   1_645 S
C144   O174    1.300   .     A
H146   N160    1.029   .     S
H147   O176    0.992   .     S
H148   O162    0.992   .     S
H149   O165    0.991   .     S
H150   O168    0.990   .     S
H154   C5      1.084   1_655 S
H158   N159    1.029   .     S
N159   Zn180   2.017   .     S
N159   N160    1.296   .     D
N160   Zn179   2.017   .     S
O161   Zn179   1.964   .     S
O161   C1      1.270   1_655 S
O163   S537    1.502   1_545 S
O164   S537    1.504   1_545 S
O165   S177    1.682   .     S
O166   S358    1.503   .     S
O167   S358    1.504   .     S
O168   S178    1.682   .     S
O169   Zn180   1.964   .     S
O170   Zn180   1.981   .     S
O171   Zn179   1.981   .     S
O172   Zn179   1.971   .     S
O172   C24     1.290   1_655 S
O173   Zn180   1.971   .     S
O174   Zn180   1.925   .     S
O175   Zn179   1.925   .     S
S177   O343    1.502   .     S
S177   O344    1.504   .     S
S178   O527    1.504   1_545 S
S178   O526    1.503   1_545 S
C181   O230    1.292   .     A
C181   C202    1.400   .     S
C181   O341    1.270   1_455 S
C182   C184    1.455   .     S
C182   O235    1.300   .     A
C182   O293    1.289   .     S
C183   C189    1.389   .     A
C183   C204    1.457   .     S
C183   C307    1.409   1_455 S
C184   C188    1.407   .     A
C184   C190    1.385   .     A
C185   C194    1.401   .     A
C185   C307    1.402   1_455 S
C185   H334    1.084   1_455 S
C186   C188    1.403   .     A
C186   C195    1.402   .     A
C186   H275    1.084   .     S
C187   O222    1.381   .     S
C187   C243    1.409   .     S
C187   C245    1.402   .     S
C188   O296    1.381   .     S
C189   C191    1.392   .     A
C189   H213    1.076   .     S
C190   H212    1.077   .     S
C190   C193    1.392   .     A
C191   C194    1.415   .     A
C191   C196    1.416   .     A
C192   C203    1.403   .     S
C192   O231    1.292   .     A
C192   O289    1.270   .     S
C193   C197    1.417   .     A
C193   C195    1.417   .     A
C194   C740    1.387   .     S
C195   C741    1.388   1_554 S
C196   C199    1.418   .     A
C196   C737    1.416   .     S
C197   C198    1.419   .     A
C197   C736    1.416   1_554 S
C198   C200    1.384   .     A
C198   H216    1.076   .     S
C199   C201    1.385   .     A
C199   H217    1.078   .     S
C200   H205    1.083   .     S
C200   C734    1.387   1_554 S
C201   H211    1.084   .     S
C201   C735    1.388   .     S
C202   S237    1.788   .     S
C202   C503    1.359   1_455 S
C203   S238    1.790   .     S
C204   O234    1.300   .     A
C204   O352    1.290   1_455 S
H206   N220    1.029   .     S
H207   O236    0.992   .     S
H208   O222    0.992   .     S
H209   O225    0.991   .     S
H210   O228    0.990   .     S
H214   C245    1.084   .     S
H215   C306    1.084   1_455 S
H218   N219    1.029   .     S
N219   Zn240   2.017   .     S
N219   N220    1.296   .     D
N220   Zn239   2.017   .     S
O221   Zn239   1.964   .     S
O221   C241    1.270   .     S
O225   S237    1.682   .     S
O226   S418    1.503   .     S
O227   S418    1.504   .     S
O228   S238    1.682   .     S
O229   Zn240   1.964   .     S
O229   C312    1.270   1_455 S
O230   Zn240   1.981   .     S
O231   Zn239   1.981   .     S
O232   Zn239   1.971   .     S
O232   C264    1.290   .     S
O233   Zn240   1.971   .     S
O233   C302    1.289   1_455 S
O234   Zn240   1.925   .     S
O235   Zn239   1.925   .     S
O236   C308    1.381   1_455 S
S237   O403    1.502   .     S
S237   O404    1.504   .     S
C241   O290    1.292   .     A
C241   C262    1.400   .     S
C242   C244    1.455   .     S
C242   O295    1.300   .     A
C242   O353    1.289   .     S
C243   C249    1.389   .     A
C243   C264    1.457   .     S
C244   C248    1.407   .     A
C244   C250    1.385   .     A
C245   C254    1.401   .     A
C246   C248    1.403   .     A
C246   C255    1.402   .     A
C246   H335    1.084   .     S
C247   O282    1.381   .     S
C247   C303    1.409   .     S
C247   C305    1.402   .     S
C248   O356    1.381   .     S
C249   C251    1.392   .     A
C249   H273    1.076   .     S
C250   H272    1.077   .     S
C250   C253    1.392   .     A
C251   C254    1.415   .     A
C251   C256    1.416   .     A
C252   C263    1.403   .     S
C252   O291    1.292   .     A
C252   O349    1.270   .     S
C253   C257    1.417   .     A
C253   C255    1.417   .     A
C254   C800    1.387   .     S
C255   C801    1.388   1_554 S
C256   C259    1.418   .     A
C256   C797    1.416   .     S
C257   C258    1.419   .     A
C257   C796    1.416   1_554 S
C258   C260    1.384   .     A
C258   H276    1.076   .     S
C259   C261    1.385   .     A
C259   H277    1.078   .     S
C260   H265    1.083   .     S
C260   C794    1.387   1_554 S
C261   H271    1.084   .     S
C261   C795    1.388   .     S
C262   S297    1.788   .     S
C262   C383    1.359   .     S
C263   S298    1.790   .     S
C264   O294    1.300   .     A
H266   N280    1.029   .     S
H267   O296    0.992   .     S
H268   O282    0.992   .     S
H269   O285    0.991   .     S
H270   O288    0.990   .     S
H274   C305    1.084   .     S
H278   N279    1.029   .     S
N279   Zn300   2.017   .     S
N279   N280    1.296   .     D
N280   Zn299   2.017   .     S
O281   Zn299   1.964   .     S
O281   C301    1.270   .     S
O285   S297    1.682   .     S
O286   S478    1.503   .     S
O287   S478    1.504   .     S
O288   S298    1.682   .     S
O289   Zn300   1.964   .     S
O290   Zn300   1.981   .     S
O291   Zn299   1.981   .     S
O292   Zn299   1.971   .     S
O292   C324    1.290   .     S
O293   Zn300   1.971   .     S
O294   Zn300   1.925   .     S
O295   Zn299   1.925   .     S
S297   O463    1.502   .     S
S297   O464    1.504   .     S
C301   O350    1.292   .     A
C301   C322    1.400   .     S
C302   C304    1.455   .     S
C302   O355    1.300   .     A
C302   O233    1.289   1_655 S
C303   C309    1.389   .     A
C303   C324    1.457   .     S
C304   C308    1.407   .     A
C304   C310    1.385   .     A
C305   C314    1.401   .     A
C306   C308    1.403   .     A
C306   C315    1.402   .     A
C306   H215    1.084   1_655 S
C307   O342    1.381   .     S
C307   C183    1.409   1_655 S
C307   C185    1.402   1_655 S
C308   O236    1.381   1_655 S
C309   C311    1.392   .     A
C309   H333    1.076   .     S
C310   H332    1.077   .     S
C310   C313    1.392   .     A
C311   C314    1.415   .     A
C311   C316    1.416   .     A
C312   C323    1.403   .     S
C312   O351    1.292   .     A
C312   O229    1.270   1_655 S
C313   C317    1.417   .     A
C313   C315    1.417   .     A
C314   C860    1.387   .     S
C315   C861    1.388   1_554 S
C316   C319    1.418   .     A
C316   C857    1.416   .     S
C317   C318    1.419   .     A
C317   C856    1.416   1_554 S
C318   C320    1.384   .     A
C318   H336    1.076   .     S
C319   C321    1.385   .     A
C319   H337    1.078   .     S
C320   H325    1.083   .     S
C320   C854    1.387   1_554 S
C321   H331    1.084   .     S
C321   C855    1.388   .     S
C322   S357    1.788   .     S
C322   C443    1.359   .     S
C323   S358    1.790   .     S
C323   C22     1.359   1_655 S
C324   O354    1.300   .     A
H326   N340    1.029   .     S
H327   O356    0.992   .     S
H328   O342    0.992   .     S
H329   O345    0.991   .     S
H330   O348    0.990   .     S
H334   C185    1.084   1_655 S
H338   N339    1.029   .     S
N339   Zn360   2.017   .     S
N339   N340    1.296   .     D
N340   Zn359   2.017   .     S
O341   Zn359   1.964   .     S
O341   C181    1.270   1_655 S
O345   S357    1.682   .     S
O346   S538    1.503   .     S
O347   S538    1.504   .     S
O348   S358    1.682   .     S
O349   Zn360   1.964   .     S
O350   Zn360   1.981   .     S
O351   Zn359   1.981   .     S
O352   Zn359   1.971   .     S
O352   C204    1.290   1_655 S
O353   Zn360   1.971   .     S
O354   Zn360   1.925   .     S
O355   Zn359   1.925   .     S
S357   O523    1.502   .     S
S357   O524    1.504   .     S
C361   O410    1.292   .     A
C361   C382    1.400   .     S
C361   O521    1.270   1_455 S
C362   C364    1.455   .     S
C362   O415    1.300   .     A
C362   O473    1.289   .     S
C363   C369    1.389   .     A
C363   C384    1.457   .     S
C363   C487    1.409   1_455 S
C364   C368    1.407   .     A
C364   C370    1.385   .     A
C365   C374    1.401   .     A
C365   C487    1.402   1_455 S
C365   H514    1.084   1_455 S
C366   C368    1.403   .     A
C366   C375    1.402   .     A
C366   H455    1.084   .     S
C367   O402    1.381   .     S
C367   C423    1.409   .     S
C367   C425    1.402   .     S
C368   O476    1.381   .     S
C369   C371    1.392   .     A
C369   H393    1.076   .     S
C370   H392    1.077   .     S
C370   C373    1.392   .     A
C371   C374    1.415   .     A
C371   C376    1.416   .     A
C372   C383    1.403   .     S
C372   O411    1.292   .     A
C372   O469    1.270   .     S
C373   C377    1.417   .     A
C373   C375    1.417   .     A
C374   C920    1.387   .     S
C375   C921    1.388   1_554 S
C376   C379    1.418   .     A
C376   C917    1.416   .     S
C377   C378    1.419   .     A
C377   C916    1.416   1_554 S
C378   C380    1.384   .     A
C378   H396    1.076   .     S
C379   C381    1.385   .     A
C379   H397    1.078   .     S
C380   H385    1.083   .     S
C380   C914    1.387   1_554 S
C381   H391    1.084   .     S
C381   C915    1.388   .     S
C382   S417    1.788   .     S
C382   C143    1.359   1_465 S
C383   S418    1.790   .     S
C384   O414    1.300   .     A
C384   O532    1.290   1_455 S
H386   N400    1.029   .     S
H387   O416    0.992   .     S
H388   O402    0.992   .     S
H389   O405    0.991   .     S
H390   O408    0.990   .     S
H394   C425    1.084   .     S
H395   C486    1.084   1_455 S
H398   N399    1.029   .     S
N399   Zn420   2.017   .     S
N399   N400    1.296   .     D
N400   Zn419   2.017   .     S
O401   Zn419   1.964   .     S
O401   C421    1.270   .     S
O405   S417    1.682   .     S
O406   S58     1.503   1_565 S
O407   S58     1.504   1_565 S
O408   S418    1.682   .     S
O409   Zn420   1.964   .     S
O409   C492    1.270   1_455 S
O410   Zn420   1.981   .     S
O411   Zn419   1.981   .     S
O412   Zn419   1.971   .     S
O412   C444    1.290   .     S
O413   Zn420   1.971   .     S
O413   C482    1.289   1_455 S
O414   Zn420   1.925   .     S
O415   Zn419   1.925   .     S
O416   C488    1.381   1_455 S
S417   O43     1.502   1_565 S
S417   O44     1.504   1_565 S
C421   O470    1.292   .     A
C421   C442    1.400   .     S
C422   C424    1.455   .     S
C422   O475    1.300   .     A
C422   O533    1.289   .     S
C423   C429    1.389   .     A
C423   C444    1.457   .     S
C424   C428    1.407   .     A
C424   C430    1.385   .     A
C425   C434    1.401   .     A
C426   C428    1.403   .     A
C426   C435    1.402   .     A
C426   H515    1.084   .     S
C427   O462    1.381   .     S
C427   C483    1.409   .     S
C427   C485    1.402   .     S
C428   O536    1.381   .     S
C429   C431    1.392   .     A
C429   H453    1.076   .     S
C430   H452    1.077   .     S
C430   C433    1.392   .     A
C431   C434    1.415   .     A
C431   C436    1.416   .     A
C432   C443    1.403   .     S
C432   O471    1.292   .     A
C432   O529    1.270   .     S
C433   C437    1.417   .     A
C433   C435    1.417   .     A
C434   C980    1.387   .     S
C435   C981    1.388   1_554 S
C436   C439    1.418   .     A
C436   C977    1.416   .     S
C437   C438    1.419   .     A
C437   C976    1.416   1_554 S
C438   C440    1.384   .     A
C438   H456    1.076   .     S
C439   C441    1.385   .     A
C439   H457    1.078   .     S
C440   H445    1.083   .     S
C440   C974    1.387   1_554 S
C441   H451    1.084   .     S
C441   C975    1.388   .     S
C442   S477    1.788   .     S
C442   C23     1.359   1_565 S
C443   S478    1.790   .     S
C444   O474    1.300   .     A
H446   N460    1.029   .     S
H447   O476    0.992   .     S
H448   O462    0.992   .     S
H449   O465    0.991   .     S
H450   O468    0.990   .     S
H454   C485    1.084   .     S
H458   N459    1.029   .     S
N459   Zn480   2.017   .     S
N459   N460    1.296   .     D
N460   Zn479   2.017   .     S
O461   Zn479   1.964   .     S
O461   C481    1.270   .     S
O465   S477    1.682   .     S
O466   S118    1.503   1_565 S
O467   S118    1.504   1_565 S
O468   S478    1.682   .     S
O469   Zn480   1.964   .     S
O470   Zn480   1.981   .     S
O471   Zn479   1.981   .     S
O472   Zn479   1.971   .     S
O472   C504    1.290   .     S
O473   Zn480   1.971   .     S
O474   Zn480   1.925   .     S
O475   Zn479   1.925   .     S
S477   O103    1.502   1_565 S
S477   O104    1.504   1_565 S
C481   O530    1.292   .     A
C481   C502    1.400   .     S
C482   C484    1.455   .     S
C482   O535    1.300   .     A
C482   O413    1.289   1_655 S
C483   C489    1.389   .     A
C483   C504    1.457   .     S
C484   C488    1.407   .     A
C484   C490    1.385   .     A
C485   C494    1.401   .     A
C486   C488    1.403   .     A
C486   C495    1.402   .     A
C486   H395    1.084   1_655 S
C487   O522    1.381   .     S
C487   C363    1.409   1_655 S
C487   C365    1.402   1_655 S
C488   O416    1.381   1_655 S
C489   C491    1.392   .     A
C489   H513    1.076   .     S
C490   H512    1.077   .     S
C490   C493    1.392   .     A
C491   C494    1.415   .     A
C491   C496    1.416   .     A
C492   C503    1.403   .     S
C492   O531    1.292   .     A
C492   O409    1.270   1_655 S
C493   C497    1.417   .     A
C493   C495    1.417   .     A
C494   C1040   1.387   .     S
C495   C1041   1.388   1_554 S
C496   C499    1.418   .     A
C496   C1037   1.416   .     S
C497   C498    1.419   .     A
C497   C1036   1.416   1_554 S
C498   C500    1.384   .     A
C498   H516    1.076   .     S
C499   C501    1.385   .     A
C499   H517    1.078   .     S
C500   H505    1.083   .     S
C500   C1034   1.387   1_554 S
C501   H511    1.084   .     S
C501   C1035   1.388   .     S
C502   S537    1.788   .     S
C502   C83     1.359   1_565 S
C503   S538    1.790   .     S
C503   C202    1.359   1_655 S
C504   O534    1.300   .     A
H506   N520    1.029   .     S
H507   O536    0.992   .     S
H508   O522    0.992   .     S
H509   O525    0.991   .     S
H510   O528    0.990   .     S
H514   C365    1.084   1_655 S
H518   N519    1.029   .     S
N519   Zn540   2.017   .     S
N519   N520    1.296   .     D
N520   Zn539   2.017   .     S
O521   Zn539   1.964   .     S
O521   C361    1.270   1_655 S
O525   S537    1.682   .     S
O526   S178    1.503   1_565 S
O527   S178    1.504   1_565 S
O528   S538    1.682   .     S
O529   Zn540   1.964   .     S
O530   Zn540   1.981   .     S
O531   Zn539   1.981   .     S
O532   Zn539   1.971   .     S
O532   C384    1.290   1_655 S
O533   Zn540   1.971   .     S
O534   Zn540   1.925   .     S
O535   Zn539   1.925   .     S
S537   O163    1.502   1_565 S
S537   O164    1.504   1_565 S
C541   O590    1.292   .     A
C541   C562    1.400   .     S
C541   O701    1.270   1_455 S
C542   C544    1.455   .     S
C542   O595    1.300   .     A
C542   O653    1.289   .     S
C543   C549    1.389   .     A
C543   C564    1.457   .     S
C543   C667    1.409   1_455 S
C544   C548    1.407   .     A
C544   C550    1.385   .     A
C545   C554    1.401   .     A
C545   C667    1.402   1_455 S
C545   H694    1.084   1_455 S
C546   C548    1.403   .     A
C546   C555    1.402   .     A
C546   H635    1.084   .     S
C547   O582    1.381   .     S
C547   C603    1.409   .     S
C547   C605    1.402   .     S
C548   O656    1.381   .     S
C549   C551    1.392   .     A
C549   H573    1.076   .     S
C550   H572    1.077   .     S
C550   C553    1.392   .     A
C551   C554    1.415   .     A
C551   C556    1.416   .     A
C552   C563    1.403   .     S
C552   O591    1.292   .     A
C552   O649    1.270   .     S
C553   C557    1.417   .     A
C553   C555    1.417   .     A
C554   C20     1.387   1_556 S
C556   C559    1.418   .     A
C556   C17     1.416   1_556 S
C557   C558    1.419   .     A
C558   C560    1.384   .     A
C558   H576    1.076   .     S
C559   C561    1.385   .     A
C559   H577    1.078   .     S
C560   H565    1.083   .     S
C561   H571    1.084   .     S
C561   C15     1.388   1_556 S
C562   S597    1.788   .     S
C562   C863    1.359   1_455 S
C563   S598    1.790   .     S
C563   C982    1.359   1_545 S
C564   O594    1.300   .     A
C564   O712    1.290   1_455 S
H566   N580    1.029   .     S
H567   O596    0.992   .     S
H568   O582    0.992   .     S
H569   O585    0.991   .     S
H570   O588    0.990   .     S
H574   C605    1.084   .     S
H575   C666    1.084   1_455 S
H578   N579    1.029   .     S
N579   Zn600   2.017   .     S
N579   N580    1.296   .     D
N580   Zn599   2.017   .     S
O581   Zn599   1.964   .     S
O581   C601    1.270   .     S
O583   S957    1.502   1_545 S
O584   S957    1.504   1_545 S
O585   S597    1.682   .     S
O586   S778    1.503   .     S
O587   S778    1.504   .     S
O588   S598    1.682   .     S
O589   Zn600   1.964   .     S
O589   C672    1.270   1_455 S
O590   Zn600   1.981   .     S
O591   Zn599   1.981   .     S
O592   Zn599   1.971   .     S
O592   C624    1.290   .     S
O593   Zn600   1.971   .     S
O593   C662    1.289   1_455 S
O594   Zn600   1.925   .     S
O595   Zn599   1.925   .     S
O596   C668    1.381   1_455 S
S597   O763    1.502   .     S
S597   O764    1.504   .     S
S598   O947    1.504   1_545 S
S598   O946    1.503   1_545 S
C601   O650    1.292   .     A
C601   C622    1.400   .     S
C602   C604    1.455   .     S
C602   O655    1.300   .     A
C602   O713    1.289   .     S
C603   C609    1.389   .     A
C603   C624    1.457   .     S
C604   C608    1.407   .     A
C604   C610    1.385   .     A
C605   C614    1.401   .     A
C606   C608    1.403   .     A
C606   C615    1.402   .     A
C606   H695    1.084   .     S
C607   O642    1.381   .     S
C607   C663    1.409   .     S
C607   C665    1.402   .     S
C608   O716    1.381   .     S
C609   C611    1.392   .     A
C609   H633    1.076   .     S
C610   H632    1.077   .     S
C610   C613    1.392   .     A
C611   C614    1.415   .     A
C611   C616    1.416   .     A
C612   C623    1.403   .     S
C612   O651    1.292   .     A
C612   O709    1.270   .     S
C613   C617    1.417   .     A
C613   C615    1.417   .     A
C614   C80     1.387   1_556 S
C616   C619    1.418   .     A
C616   C77     1.416   1_556 S
C617   C618    1.419   .     A
C618   C620    1.384   .     A
C618   H636    1.076   .     S
C619   C621    1.385   .     A
C619   H637    1.078   .     S
C620   H625    1.083   .     S
C621   H631    1.084   .     S
C621   C75     1.388   1_556 S
C622   S657    1.788   .     S
C622   C743    1.359   .     S
C623   S658    1.790   .     S
C623   C1042   1.359   1_545 S
C624   O654    1.300   .     A
H626   N640    1.029   .     S
H627   O656    0.992   .     S
H628   O642    0.992   .     S
H629   O645    0.991   .     S
H630   O648    0.990   .     S
H634   C665    1.084   .     S
H638   N639    1.029   .     S
N639   Zn660   2.017   .     S
N639   N640    1.296   .     D
N640   Zn659   2.017   .     S
O641   Zn659   1.964   .     S
O641   C661    1.270   .     S
O643   S1017   1.502   1_545 S
O644   S1017   1.504   1_545 S
O645   S657    1.682   .     S
O646   S838    1.503   .     S
O647   S838    1.504   .     S
O648   S658    1.682   .     S
O649   Zn660   1.964   .     S
O650   Zn660   1.981   .     S
O651   Zn659   1.981   .     S
O652   Zn659   1.971   .     S
O652   C684    1.290   .     S
O653   Zn660   1.971   .     S
O654   Zn660   1.925   .     S
O655   Zn659   1.925   .     S
S657   O823    1.502   .     S
S657   O824    1.504   .     S
S658   O1007   1.504   1_545 S
S658   O1006   1.503   1_545 S
C661   O710    1.292   .     A
C661   C682    1.400   .     S
C662   C664    1.455   .     S
C662   O715    1.300   .     A
C662   O593    1.289   1_655 S
C663   C669    1.389   .     A
C663   C684    1.457   .     S
C664   C668    1.407   .     A
C664   C670    1.385   .     A
C665   C674    1.401   .     A
C666   C668    1.403   .     A
C666   C675    1.402   .     A
C666   H575    1.084   1_655 S
C667   O702    1.381   .     S
C667   C543    1.409   1_655 S
C667   C545    1.402   1_655 S
C668   O596    1.381   1_655 S
C669   C671    1.392   .     A
C669   H693    1.076   .     S
C670   H692    1.077   .     S
C670   C673    1.392   .     A
C671   C674    1.415   .     A
C671   C676    1.416   .     A
C672   C683    1.403   .     S
C672   O711    1.292   .     A
C672   O589    1.270   1_655 S
C673   C677    1.417   .     A
C673   C675    1.417   .     A
C674   C140    1.387   1_556 S
C676   C679    1.418   .     A
C676   C137    1.416   1_556 S
C677   C678    1.419   .     A
C678   C680    1.384   .     A
C678   H696    1.076   .     S
C679   C681    1.385   .     A
C679   H697    1.078   .     S
C680   H685    1.083   .     S
C681   H691    1.084   .     S
C681   C135    1.388   1_556 S
C682   S717    1.788   .     S
C682   C803    1.359   .     S
C683   S718    1.790   .     S
C683   C922    1.359   1_645 S
C684   O714    1.300   .     A
H686   N700    1.029   .     S
H687   O716    0.992   .     S
H688   O702    0.992   .     S
H689   O705    0.991   .     S
H690   O708    0.990   .     S
H694   C545    1.084   1_655 S
H698   N699    1.029   .     S
N699   Zn720   2.017   .     S
N699   N700    1.296   .     D
N700   Zn719   2.017   .     S
O701   Zn719   1.964   .     S
O701   C541    1.270   1_655 S
O703   S1077   1.502   1_545 S
O704   S1077   1.504   1_545 S
O705   S717    1.682   .     S
O706   S898    1.503   .     S
O707   S898    1.504   .     S
O708   S718    1.682   .     S
O709   Zn720   1.964   .     S
O710   Zn720   1.981   .     S
O711   Zn719   1.981   .     S
O712   Zn719   1.971   .     S
O712   C564    1.290   1_655 S
O713   Zn720   1.971   .     S
O714   Zn720   1.925   .     S
O715   Zn719   1.925   .     S
S717   O883    1.502   .     S
S717   O884    1.504   .     S
S718   O1067   1.504   1_545 S
S718   O1066   1.503   1_545 S
C721   O770    1.292   .     A
C721   C742    1.400   .     S
C721   O881    1.270   1_455 S
C722   C724    1.455   .     S
C722   O775    1.300   .     A
C722   O833    1.289   .     S
C723   C729    1.389   .     A
C723   C744    1.457   .     S
C723   C847    1.409   1_455 S
C724   C728    1.407   .     A
C724   C730    1.385   .     A
C725   C734    1.401   .     A
C725   C847    1.402   1_455 S
C725   H874    1.084   1_455 S
C726   C728    1.403   .     A
C726   C735    1.402   .     A
C726   H815    1.084   .     S
C727   O762    1.381   .     S
C727   C783    1.409   .     S
C727   C785    1.402   .     S
C728   O836    1.381   .     S
C729   C731    1.392   .     A
C729   H753    1.076   .     S
C730   H752    1.077   .     S
C730   C733    1.392   .     A
C731   C734    1.415   .     A
C731   C736    1.416   .     A
C732   C743    1.403   .     S
C732   O771    1.292   .     A
C732   O829    1.270   .     S
C733   C737    1.417   .     A
C733   C735    1.417   .     A
C734   C200    1.387   1_556 S
C736   C739    1.418   .     A
C736   C197    1.416   1_556 S
C737   C738    1.419   .     A
C738   C740    1.384   .     A
C738   H756    1.076   .     S
C739   C741    1.385   .     A
C739   H757    1.078   .     S
C740   H745    1.083   .     S
C741   H751    1.084   .     S
C741   C195    1.388   1_556 S
C742   S777    1.788   .     S
C742   C1043   1.359   1_455 S
C743   S778    1.790   .     S
C744   O774    1.300   .     A
C744   O892    1.290   1_455 S
H746   N760    1.029   .     S
H747   O776    0.992   .     S
H748   O762    0.992   .     S
H749   O765    0.991   .     S
H750   O768    0.990   .     S
H754   C785    1.084   .     S
H755   C846    1.084   1_455 S
H758   N759    1.029   .     S
N759   Zn780   2.017   .     S
N759   N760    1.296   .     D
N760   Zn779   2.017   .     S
O761   Zn779   1.964   .     S
O761   C781    1.270   .     S
O765   S777    1.682   .     S
O766   S958    1.503   .     S
O767   S958    1.504   .     S
O768   S778    1.682   .     S
O769   Zn780   1.964   .     S
O769   C852    1.270   1_455 S
O770   Zn780   1.981   .     S
O771   Zn779   1.981   .     S
O772   Zn779   1.971   .     S
O772   C804    1.290   .     S
O773   Zn780   1.971   .     S
O773   C842    1.289   1_455 S
O774   Zn780   1.925   .     S
O775   Zn779   1.925   .     S
O776   C848    1.381   1_455 S
S777   O943    1.502   .     S
S777   O944    1.504   .     S
C781   O830    1.292   .     A
C781   C802    1.400   .     S
C782   C784    1.455   .     S
C782   O835    1.300   .     A
C782   O893    1.289   .     S
C783   C789    1.389   .     A
C783   C804    1.457   .     S
C784   C788    1.407   .     A
C784   C790    1.385   .     A
C785   C794    1.401   .     A
C786   C788    1.403   .     A
C786   C795    1.402   .     A
C786   H875    1.084   .     S
C787   O822    1.381   .     S
C787   C843    1.409   .     S
C787   C845    1.402   .     S
C788   O896    1.381   .     S
C789   C791    1.392   .     A
C789   H813    1.076   .     S
C790   H812    1.077   .     S
C790   C793    1.392   .     A
C791   C794    1.415   .     A
C791   C796    1.416   .     A
C792   C803    1.403   .     S
C792   O831    1.292   .     A
C792   O889    1.270   .     S
C793   C797    1.417   .     A
C793   C795    1.417   .     A
C794   C260    1.387   1_556 S
C796   C799    1.418   .     A
C796   C257    1.416   1_556 S
C797   C798    1.419   .     A
C798   C800    1.384   .     A
C798   H816    1.076   .     S
C799   C801    1.385   .     A
C799   H817    1.078   .     S
C800   H805    1.083   .     S
C801   H811    1.084   .     S
C801   C255    1.388   1_556 S
C802   S837    1.788   .     S
C802   C923    1.359   .     S
C803   S838    1.790   .     S
C804   O834    1.300   .     A
H806   N820    1.029   .     S
H807   O836    0.992   .     S
H808   O822    0.992   .     S
H809   O825    0.991   .     S
H810   O828    0.990   .     S
H814   C845    1.084   .     S
H818   N819    1.029   .     S
N819   Zn840   2.017   .     S
N819   N820    1.296   .     D
N820   Zn839   2.017   .     S
O821   Zn839   1.964   .     S
O821   C841    1.270   .     S
O825   S837    1.682   .     S
O826   S1018   1.503   .     S
O827   S1018   1.504   .     S
O828   S838    1.682   .     S
O829   Zn840   1.964   .     S
O830   Zn840   1.981   .     S
O831   Zn839   1.981   .     S
O832   Zn839   1.971   .     S
O832   C864    1.290   .     S
O833   Zn840   1.971   .     S
O834   Zn840   1.925   .     S
O835   Zn839   1.925   .     S
S837   O1003   1.502   .     S
S837   O1004   1.504   .     S
C841   O890    1.292   .     A
C841   C862    1.400   .     S
C842   C844    1.455   .     S
C842   O895    1.300   .     A
C842   O773    1.289   1_655 S
C843   C849    1.389   .     A
C843   C864    1.457   .     S
C844   C848    1.407   .     A
C844   C850    1.385   .     A
C845   C854    1.401   .     A
C846   C848    1.403   .     A
C846   C855    1.402   .     A
C846   H755    1.084   1_655 S
C847   O882    1.381   .     S
C847   C723    1.409   1_655 S
C847   C725    1.402   1_655 S
C848   O776    1.381   1_655 S
C849   C851    1.392   .     A
C849   H873    1.076   .     S
C850   H872    1.077   .     S
C850   C853    1.392   .     A
C851   C854    1.415   .     A
C851   C856    1.416   .     A
C852   C863    1.403   .     S
C852   O891    1.292   .     A
C852   O769    1.270   1_655 S
C853   C857    1.417   .     A
C853   C855    1.417   .     A
C854   C320    1.387   1_556 S
C856   C859    1.418   .     A
C856   C317    1.416   1_556 S
C857   C858    1.419   .     A
C858   C860    1.384   .     A
C858   H876    1.076   .     S
C859   C861    1.385   .     A
C859   H877    1.078   .     S
C860   H865    1.083   .     S
C861   H871    1.084   .     S
C861   C315    1.388   1_556 S
C862   S897    1.788   .     S
C862   C983    1.359   .     S
C863   S898    1.790   .     S
C863   C562    1.359   1_655 S
C864   O894    1.300   .     A
H866   N880    1.029   .     S
H867   O896    0.992   .     S
H868   O882    0.992   .     S
H869   O885    0.991   .     S
H870   O888    0.990   .     S
H874   C725    1.084   1_655 S
H878   N879    1.029   .     S
N879   Zn900   2.017   .     S
N879   N880    1.296   .     D
N880   Zn899   2.017   .     S
O881   Zn899   1.964   .     S
O881   C721    1.270   1_655 S
O885   S897    1.682   .     S
O886   S1078   1.503   .     S
O887   S1078   1.504   .     S
O888   S898    1.682   .     S
O889   Zn900   1.964   .     S
O890   Zn900   1.981   .     S
O891   Zn899   1.981   .     S
O892   Zn899   1.971   .     S
O892   C744    1.290   1_655 S
O893   Zn900   1.971   .     S
O894   Zn900   1.925   .     S
O895   Zn899   1.925   .     S
S897   O1063   1.502   .     S
S897   O1064   1.504   .     S
C901   O950    1.292   .     A
C901   C922    1.400   .     S
C901   O1061   1.270   1_455 S
C902   C904    1.455   .     S
C902   O955    1.300   .     A
C902   O1013   1.289   .     S
C903   C909    1.389   .     A
C903   C924    1.457   .     S
C903   C1027   1.409   1_455 S
C904   C908    1.407   .     A
C904   C910    1.385   .     A
C905   C914    1.401   .     A
C905   C1027   1.402   1_455 S
C905   H1054   1.084   1_455 S
C906   C908    1.403   .     A
C906   C915    1.402   .     A
C906   H995    1.084   .     S
C907   O942    1.381   .     S
C907   C963    1.409   .     S
C907   C965    1.402   .     S
C908   O1016   1.381   .     S
C909   C911    1.392   .     A
C909   H933    1.076   .     S
C910   H932    1.077   .     S
C910   C913    1.392   .     A
C911   C914    1.415   .     A
C911   C916    1.416   .     A
C912   C923    1.403   .     S
C912   O951    1.292   .     A
C912   O1009   1.270   .     S
C913   C917    1.417   .     A
C913   C915    1.417   .     A
C914   C380    1.387   1_556 S
C916   C919    1.418   .     A
C916   C377    1.416   1_556 S
C917   C918    1.419   .     A
C918   C920    1.384   .     A
C918   H936    1.076   .     S
C919   C921    1.385   .     A
C919   H937    1.078   .     S
C920   H925    1.083   .     S
C921   H931    1.084   .     S
C921   C375    1.388   1_556 S
C922   S957    1.788   .     S
C922   C683    1.359   1_465 S
C923   S958    1.790   .     S
C924   O954    1.300   .     A
C924   O1072   1.290   1_455 S
H926   N940    1.029   .     S
H927   O956    0.992   .     S
H928   O942    0.992   .     S
H929   O945    0.991   .     S
H930   O948    0.990   .     S
H934   C965    1.084   .     S
H935   C1026   1.084   1_455 S
H938   N939    1.029   .     S
N939   Zn960   2.017   .     S
N939   N940    1.296   .     D
N940   Zn959   2.017   .     S
O941   Zn959   1.964   .     S
O941   C961    1.270   .     S
O945   S957    1.682   .     S
O946   S598    1.503   1_565 S
O947   S598    1.504   1_565 S
O948   S958    1.682   .     S
O949   Zn960   1.964   .     S
O949   C1032   1.270   1_455 S
O950   Zn960   1.981   .     S
O951   Zn959   1.981   .     S
O952   Zn959   1.971   .     S
O952   C984    1.290   .     S
O953   Zn960   1.971   .     S
O953   C1022   1.289   1_455 S
O954   Zn960   1.925   .     S
O955   Zn959   1.925   .     S
O956   C1028   1.381   1_455 S
S957   O583    1.502   1_565 S
S957   O584    1.504   1_565 S
C961   O1010   1.292   .     A
C961   C982    1.400   .     S
C962   C964    1.455   .     S
C962   O1015   1.300   .     A
C962   O1073   1.289   .     S
C963   C969    1.389   .     A
C963   C984    1.457   .     S
C964   C968    1.407   .     A
C964   C970    1.385   .     A
C965   C974    1.401   .     A
C966   C968    1.403   .     A
C966   C975    1.402   .     A
C966   H1055   1.084   .     S
C967   O1002   1.381   .     S
C967   C1023   1.409   .     S
C967   C1025   1.402   .     S
C968   O1076   1.381   .     S
C969   C971    1.392   .     A
C969   H993    1.076   .     S
C970   H992    1.077   .     S
C970   C973    1.392   .     A
C971   C974    1.415   .     A
C971   C976    1.416   .     A
C972   C983    1.403   .     S
C972   O1011   1.292   .     A
C972   O1069   1.270   .     S
C973   C977    1.417   .     A
C973   C975    1.417   .     A
C974   C440    1.387   1_556 S
C976   C979    1.418   .     A
C976   C437    1.416   1_556 S
C977   C978    1.419   .     A
C978   C980    1.384   .     A
C978   H996    1.076   .     S
C979   C981    1.385   .     A
C979   H997    1.078   .     S
C980   H985    1.083   .     S
C981   H991    1.084   .     S
C981   C435    1.388   1_556 S
C982   S1017   1.788   .     S
C982   C563    1.359   1_565 S
C983   S1018   1.790   .     S
C984   O1014   1.300   .     A
H986   N1000   1.029   .     S
H987   O1016   0.992   .     S
H988   O1002   0.992   .     S
H989   O1005   0.991   .     S
H990   O1008   0.990   .     S
H994   C1025   1.084   .     S
H998   N999    1.029   .     S
N999   Zn1020  2.017   .     S
N999   N1000   1.296   .     D
N1000  Zn1019  2.017   .     S
O1001  Zn1019  1.964   .     S
O1001  C1021   1.270   .     S
O1005  S1017   1.682   .     S
O1006  S658    1.503   1_565 S
O1007  S658    1.504   1_565 S
O1008  S1018   1.682   .     S
O1009  Zn1020  1.964   .     S
O1010  Zn1020  1.981   .     S
O1011  Zn1019  1.981   .     S
O1012  Zn1019  1.971   .     S
O1012  C1044   1.290   .     S
O1013  Zn1020  1.971   .     S
O1014  Zn1020  1.925   .     S
O1015  Zn1019  1.925   .     S
S1017  O643    1.502   1_565 S
S1017  O644    1.504   1_565 S
C1021  O1070   1.292   .     A
C1021  C1042   1.400   .     S
C1022  C1024   1.455   .     S
C1022  O1075   1.300   .     A
C1022  O953    1.289   1_655 S
C1023  C1029   1.389   .     A
C1023  C1044   1.457   .     S
C1024  C1028   1.407   .     A
C1024  C1030   1.385   .     A
C1025  C1034   1.401   .     A
C1026  C1028   1.403   .     A
C1026  C1035   1.402   .     A
C1026  H935    1.084   1_655 S
C1027  O1062   1.381   .     S
C1027  C903    1.409   1_655 S
C1027  C905    1.402   1_655 S
C1028  O956    1.381   1_655 S
C1029  C1031   1.392   .     A
C1029  H1053   1.076   .     S
C1030  H1052   1.077   .     S
C1030  C1033   1.392   .     A
C1031  C1034   1.415   .     A
C1031  C1036   1.416   .     A
C1032  C1043   1.403   .     S
C1032  O1071   1.292   .     A
C1032  O949    1.270   1_655 S
C1033  C1037   1.417   .     A
C1033  C1035   1.417   .     A
C1034  C500    1.387   1_556 S
C1036  C1039   1.418   .     A
C1036  C497    1.416   1_556 S
C1037  C1038   1.419   .     A
C1038  C1040   1.384   .     A
C1038  H1056   1.076   .     S
C1039  C1041   1.385   .     A
C1039  H1057   1.078   .     S
C1040  H1045   1.083   .     S
C1041  H1051   1.084   .     S
C1041  C495    1.388   1_556 S
C1042  S1077   1.788   .     S
C1042  C623    1.359   1_565 S
C1043  S1078   1.790   .     S
C1043  C742    1.359   1_655 S
C1044  O1074   1.300   .     A
H1046  N1060   1.029   .     S
H1047  O1076   0.992   .     S
H1048  O1062   0.992   .     S
H1049  O1065   0.991   .     S
H1050  O1068   0.990   .     S
H1054  C905    1.084   1_655 S
H1058  N1059   1.029   .     S
N1059  Zn1080  2.017   .     S
N1059  N1060   1.296   .     D
N1060  Zn1079  2.017   .     S
O1061  Zn1079  1.964   .     S
O1061  C901    1.270   1_655 S
O1065  S1077   1.682   .     S
O1066  S718    1.503   1_565 S
O1067  S718    1.504   1_565 S
O1068  S1078   1.682   .     S
O1069  Zn1080  1.964   .     S
O1070  Zn1080  1.981   .     S
O1071  Zn1079  1.981   .     S
O1072  Zn1079  1.971   .     S
O1072  C924    1.290   1_655 S
O1073  Zn1080  1.971   .     S
O1074  Zn1080  1.925   .     S
O1075  Zn1079  1.925   .     S
S1077  O703    1.502   1_565 S
S1077  O704    1.504   1_565 S
