data_str_m3_o2_o5_pcu_sym.33
_audit_creation_date              2020-01-03
_audit_creation_method            'Materials Studio'
_symmetry_space_group_name_H-M    'P1'
_symmetry_Int_Tables_number       1
_symmetry_cell_setting            triclinic
loop_
_symmetry_equiv_pos_as_xyz
  x,y,z
_cell_length_a                    29.9550
_cell_length_b                    28.3850
_cell_length_c                    26.7146
_cell_angle_alpha                 90.0000
_cell_angle_beta                  90.0333
_cell_angle_gamma                 90.0000
loop_
_atom_site_label
_atom_site_type_symbol
_atom_site_fract_x
_atom_site_fract_y
_atom_site_fract_z
_atom_site_U_iso_or_equiv
_atom_site_adp_type
_atom_site_occupancy
C1     C     0.16411   0.25000   0.16666   0.00000  Uiso   1.00
C2     C     0.22856   0.44735   0.12856   0.00000  Uiso   1.00
C3     C     0.24998   0.25000   0.07286   0.00000  Uiso   1.00
C4     C     0.25002   0.25000   0.26047   0.00000  Uiso   1.00
C5     C     0.25000   0.02667   0.16667   0.00000  Uiso   1.00
C6     C     0.25000   0.47330   0.16667   0.00000  Uiso   1.00
C7     C     0.24999   0.25001   0.02179   0.00000  Uiso   1.00
C8     C     0.25001   0.25001   0.31154   0.00000  Uiso   1.00
C9     C     0.04697   0.26743   0.12512   0.00000  Uiso   1.00
C10    C     0.45299   0.23259   0.12513   0.00000  Uiso   1.00
C11    C     0.45303   0.26743   0.20821   0.00000  Uiso   1.00
C12    C     0.33589   0.25000   0.16667   0.00000  Uiso   1.00
C13    C     0.04701   0.23259   0.20821   0.00000  Uiso   1.00
C14    C     0.09332   0.26721   0.12422   0.00000  Uiso   1.00
C15    C     0.40664   0.23282   0.12422   0.00000  Uiso   1.00
C16    C     0.40668   0.26721   0.20912   0.00000  Uiso   1.00
C17    C     0.09336   0.23282   0.20911   0.00000  Uiso   1.00
C18    C     0.11631   0.25001   0.16666   0.00000  Uiso   1.00
C19    C     0.38369   0.25001   0.16667   0.00000  Uiso   1.00
C20    C     0.02413   0.25001   0.16666   0.00000  Uiso   1.00
C21    C     0.47587   0.25001   0.16667   0.00000  Uiso   1.00
C22    C     0.11706   0.28390   0.07850   0.00000  Uiso   1.00
C23    C     0.21491   0.10221   0.14653   0.00000  Uiso   1.00
C24    C     0.38286   0.21622   0.07847   0.00000  Uiso   1.00
C25    C     0.38294   0.28390   0.25483   0.00000  Uiso   1.00
C26    C     0.11714   0.21622   0.25487   0.00000  Uiso   1.00
C27    C     0.27116   0.39776   0.20397   0.00000  Uiso   1.00
C28    C     0.28509   0.10221   0.18680   0.00000  Uiso   1.00
C29    C     0.22884   0.39776   0.12936   0.00000  Uiso   1.00
C30    C     0.21417   0.05263   0.14629   0.00000  Uiso   1.00
C31    C     0.27144   0.44735   0.20477   0.00000  Uiso   1.00
C32    C     0.28583   0.05263   0.18704   0.00000  Uiso   1.00
H33    H     0.18717   0.12150   0.13065   0.00000  Uiso   1.00
H34    H     0.28786   0.46505   0.23556   0.00000  Uiso   1.00
H35    H     0.31469   0.03492   0.20250   0.00000  Uiso   1.00
H36    H     0.21214   0.46505   0.09777   0.00000  Uiso   1.00
H37    H     0.15308   0.28176   0.07570   0.00000  Uiso   1.00
H38    H     0.34684   0.21845   0.07563   0.00000  Uiso   1.00
H39    H     0.34692   0.28176   0.25763   0.00000  Uiso   1.00
H40    H     0.15316   0.21845   0.25770   0.00000  Uiso   1.00
H41    H     0.28783   0.37842   0.23344   0.00000  Uiso   1.00
H42    H     0.31283   0.12150   0.20268   0.00000  Uiso   1.00
H43    H     0.21217   0.37842   0.09989   0.00000  Uiso   1.00
H44    H     0.02840   0.28111   0.09346   0.00000  Uiso   1.00
H45    H     0.47153   0.21893   0.09346   0.00000  Uiso   1.00
H46    H     0.47160   0.28111   0.23987   0.00000  Uiso   1.00
H47    H     0.02847   0.21893   0.23987   0.00000  Uiso   1.00
H48    H     0.18531   0.03492   0.13083   0.00000  Uiso   1.00
N49    N     0.25000   0.12624   0.16667   0.00000  Uiso   1.00
N50    N     0.25000   0.37377   0.16667   0.00000  Uiso   1.00
O51    O     0.18453   0.28974   0.16667   0.00000  Uiso   1.00
O52    O     0.40339   0.20003   0.04291   0.00000  Uiso   1.00
O53    O     0.40351   0.30008   0.29039   0.00000  Uiso   1.00
O54    O     0.09661   0.20003   0.29042   0.00000  Uiso   1.00
O55    O     0.31547   0.21026   0.16666   0.00000  Uiso   1.00
O56    O     0.31547   0.28974   0.16666   0.00000  Uiso   1.00
O57    O     0.18453   0.21026   0.16667   0.00000  Uiso   1.00
O58    O     0.25000   0.28973   0.09511   0.00000  Uiso   1.00
O59    O     0.25000   0.21027   0.23822   0.00000  Uiso   1.00
O60    O     0.25000   0.28973   0.23822   0.00000  Uiso   1.00
O61    O     0.25000   0.21027   0.09511   0.00000  Uiso   1.00
O62    O     0.09649   0.30007   0.04294   0.00000  Uiso   1.00
Zn63   Zn    0.25000   0.30307   0.16667   0.00000  Uiso   1.00
Zn64   Zn    0.25000   0.19693   0.16667   0.00000  Uiso   1.00
C65    C     0.66411   0.25000   0.16666   0.00000  Uiso   1.00
C66    C     0.72856   0.44735   0.12856   0.00000  Uiso   1.00
C67    C     0.74998   0.25000   0.07286   0.00000  Uiso   1.00
C68    C     0.75002   0.25000   0.26047   0.00000  Uiso   1.00
C69    C     0.75000   0.02667   0.16667   0.00000  Uiso   1.00
C70    C     0.75000   0.47330   0.16667   0.00000  Uiso   1.00
C71    C     0.74999   0.25001   0.02179   0.00000  Uiso   1.00
C72    C     0.75001   0.25001   0.31154   0.00000  Uiso   1.00
C73    C     0.54697   0.26743   0.12512   0.00000  Uiso   1.00
C74    C     0.95299   0.23259   0.12513   0.00000  Uiso   1.00
C75    C     0.95303   0.26743   0.20821   0.00000  Uiso   1.00
C76    C     0.83589   0.25000   0.16667   0.00000  Uiso   1.00
C77    C     0.54701   0.23259   0.20821   0.00000  Uiso   1.00
C78    C     0.59332   0.26721   0.12422   0.00000  Uiso   1.00
C79    C     0.90664   0.23282   0.12422   0.00000  Uiso   1.00
C80    C     0.90668   0.26721   0.20912   0.00000  Uiso   1.00
C81    C     0.59336   0.23282   0.20911   0.00000  Uiso   1.00
C82    C     0.61631   0.25001   0.16666   0.00000  Uiso   1.00
C83    C     0.88369   0.25001   0.16667   0.00000  Uiso   1.00
C84    C     0.52413   0.25001   0.16666   0.00000  Uiso   1.00
C85    C     0.97587   0.25001   0.16667   0.00000  Uiso   1.00
C86    C     0.61706   0.28390   0.07850   0.00000  Uiso   1.00
C87    C     0.71491   0.10221   0.14653   0.00000  Uiso   1.00
C88    C     0.88286   0.21622   0.07847   0.00000  Uiso   1.00
C89    C     0.88294   0.28390   0.25483   0.00000  Uiso   1.00
C90    C     0.61714   0.21622   0.25487   0.00000  Uiso   1.00
C91    C     0.77116   0.39776   0.20397   0.00000  Uiso   1.00
C92    C     0.78509   0.10221   0.18680   0.00000  Uiso   1.00
C93    C     0.72884   0.39776   0.12936   0.00000  Uiso   1.00
C94    C     0.71417   0.05263   0.14629   0.00000  Uiso   1.00
C95    C     0.77144   0.44735   0.20477   0.00000  Uiso   1.00
C96    C     0.78583   0.05263   0.18704   0.00000  Uiso   1.00
H97    H     0.68717   0.12150   0.13065   0.00000  Uiso   1.00
H98    H     0.78786   0.46505   0.23556   0.00000  Uiso   1.00
H99    H     0.81469   0.03492   0.20250   0.00000  Uiso   1.00
H100   H     0.71214   0.46505   0.09777   0.00000  Uiso   1.00
H101   H     0.65308   0.28176   0.07570   0.00000  Uiso   1.00
H102   H     0.84684   0.21845   0.07563   0.00000  Uiso   1.00
H103   H     0.84692   0.28176   0.25763   0.00000  Uiso   1.00
H104   H     0.65316   0.21845   0.25770   0.00000  Uiso   1.00
H105   H     0.78783   0.37842   0.23344   0.00000  Uiso   1.00
H106   H     0.81283   0.12150   0.20268   0.00000  Uiso   1.00
H107   H     0.71217   0.37842   0.09989   0.00000  Uiso   1.00
H108   H     0.52840   0.28111   0.09346   0.00000  Uiso   1.00
H109   H     0.97153   0.21893   0.09346   0.00000  Uiso   1.00
H110   H     0.97160   0.28111   0.23987   0.00000  Uiso   1.00
H111   H     0.52847   0.21893   0.23987   0.00000  Uiso   1.00
H112   H     0.68531   0.03492   0.13083   0.00000  Uiso   1.00
N113   N     0.75000   0.12624   0.16667   0.00000  Uiso   1.00
N114   N     0.75000   0.37377   0.16667   0.00000  Uiso   1.00
O115   O     0.68453   0.28974   0.16667   0.00000  Uiso   1.00
O116   O     0.90339   0.20003   0.04291   0.00000  Uiso   1.00
O117   O     0.90351   0.30008   0.29039   0.00000  Uiso   1.00
O118   O     0.59661   0.20003   0.29042   0.00000  Uiso   1.00
O119   O     0.81547   0.21026   0.16666   0.00000  Uiso   1.00
O120   O     0.81547   0.28974   0.16666   0.00000  Uiso   1.00
O121   O     0.68453   0.21026   0.16667   0.00000  Uiso   1.00
O122   O     0.75000   0.28973   0.09511   0.00000  Uiso   1.00
O123   O     0.75000   0.21027   0.23822   0.00000  Uiso   1.00
O124   O     0.75000   0.28973   0.23822   0.00000  Uiso   1.00
O125   O     0.75000   0.21027   0.09511   0.00000  Uiso   1.00
O126   O     0.59649   0.30007   0.04294   0.00000  Uiso   1.00
Zn127  Zn    0.75000   0.30307   0.16667   0.00000  Uiso   1.00
Zn128  Zn    0.75000   0.19693   0.16667   0.00000  Uiso   1.00
C129   C     0.16411   0.75000   0.16666   0.00000  Uiso   1.00
C130   C     0.22856   0.94735   0.12856   0.00000  Uiso   1.00
C131   C     0.24998   0.75000   0.07286   0.00000  Uiso   1.00
C132   C     0.25002   0.75000   0.26047   0.00000  Uiso   1.00
C133   C     0.25000   0.52667   0.16667   0.00000  Uiso   1.00
C134   C     0.25000   0.97330   0.16667   0.00000  Uiso   1.00
C135   C     0.24999   0.75001   0.02179   0.00000  Uiso   1.00
C136   C     0.25001   0.75001   0.31154   0.00000  Uiso   1.00
C137   C     0.04697   0.76743   0.12512   0.00000  Uiso   1.00
C138   C     0.45299   0.73259   0.12513   0.00000  Uiso   1.00
C139   C     0.45303   0.76743   0.20821   0.00000  Uiso   1.00
C140   C     0.33589   0.75000   0.16667   0.00000  Uiso   1.00
C141   C     0.04701   0.73259   0.20821   0.00000  Uiso   1.00
C142   C     0.09332   0.76721   0.12422   0.00000  Uiso   1.00
C143   C     0.40664   0.73282   0.12422   0.00000  Uiso   1.00
C144   C     0.40668   0.76721   0.20912   0.00000  Uiso   1.00
C145   C     0.09336   0.73282   0.20911   0.00000  Uiso   1.00
C146   C     0.11631   0.75001   0.16666   0.00000  Uiso   1.00
C147   C     0.38369   0.75001   0.16667   0.00000  Uiso   1.00
C148   C     0.02413   0.75001   0.16666   0.00000  Uiso   1.00
C149   C     0.47587   0.75001   0.16667   0.00000  Uiso   1.00
C150   C     0.11706   0.78390   0.07850   0.00000  Uiso   1.00
C151   C     0.21491   0.60221   0.14653   0.00000  Uiso   1.00
C152   C     0.38286   0.71622   0.07847   0.00000  Uiso   1.00
C153   C     0.38294   0.78390   0.25483   0.00000  Uiso   1.00
C154   C     0.11714   0.71622   0.25487   0.00000  Uiso   1.00
C155   C     0.27116   0.89776   0.20397   0.00000  Uiso   1.00
C156   C     0.28509   0.60221   0.18680   0.00000  Uiso   1.00
C157   C     0.22884   0.89776   0.12936   0.00000  Uiso   1.00
C158   C     0.21417   0.55263   0.14629   0.00000  Uiso   1.00
C159   C     0.27144   0.94735   0.20477   0.00000  Uiso   1.00
C160   C     0.28583   0.55263   0.18704   0.00000  Uiso   1.00
H161   H     0.18717   0.62150   0.13065   0.00000  Uiso   1.00
H162   H     0.28786   0.96505   0.23556   0.00000  Uiso   1.00
H163   H     0.31469   0.53492   0.20250   0.00000  Uiso   1.00
H164   H     0.21214   0.96505   0.09777   0.00000  Uiso   1.00
H165   H     0.15308   0.78176   0.07570   0.00000  Uiso   1.00
H166   H     0.34684   0.71845   0.07563   0.00000  Uiso   1.00
H167   H     0.34692   0.78176   0.25763   0.00000  Uiso   1.00
H168   H     0.15316   0.71845   0.25770   0.00000  Uiso   1.00
H169   H     0.28783   0.87842   0.23344   0.00000  Uiso   1.00
H170   H     0.31283   0.62150   0.20268   0.00000  Uiso   1.00
H171   H     0.21217   0.87842   0.09989   0.00000  Uiso   1.00
H172   H     0.02840   0.78111   0.09346   0.00000  Uiso   1.00
H173   H     0.47153   0.71893   0.09346   0.00000  Uiso   1.00
H174   H     0.47160   0.78111   0.23987   0.00000  Uiso   1.00
H175   H     0.02847   0.71893   0.23987   0.00000  Uiso   1.00
H176   H     0.18531   0.53492   0.13083   0.00000  Uiso   1.00
N177   N     0.25000   0.62624   0.16667   0.00000  Uiso   1.00
N178   N     0.25000   0.87377   0.16667   0.00000  Uiso   1.00
O179   O     0.18453   0.78974   0.16667   0.00000  Uiso   1.00
O180   O     0.40339   0.70003   0.04291   0.00000  Uiso   1.00
O181   O     0.40351   0.80008   0.29039   0.00000  Uiso   1.00
O182   O     0.09661   0.70003   0.29042   0.00000  Uiso   1.00
O183   O     0.31547   0.71026   0.16666   0.00000  Uiso   1.00
O184   O     0.31547   0.78974   0.16666   0.00000  Uiso   1.00
O185   O     0.18453   0.71026   0.16667   0.00000  Uiso   1.00
O186   O     0.25000   0.78973   0.09511   0.00000  Uiso   1.00
O187   O     0.25000   0.71027   0.23822   0.00000  Uiso   1.00
O188   O     0.25000   0.78973   0.23822   0.00000  Uiso   1.00
O189   O     0.25000   0.71027   0.09511   0.00000  Uiso   1.00
O190   O     0.09649   0.80007   0.04294   0.00000  Uiso   1.00
Zn191  Zn    0.25000   0.80307   0.16667   0.00000  Uiso   1.00
Zn192  Zn    0.25000   0.69693   0.16667   0.00000  Uiso   1.00
C193   C     0.66411   0.75000   0.16666   0.00000  Uiso   1.00
C194   C     0.72856   0.94735   0.12856   0.00000  Uiso   1.00
C195   C     0.74998   0.75000   0.07286   0.00000  Uiso   1.00
C196   C     0.75002   0.75000   0.26047   0.00000  Uiso   1.00
C197   C     0.75000   0.52667   0.16667   0.00000  Uiso   1.00
C198   C     0.75000   0.97330   0.16667   0.00000  Uiso   1.00
C199   C     0.74999   0.75001   0.02179   0.00000  Uiso   1.00
C200   C     0.75001   0.75001   0.31154   0.00000  Uiso   1.00
C201   C     0.54697   0.76743   0.12512   0.00000  Uiso   1.00
C202   C     0.95299   0.73259   0.12513   0.00000  Uiso   1.00
C203   C     0.95303   0.76743   0.20821   0.00000  Uiso   1.00
C204   C     0.83589   0.75000   0.16667   0.00000  Uiso   1.00
C205   C     0.54701   0.73259   0.20821   0.00000  Uiso   1.00
C206   C     0.59332   0.76721   0.12422   0.00000  Uiso   1.00
C207   C     0.90664   0.73282   0.12422   0.00000  Uiso   1.00
C208   C     0.90668   0.76721   0.20912   0.00000  Uiso   1.00
C209   C     0.59336   0.73282   0.20911   0.00000  Uiso   1.00
C210   C     0.61631   0.75001   0.16666   0.00000  Uiso   1.00
C211   C     0.88369   0.75001   0.16667   0.00000  Uiso   1.00
C212   C     0.52413   0.75001   0.16666   0.00000  Uiso   1.00
C213   C     0.97587   0.75001   0.16667   0.00000  Uiso   1.00
C214   C     0.61706   0.78390   0.07850   0.00000  Uiso   1.00
C215   C     0.71491   0.60221   0.14653   0.00000  Uiso   1.00
C216   C     0.88286   0.71622   0.07847   0.00000  Uiso   1.00
C217   C     0.88294   0.78390   0.25483   0.00000  Uiso   1.00
C218   C     0.61714   0.71622   0.25487   0.00000  Uiso   1.00
C219   C     0.77116   0.89776   0.20397   0.00000  Uiso   1.00
C220   C     0.78509   0.60221   0.18680   0.00000  Uiso   1.00
C221   C     0.72884   0.89776   0.12936   0.00000  Uiso   1.00
C222   C     0.71417   0.55263   0.14629   0.00000  Uiso   1.00
C223   C     0.77144   0.94735   0.20477   0.00000  Uiso   1.00
C224   C     0.78583   0.55263   0.18704   0.00000  Uiso   1.00
H225   H     0.68717   0.62150   0.13065   0.00000  Uiso   1.00
H226   H     0.78786   0.96505   0.23556   0.00000  Uiso   1.00
H227   H     0.81469   0.53492   0.20250   0.00000  Uiso   1.00
H228   H     0.71214   0.96505   0.09777   0.00000  Uiso   1.00
H229   H     0.65308   0.78176   0.07570   0.00000  Uiso   1.00
H230   H     0.84684   0.71845   0.07563   0.00000  Uiso   1.00
H231   H     0.84692   0.78176   0.25763   0.00000  Uiso   1.00
H232   H     0.65316   0.71845   0.25770   0.00000  Uiso   1.00
H233   H     0.78783   0.87842   0.23344   0.00000  Uiso   1.00
H234   H     0.81283   0.62150   0.20268   0.00000  Uiso   1.00
H235   H     0.71217   0.87842   0.09989   0.00000  Uiso   1.00
H236   H     0.52840   0.78111   0.09346   0.00000  Uiso   1.00
H237   H     0.97153   0.71893   0.09346   0.00000  Uiso   1.00
H238   H     0.97160   0.78111   0.23987   0.00000  Uiso   1.00
H239   H     0.52847   0.71893   0.23987   0.00000  Uiso   1.00
H240   H     0.68531   0.53492   0.13083   0.00000  Uiso   1.00
N241   N     0.75000   0.62624   0.16667   0.00000  Uiso   1.00
N242   N     0.75000   0.87377   0.16667   0.00000  Uiso   1.00
O243   O     0.68453   0.78974   0.16667   0.00000  Uiso   1.00
O244   O     0.90339   0.70003   0.04291   0.00000  Uiso   1.00
O245   O     0.90351   0.80008   0.29039   0.00000  Uiso   1.00
O246   O     0.59661   0.70003   0.29042   0.00000  Uiso   1.00
O247   O     0.81547   0.71026   0.16666   0.00000  Uiso   1.00
O248   O     0.81547   0.78974   0.16666   0.00000  Uiso   1.00
O249   O     0.68453   0.71026   0.16667   0.00000  Uiso   1.00
O250   O     0.75000   0.78973   0.09511   0.00000  Uiso   1.00
O251   O     0.75000   0.71027   0.23822   0.00000  Uiso   1.00
O252   O     0.75000   0.78973   0.23822   0.00000  Uiso   1.00
O253   O     0.75000   0.71027   0.09511   0.00000  Uiso   1.00
O254   O     0.59649   0.80007   0.04294   0.00000  Uiso   1.00
Zn255  Zn    0.75000   0.80307   0.16667   0.00000  Uiso   1.00
Zn256  Zn    0.75000   0.69693   0.16667   0.00000  Uiso   1.00
C257   C     0.16411   0.25000   0.49999   0.00000  Uiso   1.00
C258   C     0.22856   0.44735   0.46189   0.00000  Uiso   1.00
C259   C     0.24998   0.25000   0.40620   0.00000  Uiso   1.00
C260   C     0.25002   0.25000   0.59380   0.00000  Uiso   1.00
C261   C     0.25000   0.02667   0.50000   0.00000  Uiso   1.00
C262   C     0.25000   0.47330   0.50000   0.00000  Uiso   1.00
C263   C     0.24999   0.25001   0.35512   0.00000  Uiso   1.00
C264   C     0.25001   0.25001   0.64487   0.00000  Uiso   1.00
C265   C     0.04697   0.26743   0.45845   0.00000  Uiso   1.00
C266   C     0.45299   0.23259   0.45846   0.00000  Uiso   1.00
C267   C     0.45303   0.26743   0.54155   0.00000  Uiso   1.00
C268   C     0.33589   0.25000   0.50001   0.00000  Uiso   1.00
C269   C     0.04701   0.23259   0.54154   0.00000  Uiso   1.00
C270   C     0.09332   0.26721   0.45755   0.00000  Uiso   1.00
C271   C     0.40664   0.23282   0.45755   0.00000  Uiso   1.00
C272   C     0.40668   0.26721   0.54245   0.00000  Uiso   1.00
C273   C     0.09336   0.23282   0.54245   0.00000  Uiso   1.00
C274   C     0.11631   0.25001   0.49999   0.00000  Uiso   1.00
C275   C     0.38369   0.25001   0.50001   0.00000  Uiso   1.00
C276   C     0.02413   0.25001   0.50000   0.00000  Uiso   1.00
C277   C     0.47587   0.25001   0.50000   0.00000  Uiso   1.00
C278   C     0.11706   0.28390   0.41183   0.00000  Uiso   1.00
C279   C     0.21491   0.10221   0.47986   0.00000  Uiso   1.00
C280   C     0.38286   0.21622   0.41180   0.00000  Uiso   1.00
C281   C     0.38294   0.28390   0.58817   0.00000  Uiso   1.00
C282   C     0.11714   0.21622   0.58820   0.00000  Uiso   1.00
C283   C     0.27116   0.39776   0.53730   0.00000  Uiso   1.00
C284   C     0.28509   0.10221   0.52013   0.00000  Uiso   1.00
C285   C     0.22884   0.39776   0.46270   0.00000  Uiso   1.00
C286   C     0.21417   0.05263   0.47962   0.00000  Uiso   1.00
C287   C     0.27144   0.44735   0.53811   0.00000  Uiso   1.00
C288   C     0.28583   0.05263   0.52038   0.00000  Uiso   1.00
H289   H     0.18717   0.12150   0.46399   0.00000  Uiso   1.00
H290   H     0.28786   0.46505   0.56889   0.00000  Uiso   1.00
H291   H     0.31469   0.03492   0.53584   0.00000  Uiso   1.00
H292   H     0.21214   0.46505   0.43111   0.00000  Uiso   1.00
H293   H     0.15308   0.28176   0.40903   0.00000  Uiso   1.00
H294   H     0.34684   0.21845   0.40896   0.00000  Uiso   1.00
H295   H     0.34692   0.28176   0.59097   0.00000  Uiso   1.00
H296   H     0.15316   0.21845   0.59104   0.00000  Uiso   1.00
H297   H     0.28783   0.37842   0.56677   0.00000  Uiso   1.00
H298   H     0.31283   0.12150   0.53601   0.00000  Uiso   1.00
H299   H     0.21217   0.37842   0.43323   0.00000  Uiso   1.00
H300   H     0.02840   0.28111   0.42679   0.00000  Uiso   1.00
H301   H     0.47153   0.21893   0.42679   0.00000  Uiso   1.00
H302   H     0.47160   0.28111   0.57321   0.00000  Uiso   1.00
H303   H     0.02847   0.21893   0.57321   0.00000  Uiso   1.00
H304   H     0.18531   0.03492   0.46416   0.00000  Uiso   1.00
N305   N     0.25000   0.12624   0.50000   0.00000  Uiso   1.00
N306   N     0.25000   0.37377   0.50000   0.00000  Uiso   1.00
O307   O     0.18453   0.28974   0.50000   0.00000  Uiso   1.00
O308   O     0.40339   0.20003   0.37625   0.00000  Uiso   1.00
O309   O     0.40351   0.30008   0.62373   0.00000  Uiso   1.00
O310   O     0.09661   0.20003   0.62375   0.00000  Uiso   1.00
O311   O     0.31547   0.21026   0.50000   0.00000  Uiso   1.00
O312   O     0.31547   0.28974   0.50000   0.00000  Uiso   1.00
O313   O     0.18453   0.21026   0.50000   0.00000  Uiso   1.00
O314   O     0.25000   0.28973   0.42845   0.00000  Uiso   1.00
O315   O     0.25000   0.21027   0.57155   0.00000  Uiso   1.00
O316   O     0.25000   0.28973   0.57155   0.00000  Uiso   1.00
O317   O     0.25000   0.21027   0.42845   0.00000  Uiso   1.00
O318   O     0.09649   0.30007   0.37627   0.00000  Uiso   1.00
Zn319  Zn    0.25000   0.30307   0.50000   0.00000  Uiso   1.00
Zn320  Zn    0.25000   0.19693   0.50000   0.00000  Uiso   1.00
C321   C     0.66411   0.25000   0.49999   0.00000  Uiso   1.00
C322   C     0.72856   0.44735   0.46189   0.00000  Uiso   1.00
C323   C     0.74998   0.25000   0.40620   0.00000  Uiso   1.00
C324   C     0.75002   0.25000   0.59380   0.00000  Uiso   1.00
C325   C     0.75000   0.02667   0.50000   0.00000  Uiso   1.00
C326   C     0.75000   0.47330   0.50000   0.00000  Uiso   1.00
C327   C     0.74999   0.25001   0.35512   0.00000  Uiso   1.00
C328   C     0.75001   0.25001   0.64487   0.00000  Uiso   1.00
C329   C     0.54697   0.26743   0.45845   0.00000  Uiso   1.00
C330   C     0.95299   0.23259   0.45846   0.00000  Uiso   1.00
C331   C     0.95303   0.26743   0.54155   0.00000  Uiso   1.00
C332   C     0.83589   0.25000   0.50001   0.00000  Uiso   1.00
C333   C     0.54701   0.23259   0.54154   0.00000  Uiso   1.00
C334   C     0.59332   0.26721   0.45755   0.00000  Uiso   1.00
C335   C     0.90664   0.23282   0.45755   0.00000  Uiso   1.00
C336   C     0.90668   0.26721   0.54245   0.00000  Uiso   1.00
C337   C     0.59336   0.23282   0.54245   0.00000  Uiso   1.00
C338   C     0.61631   0.25001   0.49999   0.00000  Uiso   1.00
C339   C     0.88369   0.25001   0.50001   0.00000  Uiso   1.00
C340   C     0.52413   0.25001   0.50000   0.00000  Uiso   1.00
C341   C     0.97587   0.25001   0.50000   0.00000  Uiso   1.00
C342   C     0.61706   0.28390   0.41183   0.00000  Uiso   1.00
C343   C     0.71491   0.10221   0.47986   0.00000  Uiso   1.00
C344   C     0.88286   0.21622   0.41180   0.00000  Uiso   1.00
C345   C     0.88294   0.28390   0.58817   0.00000  Uiso   1.00
C346   C     0.61714   0.21622   0.58820   0.00000  Uiso   1.00
C347   C     0.77116   0.39776   0.53730   0.00000  Uiso   1.00
C348   C     0.78509   0.10221   0.52013   0.00000  Uiso   1.00
C349   C     0.72884   0.39776   0.46270   0.00000  Uiso   1.00
C350   C     0.71417   0.05263   0.47962   0.00000  Uiso   1.00
C351   C     0.77144   0.44735   0.53811   0.00000  Uiso   1.00
C352   C     0.78583   0.05263   0.52038   0.00000  Uiso   1.00
H353   H     0.68717   0.12150   0.46399   0.00000  Uiso   1.00
H354   H     0.78786   0.46505   0.56889   0.00000  Uiso   1.00
H355   H     0.81469   0.03492   0.53584   0.00000  Uiso   1.00
H356   H     0.71214   0.46505   0.43111   0.00000  Uiso   1.00
H357   H     0.65308   0.28176   0.40903   0.00000  Uiso   1.00
H358   H     0.84684   0.21845   0.40896   0.00000  Uiso   1.00
H359   H     0.84692   0.28176   0.59097   0.00000  Uiso   1.00
H360   H     0.65316   0.21845   0.59104   0.00000  Uiso   1.00
H361   H     0.78783   0.37842   0.56677   0.00000  Uiso   1.00
H362   H     0.81283   0.12150   0.53601   0.00000  Uiso   1.00
H363   H     0.71217   0.37842   0.43323   0.00000  Uiso   1.00
H364   H     0.52840   0.28111   0.42679   0.00000  Uiso   1.00
H365   H     0.97153   0.21893   0.42679   0.00000  Uiso   1.00
H366   H     0.97160   0.28111   0.57321   0.00000  Uiso   1.00
H367   H     0.52847   0.21893   0.57321   0.00000  Uiso   1.00
H368   H     0.68531   0.03492   0.46416   0.00000  Uiso   1.00
N369   N     0.75000   0.12624   0.50000   0.00000  Uiso   1.00
N370   N     0.75000   0.37377   0.50000   0.00000  Uiso   1.00
O371   O     0.68453   0.28974   0.50000   0.00000  Uiso   1.00
O372   O     0.90339   0.20003   0.37625   0.00000  Uiso   1.00
O373   O     0.90351   0.30008   0.62373   0.00000  Uiso   1.00
O374   O     0.59661   0.20003   0.62375   0.00000  Uiso   1.00
O375   O     0.81547   0.21026   0.50000   0.00000  Uiso   1.00
O376   O     0.81547   0.28974   0.50000   0.00000  Uiso   1.00
O377   O     0.68453   0.21026   0.50000   0.00000  Uiso   1.00
O378   O     0.75000   0.28973   0.42845   0.00000  Uiso   1.00
O379   O     0.75000   0.21027   0.57155   0.00000  Uiso   1.00
O380   O     0.75000   0.28973   0.57155   0.00000  Uiso   1.00
O381   O     0.75000   0.21027   0.42845   0.00000  Uiso   1.00
O382   O     0.59649   0.30007   0.37627   0.00000  Uiso   1.00
Zn383  Zn    0.75000   0.30307   0.50000   0.00000  Uiso   1.00
Zn384  Zn    0.75000   0.19693   0.50000   0.00000  Uiso   1.00
C385   C     0.16411   0.75000   0.49999   0.00000  Uiso   1.00
C386   C     0.22856   0.94735   0.46189   0.00000  Uiso   1.00
C387   C     0.24998   0.75000   0.40620   0.00000  Uiso   1.00
C388   C     0.25002   0.75000   0.59380   0.00000  Uiso   1.00
C389   C     0.25000   0.52667   0.50000   0.00000  Uiso   1.00
C390   C     0.25000   0.97330   0.50000   0.00000  Uiso   1.00
C391   C     0.24999   0.75001   0.35512   0.00000  Uiso   1.00
C392   C     0.25001   0.75001   0.64487   0.00000  Uiso   1.00
C393   C     0.04697   0.76743   0.45845   0.00000  Uiso   1.00
C394   C     0.45299   0.73259   0.45846   0.00000  Uiso   1.00
C395   C     0.45303   0.76743   0.54155   0.00000  Uiso   1.00
C396   C     0.33589   0.75000   0.50001   0.00000  Uiso   1.00
C397   C     0.04701   0.73259   0.54154   0.00000  Uiso   1.00
C398   C     0.09332   0.76721   0.45755   0.00000  Uiso   1.00
C399   C     0.40664   0.73282   0.45755   0.00000  Uiso   1.00
C400   C     0.40668   0.76721   0.54245   0.00000  Uiso   1.00
C401   C     0.09336   0.73282   0.54245   0.00000  Uiso   1.00
C402   C     0.11631   0.75001   0.49999   0.00000  Uiso   1.00
C403   C     0.38369   0.75001   0.50001   0.00000  Uiso   1.00
C404   C     0.02413   0.75001   0.50000   0.00000  Uiso   1.00
C405   C     0.47587   0.75001   0.50000   0.00000  Uiso   1.00
C406   C     0.11706   0.78390   0.41183   0.00000  Uiso   1.00
C407   C     0.21491   0.60221   0.47986   0.00000  Uiso   1.00
C408   C     0.38286   0.71622   0.41180   0.00000  Uiso   1.00
C409   C     0.38294   0.78390   0.58817   0.00000  Uiso   1.00
C410   C     0.11714   0.71622   0.58820   0.00000  Uiso   1.00
C411   C     0.27116   0.89776   0.53730   0.00000  Uiso   1.00
C412   C     0.28509   0.60221   0.52013   0.00000  Uiso   1.00
C413   C     0.22884   0.89776   0.46270   0.00000  Uiso   1.00
C414   C     0.21417   0.55263   0.47962   0.00000  Uiso   1.00
C415   C     0.27144   0.94735   0.53811   0.00000  Uiso   1.00
C416   C     0.28583   0.55263   0.52038   0.00000  Uiso   1.00
H417   H     0.18717   0.62150   0.46399   0.00000  Uiso   1.00
H418   H     0.28786   0.96505   0.56889   0.00000  Uiso   1.00
H419   H     0.31469   0.53492   0.53584   0.00000  Uiso   1.00
H420   H     0.21214   0.96505   0.43111   0.00000  Uiso   1.00
H421   H     0.15308   0.78176   0.40903   0.00000  Uiso   1.00
H422   H     0.34684   0.71845   0.40896   0.00000  Uiso   1.00
H423   H     0.34692   0.78176   0.59097   0.00000  Uiso   1.00
H424   H     0.15316   0.71845   0.59104   0.00000  Uiso   1.00
H425   H     0.28783   0.87842   0.56677   0.00000  Uiso   1.00
H426   H     0.31283   0.62150   0.53601   0.00000  Uiso   1.00
H427   H     0.21217   0.87842   0.43323   0.00000  Uiso   1.00
H428   H     0.02840   0.78111   0.42679   0.00000  Uiso   1.00
H429   H     0.47153   0.71893   0.42679   0.00000  Uiso   1.00
H430   H     0.47160   0.78111   0.57321   0.00000  Uiso   1.00
H431   H     0.02847   0.71893   0.57321   0.00000  Uiso   1.00
H432   H     0.18531   0.53492   0.46416   0.00000  Uiso   1.00
N433   N     0.25000   0.62624   0.50000   0.00000  Uiso   1.00
N434   N     0.25000   0.87377   0.50000   0.00000  Uiso   1.00
O435   O     0.18453   0.78974   0.50000   0.00000  Uiso   1.00
O436   O     0.40339   0.70003   0.37625   0.00000  Uiso   1.00
O437   O     0.40351   0.80008   0.62373   0.00000  Uiso   1.00
O438   O     0.09661   0.70003   0.62375   0.00000  Uiso   1.00
O439   O     0.31547   0.71026   0.50000   0.00000  Uiso   1.00
O440   O     0.31547   0.78974   0.50000   0.00000  Uiso   1.00
O441   O     0.18453   0.71026   0.50000   0.00000  Uiso   1.00
O442   O     0.25000   0.78973   0.42845   0.00000  Uiso   1.00
O443   O     0.25000   0.71027   0.57155   0.00000  Uiso   1.00
O444   O     0.25000   0.78973   0.57155   0.00000  Uiso   1.00
O445   O     0.25000   0.71027   0.42845   0.00000  Uiso   1.00
O446   O     0.09649   0.80007   0.37627   0.00000  Uiso   1.00
Zn447  Zn    0.25000   0.80307   0.50000   0.00000  Uiso   1.00
Zn448  Zn    0.25000   0.69693   0.50000   0.00000  Uiso   1.00
C449   C     0.66411   0.75000   0.49999   0.00000  Uiso   1.00
C450   C     0.72856   0.94735   0.46189   0.00000  Uiso   1.00
C451   C     0.74998   0.75000   0.40620   0.00000  Uiso   1.00
C452   C     0.75002   0.75000   0.59380   0.00000  Uiso   1.00
C453   C     0.75000   0.52667   0.50000   0.00000  Uiso   1.00
C454   C     0.75000   0.97330   0.50000   0.00000  Uiso   1.00
C455   C     0.74999   0.75001   0.35512   0.00000  Uiso   1.00
C456   C     0.75001   0.75001   0.64487   0.00000  Uiso   1.00
C457   C     0.54697   0.76743   0.45845   0.00000  Uiso   1.00
C458   C     0.95299   0.73259   0.45846   0.00000  Uiso   1.00
C459   C     0.95303   0.76743   0.54155   0.00000  Uiso   1.00
C460   C     0.83589   0.75000   0.50001   0.00000  Uiso   1.00
C461   C     0.54701   0.73259   0.54154   0.00000  Uiso   1.00
C462   C     0.59332   0.76721   0.45755   0.00000  Uiso   1.00
C463   C     0.90664   0.73282   0.45755   0.00000  Uiso   1.00
C464   C     0.90668   0.76721   0.54245   0.00000  Uiso   1.00
C465   C     0.59336   0.73282   0.54245   0.00000  Uiso   1.00
C466   C     0.61631   0.75001   0.49999   0.00000  Uiso   1.00
C467   C     0.88369   0.75001   0.50001   0.00000  Uiso   1.00
C468   C     0.52413   0.75001   0.50000   0.00000  Uiso   1.00
C469   C     0.97587   0.75001   0.50000   0.00000  Uiso   1.00
C470   C     0.61706   0.78390   0.41183   0.00000  Uiso   1.00
C471   C     0.71491   0.60221   0.47986   0.00000  Uiso   1.00
C472   C     0.88286   0.71622   0.41180   0.00000  Uiso   1.00
C473   C     0.88294   0.78390   0.58817   0.00000  Uiso   1.00
C474   C     0.61714   0.71622   0.58820   0.00000  Uiso   1.00
C475   C     0.77116   0.89776   0.53730   0.00000  Uiso   1.00
C476   C     0.78509   0.60221   0.52013   0.00000  Uiso   1.00
C477   C     0.72884   0.89776   0.46270   0.00000  Uiso   1.00
C478   C     0.71417   0.55263   0.47962   0.00000  Uiso   1.00
C479   C     0.77144   0.94735   0.53811   0.00000  Uiso   1.00
C480   C     0.78583   0.55263   0.52038   0.00000  Uiso   1.00
H481   H     0.68717   0.62150   0.46399   0.00000  Uiso   1.00
H482   H     0.78786   0.96505   0.56889   0.00000  Uiso   1.00
H483   H     0.81469   0.53492   0.53584   0.00000  Uiso   1.00
H484   H     0.71214   0.96505   0.43111   0.00000  Uiso   1.00
H485   H     0.65308   0.78176   0.40903   0.00000  Uiso   1.00
H486   H     0.84684   0.71845   0.40896   0.00000  Uiso   1.00
H487   H     0.84692   0.78176   0.59097   0.00000  Uiso   1.00
H488   H     0.65316   0.71845   0.59104   0.00000  Uiso   1.00
H489   H     0.78783   0.87842   0.56677   0.00000  Uiso   1.00
H490   H     0.81283   0.62150   0.53601   0.00000  Uiso   1.00
H491   H     0.71217   0.87842   0.43323   0.00000  Uiso   1.00
H492   H     0.52840   0.78111   0.42679   0.00000  Uiso   1.00
H493   H     0.97153   0.71893   0.42679   0.00000  Uiso   1.00
H494   H     0.97160   0.78111   0.57321   0.00000  Uiso   1.00
H495   H     0.52847   0.71893   0.57321   0.00000  Uiso   1.00
H496   H     0.68531   0.53492   0.46416   0.00000  Uiso   1.00
N497   N     0.75000   0.62624   0.50000   0.00000  Uiso   1.00
N498   N     0.75000   0.87377   0.50000   0.00000  Uiso   1.00
O499   O     0.68453   0.78974   0.50000   0.00000  Uiso   1.00
O500   O     0.90339   0.70003   0.37625   0.00000  Uiso   1.00
O501   O     0.90351   0.80008   0.62373   0.00000  Uiso   1.00
O502   O     0.59661   0.70003   0.62375   0.00000  Uiso   1.00
O503   O     0.81547   0.71026   0.50000   0.00000  Uiso   1.00
O504   O     0.81547   0.78974   0.50000   0.00000  Uiso   1.00
O505   O     0.68453   0.71026   0.50000   0.00000  Uiso   1.00
O506   O     0.75000   0.78973   0.42845   0.00000  Uiso   1.00
O507   O     0.75000   0.71027   0.57155   0.00000  Uiso   1.00
O508   O     0.75000   0.78973   0.57155   0.00000  Uiso   1.00
O509   O     0.75000   0.71027   0.42845   0.00000  Uiso   1.00
O510   O     0.59649   0.80007   0.37627   0.00000  Uiso   1.00
Zn511  Zn    0.75000   0.80307   0.50000   0.00000  Uiso   1.00
Zn512  Zn    0.75000   0.69693   0.50000   0.00000  Uiso   1.00
C513   C     0.16411   0.25000   0.83333   0.00000  Uiso   1.00
C514   C     0.22856   0.44735   0.79523   0.00000  Uiso   1.00
C515   C     0.24998   0.25000   0.73953   0.00000  Uiso   1.00
C516   C     0.25002   0.25000   0.92714   0.00000  Uiso   1.00
C517   C     0.25000   0.02667   0.83333   0.00000  Uiso   1.00
C518   C     0.25000   0.47330   0.83333   0.00000  Uiso   1.00
C519   C     0.24999   0.25001   0.68846   0.00000  Uiso   1.00
C520   C     0.25001   0.25001   0.97821   0.00000  Uiso   1.00
C521   C     0.04697   0.26743   0.79179   0.00000  Uiso   1.00
C522   C     0.45299   0.23259   0.79179   0.00000  Uiso   1.00
C523   C     0.45303   0.26743   0.87488   0.00000  Uiso   1.00
C524   C     0.33589   0.25000   0.83334   0.00000  Uiso   1.00
C525   C     0.04701   0.23259   0.87487   0.00000  Uiso   1.00
C526   C     0.09332   0.26721   0.79088   0.00000  Uiso   1.00
C527   C     0.40664   0.23282   0.79089   0.00000  Uiso   1.00
C528   C     0.40668   0.26721   0.87578   0.00000  Uiso   1.00
C529   C     0.09336   0.23282   0.87578   0.00000  Uiso   1.00
C530   C     0.11631   0.25001   0.83333   0.00000  Uiso   1.00
C531   C     0.38369   0.25001   0.83334   0.00000  Uiso   1.00
C532   C     0.02413   0.25001   0.83333   0.00000  Uiso   1.00
C533   C     0.47587   0.25001   0.83334   0.00000  Uiso   1.00
C534   C     0.11706   0.28390   0.74517   0.00000  Uiso   1.00
C535   C     0.21491   0.10221   0.81320   0.00000  Uiso   1.00
C536   C     0.38286   0.21622   0.74513   0.00000  Uiso   1.00
C537   C     0.38294   0.28390   0.92150   0.00000  Uiso   1.00
C538   C     0.11714   0.21622   0.92153   0.00000  Uiso   1.00
C539   C     0.27116   0.39776   0.87064   0.00000  Uiso   1.00
C540   C     0.28509   0.10221   0.85347   0.00000  Uiso   1.00
C541   C     0.22884   0.39776   0.79603   0.00000  Uiso   1.00
C542   C     0.21417   0.05263   0.81296   0.00000  Uiso   1.00
C543   C     0.27144   0.44735   0.87144   0.00000  Uiso   1.00
C544   C     0.28583   0.05263   0.85371   0.00000  Uiso   1.00
H545   H     0.18717   0.12150   0.79732   0.00000  Uiso   1.00
H546   H     0.28786   0.46505   0.90223   0.00000  Uiso   1.00
H547   H     0.31469   0.03492   0.86917   0.00000  Uiso   1.00
H548   H     0.21214   0.46505   0.76444   0.00000  Uiso   1.00
H549   H     0.15308   0.28176   0.74237   0.00000  Uiso   1.00
H550   H     0.34684   0.21845   0.74230   0.00000  Uiso   1.00
H551   H     0.34692   0.28176   0.92430   0.00000  Uiso   1.00
H552   H     0.15316   0.21845   0.92437   0.00000  Uiso   1.00
H553   H     0.28783   0.37842   0.90011   0.00000  Uiso   1.00
H554   H     0.31283   0.12150   0.86935   0.00000  Uiso   1.00
H555   H     0.21217   0.37842   0.76656   0.00000  Uiso   1.00
H556   H     0.02840   0.28111   0.76013   0.00000  Uiso   1.00
H557   H     0.47153   0.21893   0.76013   0.00000  Uiso   1.00
H558   H     0.47160   0.28111   0.90654   0.00000  Uiso   1.00
H559   H     0.02847   0.21893   0.90654   0.00000  Uiso   1.00
H560   H     0.18531   0.03492   0.79750   0.00000  Uiso   1.00
N561   N     0.25000   0.12624   0.83333   0.00000  Uiso   1.00
N562   N     0.25000   0.37377   0.83333   0.00000  Uiso   1.00
O563   O     0.18453   0.28974   0.83334   0.00000  Uiso   1.00
O564   O     0.40339   0.20003   0.70958   0.00000  Uiso   1.00
O565   O     0.40351   0.30008   0.95706   0.00000  Uiso   1.00
O566   O     0.09661   0.20003   0.95709   0.00000  Uiso   1.00
O567   O     0.31547   0.21026   0.83333   0.00000  Uiso   1.00
O568   O     0.31547   0.28974   0.83333   0.00000  Uiso   1.00
O569   O     0.18453   0.21026   0.83334   0.00000  Uiso   1.00
O570   O     0.25000   0.28973   0.76178   0.00000  Uiso   1.00
O571   O     0.25000   0.21027   0.90489   0.00000  Uiso   1.00
O572   O     0.25000   0.28973   0.90489   0.00000  Uiso   1.00
O573   O     0.25000   0.21027   0.76178   0.00000  Uiso   1.00
O574   O     0.09649   0.30007   0.70961   0.00000  Uiso   1.00
Zn575  Zn    0.25000   0.30307   0.83333   0.00000  Uiso   1.00
Zn576  Zn    0.25000   0.19693   0.83333   0.00000  Uiso   1.00
C577   C     0.66411   0.25000   0.83333   0.00000  Uiso   1.00
C578   C     0.72856   0.44735   0.79523   0.00000  Uiso   1.00
C579   C     0.74998   0.25000   0.73953   0.00000  Uiso   1.00
C580   C     0.75002   0.25000   0.92714   0.00000  Uiso   1.00
C581   C     0.75000   0.02667   0.83333   0.00000  Uiso   1.00
C582   C     0.75000   0.47330   0.83333   0.00000  Uiso   1.00
C583   C     0.74999   0.25001   0.68846   0.00000  Uiso   1.00
C584   C     0.75001   0.25001   0.97821   0.00000  Uiso   1.00
C585   C     0.54697   0.26743   0.79179   0.00000  Uiso   1.00
C586   C     0.95299   0.23259   0.79179   0.00000  Uiso   1.00
C587   C     0.95303   0.26743   0.87488   0.00000  Uiso   1.00
C588   C     0.83589   0.25000   0.83334   0.00000  Uiso   1.00
C589   C     0.54701   0.23259   0.87487   0.00000  Uiso   1.00
C590   C     0.59332   0.26721   0.79088   0.00000  Uiso   1.00
C591   C     0.90664   0.23282   0.79089   0.00000  Uiso   1.00
C592   C     0.90668   0.26721   0.87578   0.00000  Uiso   1.00
C593   C     0.59336   0.23282   0.87578   0.00000  Uiso   1.00
C594   C     0.61631   0.25001   0.83333   0.00000  Uiso   1.00
C595   C     0.88369   0.25001   0.83334   0.00000  Uiso   1.00
C596   C     0.52413   0.25001   0.83333   0.00000  Uiso   1.00
C597   C     0.97587   0.25001   0.83334   0.00000  Uiso   1.00
C598   C     0.61706   0.28390   0.74517   0.00000  Uiso   1.00
C599   C     0.71491   0.10221   0.81320   0.00000  Uiso   1.00
C600   C     0.88286   0.21622   0.74513   0.00000  Uiso   1.00
C601   C     0.88294   0.28390   0.92150   0.00000  Uiso   1.00
C602   C     0.61714   0.21622   0.92153   0.00000  Uiso   1.00
C603   C     0.77116   0.39776   0.87064   0.00000  Uiso   1.00
C604   C     0.78509   0.10221   0.85347   0.00000  Uiso   1.00
C605   C     0.72884   0.39776   0.79603   0.00000  Uiso   1.00
C606   C     0.71417   0.05263   0.81296   0.00000  Uiso   1.00
C607   C     0.77144   0.44735   0.87144   0.00000  Uiso   1.00
C608   C     0.78583   0.05263   0.85371   0.00000  Uiso   1.00
H609   H     0.68717   0.12150   0.79732   0.00000  Uiso   1.00
H610   H     0.78786   0.46505   0.90223   0.00000  Uiso   1.00
H611   H     0.81469   0.03492   0.86917   0.00000  Uiso   1.00
H612   H     0.71214   0.46505   0.76444   0.00000  Uiso   1.00
H613   H     0.65308   0.28176   0.74237   0.00000  Uiso   1.00
H614   H     0.84684   0.21845   0.74230   0.00000  Uiso   1.00
H615   H     0.84692   0.28176   0.92430   0.00000  Uiso   1.00
H616   H     0.65316   0.21845   0.92437   0.00000  Uiso   1.00
H617   H     0.78783   0.37842   0.90011   0.00000  Uiso   1.00
H618   H     0.81283   0.12150   0.86935   0.00000  Uiso   1.00
H619   H     0.71217   0.37842   0.76656   0.00000  Uiso   1.00
H620   H     0.52840   0.28111   0.76013   0.00000  Uiso   1.00
H621   H     0.97153   0.21893   0.76013   0.00000  Uiso   1.00
H622   H     0.97160   0.28111   0.90654   0.00000  Uiso   1.00
H623   H     0.52847   0.21893   0.90654   0.00000  Uiso   1.00
H624   H     0.68531   0.03492   0.79750   0.00000  Uiso   1.00
N625   N     0.75000   0.12624   0.83333   0.00000  Uiso   1.00
N626   N     0.75000   0.37377   0.83333   0.00000  Uiso   1.00
O627   O     0.68453   0.28974   0.83334   0.00000  Uiso   1.00
O628   O     0.90339   0.20003   0.70958   0.00000  Uiso   1.00
O629   O     0.90351   0.30008   0.95706   0.00000  Uiso   1.00
O630   O     0.59661   0.20003   0.95709   0.00000  Uiso   1.00
O631   O     0.81547   0.21026   0.83333   0.00000  Uiso   1.00
O632   O     0.81547   0.28974   0.83333   0.00000  Uiso   1.00
O633   O     0.68453   0.21026   0.83334   0.00000  Uiso   1.00
O634   O     0.75000   0.28973   0.76178   0.00000  Uiso   1.00
O635   O     0.75000   0.21027   0.90489   0.00000  Uiso   1.00
O636   O     0.75000   0.28973   0.90489   0.00000  Uiso   1.00
O637   O     0.75000   0.21027   0.76178   0.00000  Uiso   1.00
O638   O     0.59649   0.30007   0.70961   0.00000  Uiso   1.00
Zn639  Zn    0.75000   0.30307   0.83333   0.00000  Uiso   1.00
Zn640  Zn    0.75000   0.19693   0.83333   0.00000  Uiso   1.00
C641   C     0.16411   0.75000   0.83333   0.00000  Uiso   1.00
C642   C     0.22856   0.94735   0.79523   0.00000  Uiso   1.00
C643   C     0.24998   0.75000   0.73953   0.00000  Uiso   1.00
C644   C     0.25002   0.75000   0.92714   0.00000  Uiso   1.00
C645   C     0.25000   0.52667   0.83333   0.00000  Uiso   1.00
C646   C     0.25000   0.97330   0.83333   0.00000  Uiso   1.00
C647   C     0.24999   0.75001   0.68846   0.00000  Uiso   1.00
C648   C     0.25001   0.75001   0.97821   0.00000  Uiso   1.00
C649   C     0.04697   0.76743   0.79179   0.00000  Uiso   1.00
C650   C     0.45299   0.73259   0.79179   0.00000  Uiso   1.00
C651   C     0.45303   0.76743   0.87488   0.00000  Uiso   1.00
C652   C     0.33589   0.75000   0.83334   0.00000  Uiso   1.00
C653   C     0.04701   0.73259   0.87487   0.00000  Uiso   1.00
C654   C     0.09332   0.76721   0.79088   0.00000  Uiso   1.00
C655   C     0.40664   0.73282   0.79089   0.00000  Uiso   1.00
C656   C     0.40668   0.76721   0.87578   0.00000  Uiso   1.00
C657   C     0.09336   0.73282   0.87578   0.00000  Uiso   1.00
C658   C     0.11631   0.75001   0.83333   0.00000  Uiso   1.00
C659   C     0.38369   0.75001   0.83334   0.00000  Uiso   1.00
C660   C     0.02413   0.75001   0.83333   0.00000  Uiso   1.00
C661   C     0.47587   0.75001   0.83334   0.00000  Uiso   1.00
C662   C     0.11706   0.78390   0.74517   0.00000  Uiso   1.00
C663   C     0.21491   0.60221   0.81320   0.00000  Uiso   1.00
C664   C     0.38286   0.71622   0.74513   0.00000  Uiso   1.00
C665   C     0.38294   0.78390   0.92150   0.00000  Uiso   1.00
C666   C     0.11714   0.71622   0.92153   0.00000  Uiso   1.00
C667   C     0.27116   0.89776   0.87064   0.00000  Uiso   1.00
C668   C     0.28509   0.60221   0.85347   0.00000  Uiso   1.00
C669   C     0.22884   0.89776   0.79603   0.00000  Uiso   1.00
C670   C     0.21417   0.55263   0.81296   0.00000  Uiso   1.00
C671   C     0.27144   0.94735   0.87144   0.00000  Uiso   1.00
C672   C     0.28583   0.55263   0.85371   0.00000  Uiso   1.00
H673   H     0.18717   0.62150   0.79732   0.00000  Uiso   1.00
H674   H     0.28786   0.96505   0.90223   0.00000  Uiso   1.00
H675   H     0.31469   0.53492   0.86917   0.00000  Uiso   1.00
H676   H     0.21214   0.96505   0.76444   0.00000  Uiso   1.00
H677   H     0.15308   0.78176   0.74237   0.00000  Uiso   1.00
H678   H     0.34684   0.71845   0.74230   0.00000  Uiso   1.00
H679   H     0.34692   0.78176   0.92430   0.00000  Uiso   1.00
H680   H     0.15316   0.71845   0.92437   0.00000  Uiso   1.00
H681   H     0.28783   0.87842   0.90011   0.00000  Uiso   1.00
H682   H     0.31283   0.62150   0.86935   0.00000  Uiso   1.00
H683   H     0.21217   0.87842   0.76656   0.00000  Uiso   1.00
H684   H     0.02840   0.78111   0.76013   0.00000  Uiso   1.00
H685   H     0.47153   0.71893   0.76013   0.00000  Uiso   1.00
H686   H     0.47160   0.78111   0.90654   0.00000  Uiso   1.00
H687   H     0.02847   0.71893   0.90654   0.00000  Uiso   1.00
H688   H     0.18531   0.53492   0.79750   0.00000  Uiso   1.00
N689   N     0.25000   0.62624   0.83333   0.00000  Uiso   1.00
N690   N     0.25000   0.87377   0.83333   0.00000  Uiso   1.00
O691   O     0.18453   0.78974   0.83334   0.00000  Uiso   1.00
O692   O     0.40339   0.70003   0.70958   0.00000  Uiso   1.00
O693   O     0.40351   0.80008   0.95706   0.00000  Uiso   1.00
O694   O     0.09661   0.70003   0.95709   0.00000  Uiso   1.00
O695   O     0.31547   0.71026   0.83333   0.00000  Uiso   1.00
O696   O     0.31547   0.78974   0.83333   0.00000  Uiso   1.00
O697   O     0.18453   0.71026   0.83334   0.00000  Uiso   1.00
O698   O     0.25000   0.78973   0.76178   0.00000  Uiso   1.00
O699   O     0.25000   0.71027   0.90489   0.00000  Uiso   1.00
O700   O     0.25000   0.78973   0.90489   0.00000  Uiso   1.00
O701   O     0.25000   0.71027   0.76178   0.00000  Uiso   1.00
O702   O     0.09649   0.80007   0.70961   0.00000  Uiso   1.00
Zn703  Zn    0.25000   0.80307   0.83333   0.00000  Uiso   1.00
Zn704  Zn    0.25000   0.69693   0.83333   0.00000  Uiso   1.00
C705   C     0.66411   0.75000   0.83333   0.00000  Uiso   1.00
C706   C     0.72856   0.94735   0.79523   0.00000  Uiso   1.00
C707   C     0.74998   0.75000   0.73953   0.00000  Uiso   1.00
C708   C     0.75002   0.75000   0.92714   0.00000  Uiso   1.00
C709   C     0.75000   0.52667   0.83333   0.00000  Uiso   1.00
C710   C     0.75000   0.97330   0.83333   0.00000  Uiso   1.00
C711   C     0.74999   0.75001   0.68846   0.00000  Uiso   1.00
C712   C     0.75001   0.75001   0.97821   0.00000  Uiso   1.00
C713   C     0.54697   0.76743   0.79179   0.00000  Uiso   1.00
C714   C     0.95299   0.73259   0.79179   0.00000  Uiso   1.00
C715   C     0.95303   0.76743   0.87488   0.00000  Uiso   1.00
C716   C     0.83589   0.75000   0.83334   0.00000  Uiso   1.00
C717   C     0.54701   0.73259   0.87487   0.00000  Uiso   1.00
C718   C     0.59332   0.76721   0.79088   0.00000  Uiso   1.00
C719   C     0.90664   0.73282   0.79089   0.00000  Uiso   1.00
C720   C     0.90668   0.76721   0.87578   0.00000  Uiso   1.00
C721   C     0.59336   0.73282   0.87578   0.00000  Uiso   1.00
C722   C     0.61631   0.75001   0.83333   0.00000  Uiso   1.00
C723   C     0.88369   0.75001   0.83334   0.00000  Uiso   1.00
C724   C     0.52413   0.75001   0.83333   0.00000  Uiso   1.00
C725   C     0.97587   0.75001   0.83334   0.00000  Uiso   1.00
C726   C     0.61706   0.78390   0.74517   0.00000  Uiso   1.00
C727   C     0.71491   0.60221   0.81320   0.00000  Uiso   1.00
C728   C     0.88286   0.71622   0.74513   0.00000  Uiso   1.00
C729   C     0.88294   0.78390   0.92150   0.00000  Uiso   1.00
C730   C     0.61714   0.71622   0.92153   0.00000  Uiso   1.00
C731   C     0.77116   0.89776   0.87064   0.00000  Uiso   1.00
C732   C     0.78509   0.60221   0.85347   0.00000  Uiso   1.00
C733   C     0.72884   0.89776   0.79603   0.00000  Uiso   1.00
C734   C     0.71417   0.55263   0.81296   0.00000  Uiso   1.00
C735   C     0.77144   0.94735   0.87144   0.00000  Uiso   1.00
C736   C     0.78583   0.55263   0.85371   0.00000  Uiso   1.00
H737   H     0.68717   0.62150   0.79732   0.00000  Uiso   1.00
H738   H     0.78786   0.96505   0.90223   0.00000  Uiso   1.00
H739   H     0.81469   0.53492   0.86917   0.00000  Uiso   1.00
H740   H     0.71214   0.96505   0.76444   0.00000  Uiso   1.00
H741   H     0.65308   0.78176   0.74237   0.00000  Uiso   1.00
H742   H     0.84684   0.71845   0.74230   0.00000  Uiso   1.00
H743   H     0.84692   0.78176   0.92430   0.00000  Uiso   1.00
H744   H     0.65316   0.71845   0.92437   0.00000  Uiso   1.00
H745   H     0.78783   0.87842   0.90011   0.00000  Uiso   1.00
H746   H     0.81283   0.62150   0.86935   0.00000  Uiso   1.00
H747   H     0.71217   0.87842   0.76656   0.00000  Uiso   1.00
H748   H     0.52840   0.78111   0.76013   0.00000  Uiso   1.00
H749   H     0.97153   0.71893   0.76013   0.00000  Uiso   1.00
H750   H     0.97160   0.78111   0.90654   0.00000  Uiso   1.00
H751   H     0.52847   0.71893   0.90654   0.00000  Uiso   1.00
H752   H     0.68531   0.53492   0.79750   0.00000  Uiso   1.00
N753   N     0.75000   0.62624   0.83333   0.00000  Uiso   1.00
N754   N     0.75000   0.87377   0.83333   0.00000  Uiso   1.00
O755   O     0.68453   0.78974   0.83334   0.00000  Uiso   1.00
O756   O     0.90339   0.70003   0.70958   0.00000  Uiso   1.00
O757   O     0.90351   0.80008   0.95706   0.00000  Uiso   1.00
O758   O     0.59661   0.70003   0.95709   0.00000  Uiso   1.00
O759   O     0.81547   0.71026   0.83333   0.00000  Uiso   1.00
O760   O     0.81547   0.78974   0.83333   0.00000  Uiso   1.00
O761   O     0.68453   0.71026   0.83334   0.00000  Uiso   1.00
O762   O     0.75000   0.78973   0.76178   0.00000  Uiso   1.00
O763   O     0.75000   0.71027   0.90489   0.00000  Uiso   1.00
O764   O     0.75000   0.78973   0.90489   0.00000  Uiso   1.00
O765   O     0.75000   0.71027   0.76178   0.00000  Uiso   1.00
O766   O     0.59649   0.80007   0.70961   0.00000  Uiso   1.00
Zn767  Zn    0.75000   0.80307   0.83333   0.00000  Uiso   1.00
Zn768  Zn    0.75000   0.69693   0.83333   0.00000  Uiso   1.00
loop_
_geom_bond_atom_site_label_1
_geom_bond_atom_site_label_2
_geom_bond_distance
_geom_bond_site_symmetry_2
_ccdc_geom_bond_type
C1     O57     1.283   .     A
C1     C18     1.432   .     S
C1     O51     1.283   .     A
C2     C6      1.411   .     A
C2     C29     1.408   .     A
C2     H36     1.082   .     S
C3     O58     1.275   .     A
C3     O61     1.275   .     A
C3     C7      1.364   .     S
C4     O60     1.275   .     A
C4     C8      1.364   .     S
C4     O59     1.275   .     A
C5     C32     1.411   .     A
C5     C30     1.411   .     A
C5     C134    1.515   1_545 S
C6     C31     1.411   .     A
C6     C133    1.515   .     S
C7     C520    1.164   1_554 S
C8     C263    1.164   .     S
C9     C14     1.389   .     A
C9     C20     1.395   .     A
C9     H44     1.084   .     S
C10    H45     1.084   .     S
C10    C21     1.395   .     A
C10    C15     1.389   .     A
C11    C16     1.389   .     A
C11    H46     1.084   .     S
C11    C21     1.395   .     A
C12    O56     1.283   .     A
C12    C19     1.432   .     S
C12    O55     1.283   .     A
C13    C17     1.389   .     A
C13    H47     1.084   .     S
C13    C20     1.395   .     A
C14    C22     1.491   .     S
C14    C18     1.413   .     A
C15    C19     1.413   .     A
C15    C24     1.491   .     S
C16    C19     1.413   .     A
C16    C25     1.491   .     S
C17    C26     1.491   .     S
C17    C18     1.413   .     A
C20    C85     1.446   1_455 S
C21    C84     1.446   .     S
C22    O62     1.221   .     D
C22    H37     1.083   .     S
C23    N49     1.363   .     A
C23    C30     1.408   .     A
C23    H33     1.081   .     S
C24    O52     1.221   .     D
C24    H38     1.083   .     S
C25    H39     1.083   .     S
C25    O53     1.221   .     D
C26    H40     1.083   .     S
C26    O54     1.221   .     D
C27    H41     1.082   .     S
C27    N50     1.363   .     A
C27    C31     1.408   .     A
C28    N49     1.363   .     A
C28    C32     1.408   .     A
C28    H42     1.081   .     S
C29    N50     1.363   .     A
C29    H43     1.082   .     S
C30    H48     1.082   .     S
C31    H34     1.082   .     S
C32    H35     1.082   .     S
N49    Zn64    2.007   .     S
N50    Zn63    2.007   .     S
O51    Zn63    1.997   .     S
O55    Zn64    1.997   .     S
O56    Zn63    1.997   .     S
O57    Zn64    1.997   .     S
O58    Zn63    1.949   .     S
O59    Zn64    1.949   .     S
O60    Zn63    1.949   .     S
O61    Zn64    1.949   .     S
C65    O121    1.283   .     A
C65    C82     1.432   .     S
C65    O115    1.283   .     A
C66    C70     1.411   .     A
C66    C93     1.408   .     A
C66    H100    1.082   .     S
C67    O122    1.275   .     A
C67    O125    1.275   .     A
C67    C71     1.364   .     S
C68    O124    1.275   .     A
C68    C72     1.364   .     S
C68    O123    1.275   .     A
C69    C96     1.411   .     A
C69    C94     1.411   .     A
C69    C198    1.515   1_545 S
C70    C95     1.411   .     A
C70    C197    1.515   .     S
C71    C584    1.164   1_554 S
C72    C327    1.164   .     S
C73    C78     1.389   .     A
C73    C84     1.395   .     A
C73    H108    1.084   .     S
C74    H109    1.084   .     S
C74    C85     1.395   .     A
C74    C79     1.389   .     A
C75    C80     1.389   .     A
C75    H110    1.084   .     S
C75    C85     1.395   .     A
C76    O120    1.283   .     A
C76    C83     1.432   .     S
C76    O119    1.283   .     A
C77    C81     1.389   .     A
C77    H111    1.084   .     S
C77    C84     1.395   .     A
C78    C86     1.491   .     S
C78    C82     1.413   .     A
C79    C83     1.413   .     A
C79    C88     1.491   .     S
C80    C83     1.413   .     A
C80    C89     1.491   .     S
C81    C90     1.491   .     S
C81    C82     1.413   .     A
C85    C20     1.446   1_655 S
C86    O126    1.221   .     D
C86    H101    1.083   .     S
C87    N113    1.363   .     A
C87    C94     1.408   .     A
C87    H97     1.081   .     S
C88    O116    1.221   .     D
C88    H102    1.083   .     S
C89    H103    1.083   .     S
C89    O117    1.221   .     D
C90    H104    1.083   .     S
C90    O118    1.221   .     D
C91    H105    1.082   .     S
C91    N114    1.363   .     A
C91    C95     1.408   .     A
C92    N113    1.363   .     A
C92    C96     1.408   .     A
C92    H106    1.081   .     S
C93    N114    1.363   .     A
C93    H107    1.082   .     S
C94    H112    1.082   .     S
C95    H98     1.082   .     S
C96    H99     1.082   .     S
N113   Zn128   2.007   .     S
N114   Zn127   2.007   .     S
O115   Zn127   1.997   .     S
O119   Zn128   1.997   .     S
O120   Zn127   1.997   .     S
O121   Zn128   1.997   .     S
O122   Zn127   1.949   .     S
O123   Zn128   1.949   .     S
O124   Zn127   1.949   .     S
O125   Zn128   1.949   .     S
C129   O185    1.283   .     A
C129   C146    1.432   .     S
C129   O179    1.283   .     A
C130   C134    1.411   .     A
C130   C157    1.408   .     A
C130   H164    1.082   .     S
C131   O186    1.275   .     A
C131   O189    1.275   .     A
C131   C135    1.364   .     S
C132   O188    1.275   .     A
C132   C136    1.364   .     S
C132   O187    1.275   .     A
C133   C160    1.411   .     A
C133   C158    1.411   .     A
C134   C159    1.411   .     A
C134   C5      1.515   1_565 S
C135   C648    1.164   1_554 S
C136   C391    1.164   .     S
C137   C142    1.389   .     A
C137   C148    1.395   .     A
C137   H172    1.084   .     S
C138   H173    1.084   .     S
C138   C149    1.395   .     A
C138   C143    1.389   .     A
C139   C144    1.389   .     A
C139   H174    1.084   .     S
C139   C149    1.395   .     A
C140   O184    1.283   .     A
C140   C147    1.432   .     S
C140   O183    1.283   .     A
C141   C145    1.389   .     A
C141   H175    1.084   .     S
C141   C148    1.395   .     A
C142   C150    1.491   .     S
C142   C146    1.413   .     A
C143   C147    1.413   .     A
C143   C152    1.491   .     S
C144   C147    1.413   .     A
C144   C153    1.491   .     S
C145   C154    1.491   .     S
C145   C146    1.413   .     A
C148   C213    1.446   1_455 S
C149   C212    1.446   .     S
C150   O190    1.221   .     D
C150   H165    1.083   .     S
C151   N177    1.363   .     A
C151   C158    1.408   .     A
C151   H161    1.081   .     S
C152   O180    1.221   .     D
C152   H166    1.083   .     S
C153   H167    1.083   .     S
C153   O181    1.221   .     D
C154   H168    1.083   .     S
C154   O182    1.221   .     D
C155   H169    1.082   .     S
C155   N178    1.363   .     A
C155   C159    1.408   .     A
C156   N177    1.363   .     A
C156   C160    1.408   .     A
C156   H170    1.081   .     S
C157   N178    1.363   .     A
C157   H171    1.082   .     S
C158   H176    1.082   .     S
C159   H162    1.082   .     S
C160   H163    1.082   .     S
N177   Zn192   2.007   .     S
N178   Zn191   2.007   .     S
O179   Zn191   1.997   .     S
O183   Zn192   1.997   .     S
O184   Zn191   1.997   .     S
O185   Zn192   1.997   .     S
O186   Zn191   1.949   .     S
O187   Zn192   1.949   .     S
O188   Zn191   1.949   .     S
O189   Zn192   1.949   .     S
C193   O249    1.283   .     A
C193   C210    1.432   .     S
C193   O243    1.283   .     A
C194   C198    1.411   .     A
C194   C221    1.408   .     A
C194   H228    1.082   .     S
C195   O250    1.275   .     A
C195   O253    1.275   .     A
C195   C199    1.364   .     S
C196   O252    1.275   .     A
C196   C200    1.364   .     S
C196   O251    1.275   .     A
C197   C224    1.411   .     A
C197   C222    1.411   .     A
C198   C223    1.411   .     A
C198   C69     1.515   1_565 S
C199   C712    1.164   1_554 S
C200   C455    1.164   .     S
C201   C206    1.389   .     A
C201   C212    1.395   .     A
C201   H236    1.084   .     S
C202   H237    1.084   .     S
C202   C213    1.395   .     A
C202   C207    1.389   .     A
C203   C208    1.389   .     A
C203   H238    1.084   .     S
C203   C213    1.395   .     A
C204   O248    1.283   .     A
C204   C211    1.432   .     S
C204   O247    1.283   .     A
C205   C209    1.389   .     A
C205   H239    1.084   .     S
C205   C212    1.395   .     A
C206   C214    1.491   .     S
C206   C210    1.413   .     A
C207   C211    1.413   .     A
C207   C216    1.491   .     S
C208   C211    1.413   .     A
C208   C217    1.491   .     S
C209   C218    1.491   .     S
C209   C210    1.413   .     A
C213   C148    1.446   1_655 S
C214   O254    1.221   .     D
C214   H229    1.083   .     S
C215   N241    1.363   .     A
C215   C222    1.408   .     A
C215   H225    1.081   .     S
C216   O244    1.221   .     D
C216   H230    1.083   .     S
C217   H231    1.083   .     S
C217   O245    1.221   .     D
C218   H232    1.083   .     S
C218   O246    1.221   .     D
C219   H233    1.082   .     S
C219   N242    1.363   .     A
C219   C223    1.408   .     A
C220   N241    1.363   .     A
C220   C224    1.408   .     A
C220   H234    1.081   .     S
C221   N242    1.363   .     A
C221   H235    1.082   .     S
C222   H240    1.082   .     S
C223   H226    1.082   .     S
C224   H227    1.082   .     S
N241   Zn256   2.007   .     S
N242   Zn255   2.007   .     S
O243   Zn255   1.997   .     S
O247   Zn256   1.997   .     S
O248   Zn255   1.997   .     S
O249   Zn256   1.997   .     S
O250   Zn255   1.949   .     S
O251   Zn256   1.949   .     S
O252   Zn255   1.949   .     S
O253   Zn256   1.949   .     S
C257   O313    1.283   .     A
C257   C274    1.432   .     S
C257   O307    1.283   .     A
C258   C262    1.411   .     A
C258   C285    1.408   .     A
C258   H292    1.082   .     S
C259   O314    1.275   .     A
C259   O317    1.275   .     A
C259   C263    1.364   .     S
C260   O316    1.275   .     A
C260   C264    1.364   .     S
C260   O315    1.275   .     A
C261   C288    1.411   .     A
C261   C286    1.411   .     A
C261   C390    1.515   1_545 S
C262   C287    1.411   .     A
C262   C389    1.515   .     S
C264   C519    1.164   .     S
C265   C270    1.389   .     A
C265   C276    1.395   .     A
C265   H300    1.084   .     S
C266   H301    1.084   .     S
C266   C277    1.395   .     A
C266   C271    1.389   .     A
C267   C272    1.389   .     A
C267   H302    1.084   .     S
C267   C277    1.395   .     A
C268   O312    1.283   .     A
C268   C275    1.432   .     S
C268   O311    1.283   .     A
C269   C273    1.389   .     A
C269   H303    1.084   .     S
C269   C276    1.395   .     A
C270   C278    1.491   .     S
C270   C274    1.413   .     A
C271   C275    1.413   .     A
C271   C280    1.491   .     S
C272   C275    1.413   .     A
C272   C281    1.491   .     S
C273   C282    1.491   .     S
C273   C274    1.413   .     A
C276   C341    1.446   1_455 S
C277   C340    1.446   .     S
C278   O318    1.221   .     D
C278   H293    1.083   .     S
C279   N305    1.363   .     A
C279   C286    1.408   .     A
C279   H289    1.081   .     S
C280   O308    1.221   .     D
C280   H294    1.083   .     S
C281   H295    1.083   .     S
C281   O309    1.221   .     D
C282   H296    1.083   .     S
C282   O310    1.221   .     D
C283   H297    1.082   .     S
C283   N306    1.363   .     A
C283   C287    1.408   .     A
C284   N305    1.363   .     A
C284   C288    1.408   .     A
C284   H298    1.081   .     S
C285   N306    1.363   .     A
C285   H299    1.082   .     S
C286   H304    1.082   .     S
C287   H290    1.082   .     S
C288   H291    1.082   .     S
N305   Zn320   2.007   .     S
N306   Zn319   2.007   .     S
O307   Zn319   1.997   .     S
O311   Zn320   1.997   .     S
O312   Zn319   1.997   .     S
O313   Zn320   1.997   .     S
O314   Zn319   1.949   .     S
O315   Zn320   1.949   .     S
O316   Zn319   1.949   .     S
O317   Zn320   1.949   .     S
C321   O377    1.283   .     A
C321   C338    1.432   .     S
C321   O371    1.283   .     A
C322   C326    1.411   .     A
C322   C349    1.408   .     A
C322   H356    1.082   .     S
C323   O378    1.275   .     A
C323   O381    1.275   .     A
C323   C327    1.364   .     S
C324   O380    1.275   .     A
C324   C328    1.364   .     S
C324   O379    1.275   .     A
C325   C352    1.411   .     A
C325   C350    1.411   .     A
C325   C454    1.515   1_545 S
C326   C351    1.411   .     A
C326   C453    1.515   .     S
C328   C583    1.164   .     S
C329   C334    1.389   .     A
C329   C340    1.395   .     A
C329   H364    1.084   .     S
C330   H365    1.084   .     S
C330   C341    1.395   .     A
C330   C335    1.389   .     A
C331   C336    1.389   .     A
C331   H366    1.084   .     S
C331   C341    1.395   .     A
C332   O376    1.283   .     A
C332   C339    1.432   .     S
C332   O375    1.283   .     A
C333   C337    1.389   .     A
C333   H367    1.084   .     S
C333   C340    1.395   .     A
C334   C342    1.491   .     S
C334   C338    1.413   .     A
C335   C339    1.413   .     A
C335   C344    1.491   .     S
C336   C339    1.413   .     A
C336   C345    1.491   .     S
C337   C346    1.491   .     S
C337   C338    1.413   .     A
C341   C276    1.446   1_655 S
C342   O382    1.221   .     D
C342   H357    1.083   .     S
C343   N369    1.363   .     A
C343   C350    1.408   .     A
C343   H353    1.081   .     S
C344   O372    1.221   .     D
C344   H358    1.083   .     S
C345   H359    1.083   .     S
C345   O373    1.221   .     D
C346   H360    1.083   .     S
C346   O374    1.221   .     D
C347   H361    1.082   .     S
C347   N370    1.363   .     A
C347   C351    1.408   .     A
C348   N369    1.363   .     A
C348   C352    1.408   .     A
C348   H362    1.081   .     S
C349   N370    1.363   .     A
C349   H363    1.082   .     S
C350   H368    1.082   .     S
C351   H354    1.082   .     S
C352   H355    1.082   .     S
N369   Zn384   2.007   .     S
N370   Zn383   2.007   .     S
O371   Zn383   1.997   .     S
O375   Zn384   1.997   .     S
O376   Zn383   1.997   .     S
O377   Zn384   1.997   .     S
O378   Zn383   1.949   .     S
O379   Zn384   1.949   .     S
O380   Zn383   1.949   .     S
O381   Zn384   1.949   .     S
C385   O441    1.283   .     A
C385   C402    1.432   .     S
C385   O435    1.283   .     A
C386   C390    1.411   .     A
C386   C413    1.408   .     A
C386   H420    1.082   .     S
C387   O442    1.275   .     A
C387   O445    1.275   .     A
C387   C391    1.364   .     S
C388   O444    1.275   .     A
C388   C392    1.364   .     S
C388   O443    1.275   .     A
C389   C416    1.411   .     A
C389   C414    1.411   .     A
C390   C415    1.411   .     A
C390   C261    1.515   1_565 S
C392   C647    1.164   .     S
C393   C398    1.389   .     A
C393   C404    1.395   .     A
C393   H428    1.084   .     S
C394   H429    1.084   .     S
C394   C405    1.395   .     A
C394   C399    1.389   .     A
C395   C400    1.389   .     A
C395   H430    1.084   .     S
C395   C405    1.395   .     A
C396   O440    1.283   .     A
C396   C403    1.432   .     S
C396   O439    1.283   .     A
C397   C401    1.389   .     A
C397   H431    1.084   .     S
C397   C404    1.395   .     A
C398   C406    1.491   .     S
C398   C402    1.413   .     A
C399   C403    1.413   .     A
C399   C408    1.491   .     S
C400   C403    1.413   .     A
C400   C409    1.491   .     S
C401   C410    1.491   .     S
C401   C402    1.413   .     A
C404   C469    1.446   1_455 S
C405   C468    1.446   .     S
C406   O446    1.221   .     D
C406   H421    1.083   .     S
C407   N433    1.363   .     A
C407   C414    1.408   .     A
C407   H417    1.081   .     S
C408   O436    1.221   .     D
C408   H422    1.083   .     S
C409   H423    1.083   .     S
C409   O437    1.221   .     D
C410   H424    1.083   .     S
C410   O438    1.221   .     D
C411   H425    1.082   .     S
C411   N434    1.363   .     A
C411   C415    1.408   .     A
C412   N433    1.363   .     A
C412   C416    1.408   .     A
C412   H426    1.081   .     S
C413   N434    1.363   .     A
C413   H427    1.082   .     S
C414   H432    1.082   .     S
C415   H418    1.082   .     S
C416   H419    1.082   .     S
N433   Zn448   2.007   .     S
N434   Zn447   2.007   .     S
O435   Zn447   1.997   .     S
O439   Zn448   1.997   .     S
O440   Zn447   1.997   .     S
O441   Zn448   1.997   .     S
O442   Zn447   1.949   .     S
O443   Zn448   1.949   .     S
O444   Zn447   1.949   .     S
O445   Zn448   1.949   .     S
C449   O505    1.283   .     A
C449   C466    1.432   .     S
C449   O499    1.283   .     A
C450   C454    1.411   .     A
C450   C477    1.408   .     A
C450   H484    1.082   .     S
C451   O506    1.275   .     A
C451   O509    1.275   .     A
C451   C455    1.364   .     S
C452   O508    1.275   .     A
C452   C456    1.364   .     S
C452   O507    1.275   .     A
C453   C480    1.411   .     A
C453   C478    1.411   .     A
C454   C479    1.411   .     A
C454   C325    1.515   1_565 S
C456   C711    1.164   .     S
C457   C462    1.389   .     A
C457   C468    1.395   .     A
C457   H492    1.084   .     S
C458   H493    1.084   .     S
C458   C469    1.395   .     A
C458   C463    1.389   .     A
C459   C464    1.389   .     A
C459   H494    1.084   .     S
C459   C469    1.395   .     A
C460   O504    1.283   .     A
C460   C467    1.432   .     S
C460   O503    1.283   .     A
C461   C465    1.389   .     A
C461   H495    1.084   .     S
C461   C468    1.395   .     A
C462   C470    1.491   .     S
C462   C466    1.413   .     A
C463   C467    1.413   .     A
C463   C472    1.491   .     S
C464   C467    1.413   .     A
C464   C473    1.491   .     S
C465   C474    1.491   .     S
C465   C466    1.413   .     A
C469   C404    1.446   1_655 S
C470   O510    1.221   .     D
C470   H485    1.083   .     S
C471   N497    1.363   .     A
C471   C478    1.408   .     A
C471   H481    1.081   .     S
C472   O500    1.221   .     D
C472   H486    1.083   .     S
C473   H487    1.083   .     S
C473   O501    1.221   .     D
C474   H488    1.083   .     S
C474   O502    1.221   .     D
C475   H489    1.082   .     S
C475   N498    1.363   .     A
C475   C479    1.408   .     A
C476   N497    1.363   .     A
C476   C480    1.408   .     A
C476   H490    1.081   .     S
C477   N498    1.363   .     A
C477   H491    1.082   .     S
C478   H496    1.082   .     S
C479   H482    1.082   .     S
C480   H483    1.082   .     S
N497   Zn512   2.007   .     S
N498   Zn511   2.007   .     S
O499   Zn511   1.997   .     S
O503   Zn512   1.997   .     S
O504   Zn511   1.997   .     S
O505   Zn512   1.997   .     S
O506   Zn511   1.949   .     S
O507   Zn512   1.949   .     S
O508   Zn511   1.949   .     S
O509   Zn512   1.949   .     S
C513   O569    1.283   .     A
C513   C530    1.432   .     S
C513   O563    1.283   .     A
C514   C518    1.411   .     A
C514   C541    1.408   .     A
C514   H548    1.082   .     S
C515   O570    1.275   .     A
C515   O573    1.275   .     A
C515   C519    1.364   .     S
C516   O572    1.275   .     A
C516   C520    1.364   .     S
C516   O571    1.275   .     A
C517   C544    1.411   .     A
C517   C542    1.411   .     A
C517   C646    1.515   1_545 S
C518   C543    1.411   .     A
C518   C645    1.515   .     S
C520   C7      1.164   1_556 S
C521   C526    1.389   .     A
C521   C532    1.395   .     A
C521   H556    1.084   .     S
C522   H557    1.084   .     S
C522   C533    1.395   .     A
C522   C527    1.389   .     A
C523   C528    1.389   .     A
C523   H558    1.084   .     S
C523   C533    1.395   .     A
C524   O568    1.283   .     A
C524   C531    1.432   .     S
C524   O567    1.283   .     A
C525   C529    1.389   .     A
C525   H559    1.084   .     S
C525   C532    1.395   .     A
C526   C534    1.491   .     S
C526   C530    1.413   .     A
C527   C531    1.413   .     A
C527   C536    1.491   .     S
C528   C531    1.413   .     A
C528   C537    1.491   .     S
C529   C538    1.491   .     S
C529   C530    1.413   .     A
C532   C597    1.446   1_455 S
C533   C596    1.446   .     S
C534   O574    1.221   .     D
C534   H549    1.083   .     S
C535   N561    1.363   .     A
C535   C542    1.408   .     A
C535   H545    1.081   .     S
C536   O564    1.221   .     D
C536   H550    1.083   .     S
C537   H551    1.083   .     S
C537   O565    1.221   .     D
C538   H552    1.083   .     S
C538   O566    1.221   .     D
C539   H553    1.082   .     S
C539   N562    1.363   .     A
C539   C543    1.408   .     A
C540   N561    1.363   .     A
C540   C544    1.408   .     A
C540   H554    1.081   .     S
C541   N562    1.363   .     A
C541   H555    1.082   .     S
C542   H560    1.082   .     S
C543   H546    1.082   .     S
C544   H547    1.082   .     S
N561   Zn576   2.007   .     S
N562   Zn575   2.007   .     S
O563   Zn575   1.997   .     S
O567   Zn576   1.997   .     S
O568   Zn575   1.997   .     S
O569   Zn576   1.997   .     S
O570   Zn575   1.949   .     S
O571   Zn576   1.949   .     S
O572   Zn575   1.949   .     S
O573   Zn576   1.949   .     S
C577   O633    1.283   .     A
C577   C594    1.432   .     S
C577   O627    1.283   .     A
C578   C582    1.411   .     A
C578   C605    1.408   .     A
C578   H612    1.082   .     S
C579   O634    1.275   .     A
C579   O637    1.275   .     A
C579   C583    1.364   .     S
C580   O636    1.275   .     A
C580   C584    1.364   .     S
C580   O635    1.275   .     A
C581   C608    1.411   .     A
C581   C606    1.411   .     A
C581   C710    1.515   1_545 S
C582   C607    1.411   .     A
C582   C709    1.515   .     S
C584   C71     1.164   1_556 S
C585   C590    1.389   .     A
C585   C596    1.395   .     A
C585   H620    1.084   .     S
C586   H621    1.084   .     S
C586   C597    1.395   .     A
C586   C591    1.389   .     A
C587   C592    1.389   .     A
C587   H622    1.084   .     S
C587   C597    1.395   .     A
C588   O632    1.283   .     A
C588   C595    1.432   .     S
C588   O631    1.283   .     A
C589   C593    1.389   .     A
C589   H623    1.084   .     S
C589   C596    1.395   .     A
C590   C598    1.491   .     S
C590   C594    1.413   .     A
C591   C595    1.413   .     A
C591   C600    1.491   .     S
C592   C595    1.413   .     A
C592   C601    1.491   .     S
C593   C602    1.491   .     S
C593   C594    1.413   .     A
C597   C532    1.446   1_655 S
C598   O638    1.221   .     D
C598   H613    1.083   .     S
C599   N625    1.363   .     A
C599   C606    1.408   .     A
C599   H609    1.081   .     S
C600   O628    1.221   .     D
C600   H614    1.083   .     S
C601   H615    1.083   .     S
C601   O629    1.221   .     D
C602   H616    1.083   .     S
C602   O630    1.221   .     D
C603   H617    1.082   .     S
C603   N626    1.363   .     A
C603   C607    1.408   .     A
C604   N625    1.363   .     A
C604   C608    1.408   .     A
C604   H618    1.081   .     S
C605   N626    1.363   .     A
C605   H619    1.082   .     S
C606   H624    1.082   .     S
C607   H610    1.082   .     S
C608   H611    1.082   .     S
N625   Zn640   2.007   .     S
N626   Zn639   2.007   .     S
O627   Zn639   1.997   .     S
O631   Zn640   1.997   .     S
O632   Zn639   1.997   .     S
O633   Zn640   1.997   .     S
O634   Zn639   1.949   .     S
O635   Zn640   1.949   .     S
O636   Zn639   1.949   .     S
O637   Zn640   1.949   .     S
C641   O697    1.283   .     A
C641   C658    1.432   .     S
C641   O691    1.283   .     A
C642   C646    1.411   .     A
C642   C669    1.408   .     A
C642   H676    1.082   .     S
C643   O698    1.275   .     A
C643   O701    1.275   .     A
C643   C647    1.364   .     S
C644   O700    1.275   .     A
C644   C648    1.364   .     S
C644   O699    1.275   .     A
C645   C672    1.411   .     A
C645   C670    1.411   .     A
C646   C671    1.411   .     A
C646   C517    1.515   1_565 S
C648   C135    1.164   1_556 S
C649   C654    1.389   .     A
C649   C660    1.395   .     A
C649   H684    1.084   .     S
C650   H685    1.084   .     S
C650   C661    1.395   .     A
C650   C655    1.389   .     A
C651   C656    1.389   .     A
C651   H686    1.084   .     S
C651   C661    1.395   .     A
C652   O696    1.283   .     A
C652   C659    1.432   .     S
C652   O695    1.283   .     A
C653   C657    1.389   .     A
C653   H687    1.084   .     S
C653   C660    1.395   .     A
C654   C662    1.491   .     S
C654   C658    1.413   .     A
C655   C659    1.413   .     A
C655   C664    1.491   .     S
C656   C659    1.413   .     A
C656   C665    1.491   .     S
C657   C666    1.491   .     S
C657   C658    1.413   .     A
C660   C725    1.446   1_455 S
C661   C724    1.446   .     S
C662   O702    1.221   .     D
C662   H677    1.083   .     S
C663   N689    1.363   .     A
C663   C670    1.408   .     A
C663   H673    1.081   .     S
C664   O692    1.221   .     D
C664   H678    1.083   .     S
C665   H679    1.083   .     S
C665   O693    1.221   .     D
C666   H680    1.083   .     S
C666   O694    1.221   .     D
C667   H681    1.082   .     S
C667   N690    1.363   .     A
C667   C671    1.408   .     A
C668   N689    1.363   .     A
C668   C672    1.408   .     A
C668   H682    1.081   .     S
C669   N690    1.363   .     A
C669   H683    1.082   .     S
C670   H688    1.082   .     S
C671   H674    1.082   .     S
C672   H675    1.082   .     S
N689   Zn704   2.007   .     S
N690   Zn703   2.007   .     S
O691   Zn703   1.997   .     S
O695   Zn704   1.997   .     S
O696   Zn703   1.997   .     S
O697   Zn704   1.997   .     S
O698   Zn703   1.949   .     S
O699   Zn704   1.949   .     S
O700   Zn703   1.949   .     S
O701   Zn704   1.949   .     S
C705   O761    1.283   .     A
C705   C722    1.432   .     S
C705   O755    1.283   .     A
C706   C710    1.411   .     A
C706   C733    1.408   .     A
C706   H740    1.082   .     S
C707   O762    1.275   .     A
C707   O765    1.275   .     A
C707   C711    1.364   .     S
C708   O764    1.275   .     A
C708   C712    1.364   .     S
C708   O763    1.275   .     A
C709   C736    1.411   .     A
C709   C734    1.411   .     A
C710   C735    1.411   .     A
C710   C581    1.515   1_565 S
C712   C199    1.164   1_556 S
C713   C718    1.389   .     A
C713   C724    1.395   .     A
C713   H748    1.084   .     S
C714   H749    1.084   .     S
C714   C725    1.395   .     A
C714   C719    1.389   .     A
C715   C720    1.389   .     A
C715   H750    1.084   .     S
C715   C725    1.395   .     A
C716   O760    1.283   .     A
C716   C723    1.432   .     S
C716   O759    1.283   .     A
C717   C721    1.389   .     A
C717   H751    1.084   .     S
C717   C724    1.395   .     A
C718   C726    1.491   .     S
C718   C722    1.413   .     A
C719   C723    1.413   .     A
C719   C728    1.491   .     S
C720   C723    1.413   .     A
C720   C729    1.491   .     S
C721   C730    1.491   .     S
C721   C722    1.413   .     A
C725   C660    1.446   1_655 S
C726   O766    1.221   .     D
C726   H741    1.083   .     S
C727   N753    1.363   .     A
C727   C734    1.408   .     A
C727   H737    1.081   .     S
C728   O756    1.221   .     D
C728   H742    1.083   .     S
C729   H743    1.083   .     S
C729   O757    1.221   .     D
C730   H744    1.083   .     S
C730   O758    1.221   .     D
C731   H745    1.082   .     S
C731   N754    1.363   .     A
C731   C735    1.408   .     A
C732   N753    1.363   .     A
C732   C736    1.408   .     A
C732   H746    1.081   .     S
C733   N754    1.363   .     A
C733   H747    1.082   .     S
C734   H752    1.082   .     S
C735   H738    1.082   .     S
C736   H739    1.082   .     S
N753   Zn768   2.007   .     S
N754   Zn767   2.007   .     S
O755   Zn767   1.997   .     S
O759   Zn768   1.997   .     S
O760   Zn767   1.997   .     S
O761   Zn768   1.997   .     S
O762   Zn767   1.949   .     S
O763   Zn768   1.949   .     S
O764   Zn767   1.949   .     S
O765   Zn768   1.949   .     S
