data_str_m2_o2_o10_pcu_sym.110
_audit_creation_date              2020-01-03
_audit_creation_method            'Materials Studio'
_symmetry_space_group_name_H-M    'P1'
_symmetry_Int_Tables_number       1
_symmetry_cell_setting            triclinic
loop_
_symmetry_equiv_pos_as_xyz
  x,y,z
_cell_length_a                    26.8383
_cell_length_b                    30.1519
_cell_length_c                    28.0012
_cell_angle_alpha                 90.1950
_cell_angle_beta                  98.7029
_cell_angle_gamma                 94.0393
loop_
_atom_site_label
_atom_site_type_symbol
_atom_site_fract_x
_atom_site_fract_y
_atom_site_fract_z
_atom_site_U_iso_or_equiv
_atom_site_adp_type
_atom_site_occupancy
O1     O     0.16667   0.18572   0.29071   0.00000  Uiso   1.00
O2     O     0.16666   0.31427   0.20928   0.00000  Uiso   1.00
O3     O     0.16667   0.18573   0.20928   0.00000  Uiso   1.00
O4     O     0.16666   0.31427   0.29072   0.00000  Uiso   1.00
C5     C     0.17429   0.16603   0.25110   0.00000  Uiso   1.00
C6     C     0.16848   0.33514   0.25034   0.00000  Uiso   1.00
O7     O     0.09161   0.25000   0.28132   0.00000  Uiso   1.00
O8     O     0.24172   0.25000   0.21868   0.00000  Uiso   1.00
O9     O     0.09161   0.25000   0.19988   0.00000  Uiso   1.00
O10    O     0.24172   0.25000   0.30011   0.00000  Uiso   1.00
C11    C     0.06836   0.25285   0.23729   0.00000  Uiso   1.00
C12    C     0.26547   0.25333   0.26254   0.00000  Uiso   1.00
Cu13   Cu    0.16667   0.24999   0.29821   0.00000  Uiso   1.00
Cu14   Cu    0.16667   0.25000   0.20178   0.00000  Uiso   1.00
C15    C     0.01354   0.25784   0.22948   0.00000  Uiso   1.00
C16    C     0.32118   0.26022   0.26925   0.00000  Uiso   1.00
C17    C     0.19385   0.04971   0.29573   0.00000  Uiso   1.00
C18    C     0.13554   0.45455   0.24164   0.00000  Uiso   1.00
H19    H     0.19926   0.03151   0.32924   0.00000  Uiso   1.00
H20    H     0.10243   0.47323   0.23271   0.00000  Uiso   1.00
C21    C     0.19816   0.09601   0.29691   0.00000  Uiso   1.00
C22    C     0.13031   0.40837   0.23834   0.00000  Uiso   1.00
C23    C     0.18776   0.11892   0.25275   0.00000  Uiso   1.00
C24    C     0.17327   0.38407   0.25130   0.00000  Uiso   1.00
C25    C     0.19136   0.09589   0.20925   0.00000  Uiso   1.00
C26    C     0.22125   0.40687   0.26667   0.00000  Uiso   1.00
C27    C     0.18145   0.04903   0.20757   0.00000  Uiso   1.00
C28    C     0.22645   0.45412   0.26783   0.00000  Uiso   1.00
C29    C     0.18448   0.02619   0.25199   0.00000  Uiso   1.00
C30    C     0.18258   0.47742   0.25402   0.00000  Uiso   1.00
C31    C     0.18103   0.28705   0.05495   0.00000  Uiso   1.00
C32    C     0.14616   0.21337   0.44349   0.00000  Uiso   1.00
H33    H     0.18867   0.31837   0.03798   0.00000  Uiso   1.00
H34    H     0.12520   0.18640   0.45850   0.00000  Uiso   1.00
C35    C     0.17973   0.28795   0.10487   0.00000  Uiso   1.00
C36    C     0.14448   0.21402   0.39288   0.00000  Uiso   1.00
N37    N     0.16667   0.25001   0.12934   0.00000  Uiso   1.00
N38    N     0.16667   0.24999   0.37065   0.00000  Uiso   1.00
C39    C     0.15214   0.21149   0.10192   0.00000  Uiso   1.00
C40    C     0.18917   0.28510   0.40006   0.00000  Uiso   1.00
C41    C     0.15841   0.20947   0.05275   0.00000  Uiso   1.00
C42    C     0.19543   0.28225   0.45070   0.00000  Uiso   1.00
H43    H     0.14989   0.17802   0.03378   0.00000  Uiso   1.00
H44    H     0.21592   0.30978   0.47146   0.00000  Uiso   1.00
C45    C     0.17182   0.24757   0.02782   0.00000  Uiso   1.00
C46    C     0.17228   0.24712   0.47365   0.00000  Uiso   1.00
C47    C     0.31964   0.25985   0.17635   0.00000  Uiso   1.00
C48    C     0.01592   0.27049   0.13411   0.00000  Uiso   1.00
C49    C     0.31396   0.27992   0.08763   0.00000  Uiso   1.00
H50    H     0.28628   0.25103   0.07758   0.00000  Uiso   1.00
H51    H     0.29330   0.30988   0.09205   0.00000  Uiso   1.00
H52    H     0.00309   0.28587   0.05777   0.00000  Uiso   1.00
H53    H     0.04319   0.29976   0.14313   0.00000  Uiso   1.00
H54    H     0.03619   0.24153   0.12576   0.00000  Uiso   1.00
H55    H     0.29717   0.22785   0.16691   0.00000  Uiso   1.00
H56    H     0.29469   0.28741   0.17541   0.00000  Uiso   1.00
C57    C     0.01624   0.27189   0.32079   0.00000  Uiso   1.00
C58    C     0.32040   0.28539   0.36096   0.00000  Uiso   1.00
C59    C     0.02274   0.30574   0.40449   0.00000  Uiso   1.00
H60    H     0.05123   0.28207   0.41848   0.00000  Uiso   1.00
H61    H     0.04247   0.33711   0.39426   0.00000  Uiso   1.00
H62    H     0.00078   0.31331   0.43372   0.00000  Uiso   1.00
H63    H     0.29339   0.30970   0.34695   0.00000  Uiso   1.00
H64    H     0.29961   0.25581   0.37389   0.00000  Uiso   1.00
H65    H     0.03561   0.24272   0.33543   0.00000  Uiso   1.00
H66    H     0.04405   0.30042   0.31722   0.00000  Uiso   1.00
C67    C     0.22311   0.11852   0.34399   0.00000  Uiso   1.00
C68    C     0.27663   0.13806   0.33998   0.00000  Uiso   1.00
C69    C     0.30314   0.15733   0.38847   0.00000  Uiso   1.00
H70    H     0.28015   0.18232   0.40226   0.00000  Uiso   1.00
H71    H     0.30904   0.13045   0.41532   0.00000  Uiso   1.00
H72    H     0.00717   0.17368   0.38413   0.00000  Uiso   1.00
H73    H     0.29922   0.11168   0.32816   0.00000  Uiso   1.00
H74    H     0.27488   0.16479   0.31272   0.00000  Uiso   1.00
H75    H     0.20107   0.14475   0.35549   0.00000  Uiso   1.00
H76    H     0.22584   0.09417   0.37388   0.00000  Uiso   1.00
C77    C     0.07801   0.38721   0.22031   0.00000  Uiso   1.00
C78    C     0.06229   0.39761   0.16657   0.00000  Uiso   1.00
C79    C     0.00539   0.39123   0.15184   0.00000  Uiso   1.00
H80    H     0.32525   0.35812   0.16308   0.00000  Uiso   1.00
H81    H     0.31963   0.41676   0.16940   0.00000  Uiso   1.00
H82    H     0.32891   0.39391   0.11205   0.00000  Uiso   1.00
H83    H     0.07428   0.43235   0.15821   0.00000  Uiso   1.00
H84    H     0.08067   0.37518   0.14430   0.00000  Uiso   1.00
H85    H     0.07555   0.35065   0.22493   0.00000  Uiso   1.00
H86    H     0.05113   0.40065   0.24233   0.00000  Uiso   1.00
N87    N     0.21710   0.11848   0.17324   0.00000  Uiso   1.00
O88    O     0.24888   0.15247   0.18646   0.00000  Uiso   1.00
O89    O     0.21937   0.10002   0.13169   0.00000  Uiso   1.00
N90    N     0.26469   0.38191   0.27994   0.00000  Uiso   1.00
O91    O     0.28999   0.38540   0.32334   0.00000  Uiso   1.00
O92    O     0.27969   0.35626   0.24838   0.00000  Uiso   1.00
C93    C     0.16390   0.02442   0.15964   0.00000  Uiso   1.00
C94    C     0.20462   0.49730   0.14287   0.00000  Uiso   1.00
C95    C     0.18635   0.47660   0.09296   0.00000  Uiso   1.00
H96    H     0.15132   0.45477   0.09346   0.00000  Uiso   1.00
H97    H     0.17870   0.00299   0.06580   0.00000  Uiso   1.00
H98    H     0.21590   0.45627   0.08229   0.00000  Uiso   1.00
H99    H     0.23963   0.01880   0.14136   0.00000  Uiso   1.00
H100   H     0.21401   0.47000   0.16830   0.00000  Uiso   1.00
H101   H     0.12996   0.00211   0.16257   0.00000  Uiso   1.00
H102   H     0.14988   0.04788   0.13114   0.00000  Uiso   1.00
C103   C     0.27784   0.47950   0.28430   0.00000  Uiso   1.00
C104   C     0.30090   0.00210   0.24293   0.00000  Uiso   1.00
C105   C     0.01931   0.02549   0.26125   0.00000  Uiso   1.00
H106   H     0.01542   0.05305   0.28656   0.00000  Uiso   1.00
H107   H     0.04500   0.00174   0.28025   0.00000  Uiso   1.00
H108   H     0.03631   0.03954   0.23030   0.00000  Uiso   1.00
H109   H     0.30507   0.47686   0.21522   0.00000  Uiso   1.00
H110   H     0.27654   0.02744   0.22583   0.00000  Uiso   1.00
H111   H     0.27442   0.00446   0.31250   0.00000  Uiso   1.00
H112   H     0.30616   0.45781   0.30211   0.00000  Uiso   1.00
N113   N     0.18900   0.33063   0.12776   0.00000  Uiso   1.00
O114   O     0.23279   0.34128   0.15308   0.00000  Uiso   1.00
O115   O     0.16087   0.36240   0.11174   0.00000  Uiso   1.00
N116   N     0.11831   0.17589   0.36653   0.00000  Uiso   1.00
O117   O     0.08399   0.18047   0.32936   0.00000  Uiso   1.00
O118   O     0.11977   0.13694   0.38646   0.00000  Uiso   1.00
N119   N     0.12522   0.17384   0.12011   0.00000  Uiso   1.00
O120   O     0.08784   0.17988   0.14333   0.00000  Uiso   1.00
O121   O     0.12782   0.13438   0.10212   0.00000  Uiso   1.00
N122   N     0.19857   0.32842   0.38154   0.00000  Uiso   1.00
O123   O     0.24229   0.34953   0.39572   0.00000  Uiso   1.00
O124   O     0.15985   0.35219   0.37085   0.00000  Uiso   1.00
O125   O     0.50000   0.18572   0.29071   0.00000  Uiso   1.00
O126   O     0.50000   0.31427   0.20928   0.00000  Uiso   1.00
O127   O     0.50000   0.18573   0.20928   0.00000  Uiso   1.00
O128   O     0.50000   0.31427   0.29072   0.00000  Uiso   1.00
C129   C     0.50762   0.16603   0.25110   0.00000  Uiso   1.00
C130   C     0.50181   0.33514   0.25034   0.00000  Uiso   1.00
O131   O     0.42495   0.25000   0.28132   0.00000  Uiso   1.00
O132   O     0.57505   0.25000   0.21868   0.00000  Uiso   1.00
O133   O     0.42495   0.25000   0.19988   0.00000  Uiso   1.00
O134   O     0.57505   0.25000   0.30011   0.00000  Uiso   1.00
C135   C     0.40170   0.25285   0.23729   0.00000  Uiso   1.00
C136   C     0.59881   0.25333   0.26254   0.00000  Uiso   1.00
Cu137  Cu    0.50000   0.24999   0.29821   0.00000  Uiso   1.00
Cu138  Cu    0.50000   0.25000   0.20178   0.00000  Uiso   1.00
C139   C     0.34688   0.25784   0.22948   0.00000  Uiso   1.00
C140   C     0.65451   0.26022   0.26925   0.00000  Uiso   1.00
C141   C     0.52718   0.04971   0.29573   0.00000  Uiso   1.00
C142   C     0.46888   0.45455   0.24164   0.00000  Uiso   1.00
H143   H     0.53259   0.03151   0.32924   0.00000  Uiso   1.00
H144   H     0.43576   0.47323   0.23271   0.00000  Uiso   1.00
C145   C     0.53150   0.09601   0.29691   0.00000  Uiso   1.00
C146   C     0.46364   0.40837   0.23834   0.00000  Uiso   1.00
C147   C     0.52109   0.11892   0.25275   0.00000  Uiso   1.00
C148   C     0.50661   0.38407   0.25130   0.00000  Uiso   1.00
C149   C     0.52470   0.09589   0.20925   0.00000  Uiso   1.00
C150   C     0.55458   0.40687   0.26667   0.00000  Uiso   1.00
C151   C     0.51478   0.04903   0.20757   0.00000  Uiso   1.00
C152   C     0.55978   0.45412   0.26783   0.00000  Uiso   1.00
C153   C     0.51781   0.02619   0.25199   0.00000  Uiso   1.00
C154   C     0.51591   0.47742   0.25402   0.00000  Uiso   1.00
C155   C     0.51436   0.28705   0.05495   0.00000  Uiso   1.00
C156   C     0.47950   0.21337   0.44349   0.00000  Uiso   1.00
H157   H     0.52201   0.31837   0.03798   0.00000  Uiso   1.00
H158   H     0.45853   0.18640   0.45850   0.00000  Uiso   1.00
C159   C     0.51306   0.28795   0.10487   0.00000  Uiso   1.00
C160   C     0.47781   0.21402   0.39288   0.00000  Uiso   1.00
N161   N     0.50000   0.25001   0.12934   0.00000  Uiso   1.00
N162   N     0.50000   0.24999   0.37065   0.00000  Uiso   1.00
C163   C     0.48548   0.21149   0.10192   0.00000  Uiso   1.00
C164   C     0.52251   0.28510   0.40006   0.00000  Uiso   1.00
C165   C     0.49174   0.20947   0.05275   0.00000  Uiso   1.00
C166   C     0.52876   0.28225   0.45070   0.00000  Uiso   1.00
H167   H     0.48323   0.17802   0.03378   0.00000  Uiso   1.00
H168   H     0.54925   0.30978   0.47146   0.00000  Uiso   1.00
C169   C     0.50515   0.24757   0.02782   0.00000  Uiso   1.00
C170   C     0.50561   0.24712   0.47365   0.00000  Uiso   1.00
C171   C     0.65297   0.25985   0.17635   0.00000  Uiso   1.00
C172   C     0.34925   0.27049   0.13411   0.00000  Uiso   1.00
C173   C     0.64730   0.27992   0.08763   0.00000  Uiso   1.00
H174   H     0.61961   0.25103   0.07758   0.00000  Uiso   1.00
H175   H     0.62664   0.30988   0.09205   0.00000  Uiso   1.00
H176   H     0.33642   0.28587   0.05777   0.00000  Uiso   1.00
H177   H     0.37653   0.29976   0.14313   0.00000  Uiso   1.00
H178   H     0.36952   0.24153   0.12576   0.00000  Uiso   1.00
H179   H     0.63050   0.22785   0.16691   0.00000  Uiso   1.00
H180   H     0.62802   0.28741   0.17541   0.00000  Uiso   1.00
C181   C     0.34957   0.27189   0.32079   0.00000  Uiso   1.00
C182   C     0.65373   0.28539   0.36096   0.00000  Uiso   1.00
C183   C     0.35608   0.30574   0.40449   0.00000  Uiso   1.00
H184   H     0.38456   0.28207   0.41848   0.00000  Uiso   1.00
H185   H     0.37581   0.33711   0.39426   0.00000  Uiso   1.00
H186   H     0.33411   0.31331   0.43372   0.00000  Uiso   1.00
H187   H     0.62672   0.30970   0.34695   0.00000  Uiso   1.00
H188   H     0.63294   0.25581   0.37389   0.00000  Uiso   1.00
H189   H     0.36894   0.24272   0.33543   0.00000  Uiso   1.00
H190   H     0.37738   0.30042   0.31722   0.00000  Uiso   1.00
C191   C     0.55644   0.11852   0.34399   0.00000  Uiso   1.00
C192   C     0.60996   0.13806   0.33998   0.00000  Uiso   1.00
C193   C     0.63647   0.15733   0.38847   0.00000  Uiso   1.00
H194   H     0.61349   0.18232   0.40226   0.00000  Uiso   1.00
H195   H     0.64238   0.13045   0.41532   0.00000  Uiso   1.00
H196   H     0.34050   0.17368   0.38413   0.00000  Uiso   1.00
H197   H     0.63255   0.11168   0.32816   0.00000  Uiso   1.00
H198   H     0.60822   0.16479   0.31272   0.00000  Uiso   1.00
H199   H     0.53441   0.14475   0.35549   0.00000  Uiso   1.00
H200   H     0.55917   0.09417   0.37388   0.00000  Uiso   1.00
C201   C     0.41135   0.38721   0.22031   0.00000  Uiso   1.00
C202   C     0.39563   0.39761   0.16657   0.00000  Uiso   1.00
C203   C     0.33872   0.39123   0.15184   0.00000  Uiso   1.00
H204   H     0.65858   0.35812   0.16308   0.00000  Uiso   1.00
H205   H     0.65297   0.41676   0.16940   0.00000  Uiso   1.00
H206   H     0.66225   0.39391   0.11205   0.00000  Uiso   1.00
H207   H     0.40761   0.43235   0.15821   0.00000  Uiso   1.00
H208   H     0.41400   0.37518   0.14430   0.00000  Uiso   1.00
H209   H     0.40889   0.35065   0.22493   0.00000  Uiso   1.00
H210   H     0.38447   0.40065   0.24233   0.00000  Uiso   1.00
N211   N     0.55044   0.11848   0.17324   0.00000  Uiso   1.00
O212   O     0.58222   0.15247   0.18646   0.00000  Uiso   1.00
O213   O     0.55270   0.10002   0.13169   0.00000  Uiso   1.00
N214   N     0.59802   0.38191   0.27994   0.00000  Uiso   1.00
O215   O     0.62333   0.38540   0.32334   0.00000  Uiso   1.00
O216   O     0.61303   0.35626   0.24838   0.00000  Uiso   1.00
C217   C     0.49723   0.02442   0.15964   0.00000  Uiso   1.00
C218   C     0.53795   0.49730   0.14287   0.00000  Uiso   1.00
C219   C     0.51968   0.47660   0.09296   0.00000  Uiso   1.00
H220   H     0.48465   0.45477   0.09346   0.00000  Uiso   1.00
H221   H     0.51203   0.00299   0.06580   0.00000  Uiso   1.00
H222   H     0.54924   0.45627   0.08229   0.00000  Uiso   1.00
H223   H     0.57297   0.01880   0.14136   0.00000  Uiso   1.00
H224   H     0.54734   0.47000   0.16830   0.00000  Uiso   1.00
H225   H     0.46330   0.00211   0.16257   0.00000  Uiso   1.00
H226   H     0.48321   0.04788   0.13114   0.00000  Uiso   1.00
C227   C     0.61117   0.47950   0.28430   0.00000  Uiso   1.00
C228   C     0.63423   0.00210   0.24293   0.00000  Uiso   1.00
C229   C     0.35264   0.02549   0.26125   0.00000  Uiso   1.00
H230   H     0.34876   0.05305   0.28656   0.00000  Uiso   1.00
H231   H     0.37833   0.00174   0.28025   0.00000  Uiso   1.00
H232   H     0.36965   0.03954   0.23030   0.00000  Uiso   1.00
H233   H     0.63841   0.47686   0.21522   0.00000  Uiso   1.00
H234   H     0.60988   0.02744   0.22583   0.00000  Uiso   1.00
H235   H     0.60775   0.00446   0.31250   0.00000  Uiso   1.00
H236   H     0.63949   0.45781   0.30211   0.00000  Uiso   1.00
N237   N     0.52234   0.33063   0.12776   0.00000  Uiso   1.00
O238   O     0.56613   0.34128   0.15308   0.00000  Uiso   1.00
O239   O     0.49420   0.36240   0.11174   0.00000  Uiso   1.00
N240   N     0.45164   0.17589   0.36653   0.00000  Uiso   1.00
O241   O     0.41733   0.18047   0.32936   0.00000  Uiso   1.00
O242   O     0.45311   0.13694   0.38646   0.00000  Uiso   1.00
N243   N     0.45855   0.17384   0.12011   0.00000  Uiso   1.00
O244   O     0.42117   0.17988   0.14333   0.00000  Uiso   1.00
O245   O     0.46115   0.13438   0.10212   0.00000  Uiso   1.00
N246   N     0.53191   0.32842   0.38154   0.00000  Uiso   1.00
O247   O     0.57563   0.34953   0.39572   0.00000  Uiso   1.00
O248   O     0.49319   0.35219   0.37085   0.00000  Uiso   1.00
O249   O     0.83334   0.18572   0.29071   0.00000  Uiso   1.00
O250   O     0.83333   0.31427   0.20928   0.00000  Uiso   1.00
O251   O     0.83334   0.18573   0.20928   0.00000  Uiso   1.00
O252   O     0.83333   0.31427   0.29072   0.00000  Uiso   1.00
C253   C     0.84096   0.16603   0.25110   0.00000  Uiso   1.00
C254   C     0.83515   0.33514   0.25034   0.00000  Uiso   1.00
O255   O     0.75828   0.25000   0.28132   0.00000  Uiso   1.00
O256   O     0.90839   0.25000   0.21868   0.00000  Uiso   1.00
O257   O     0.75828   0.25000   0.19988   0.00000  Uiso   1.00
O258   O     0.90839   0.25000   0.30011   0.00000  Uiso   1.00
C259   C     0.73503   0.25285   0.23729   0.00000  Uiso   1.00
C260   C     0.93214   0.25333   0.26254   0.00000  Uiso   1.00
Cu261  Cu    0.83333   0.24999   0.29821   0.00000  Uiso   1.00
Cu262  Cu    0.83333   0.25000   0.20178   0.00000  Uiso   1.00
C263   C     0.68021   0.25784   0.22948   0.00000  Uiso   1.00
C264   C     0.98785   0.26022   0.26925   0.00000  Uiso   1.00
C265   C     0.86052   0.04971   0.29573   0.00000  Uiso   1.00
C266   C     0.80221   0.45455   0.24164   0.00000  Uiso   1.00
H267   H     0.86592   0.03151   0.32924   0.00000  Uiso   1.00
H268   H     0.76910   0.47323   0.23271   0.00000  Uiso   1.00
C269   C     0.86483   0.09601   0.29691   0.00000  Uiso   1.00
C270   C     0.79697   0.40837   0.23834   0.00000  Uiso   1.00
C271   C     0.85442   0.11892   0.25275   0.00000  Uiso   1.00
C272   C     0.83994   0.38407   0.25130   0.00000  Uiso   1.00
C273   C     0.85803   0.09589   0.20925   0.00000  Uiso   1.00
C274   C     0.88792   0.40687   0.26667   0.00000  Uiso   1.00
C275   C     0.84811   0.04903   0.20757   0.00000  Uiso   1.00
C276   C     0.89312   0.45412   0.26783   0.00000  Uiso   1.00
C277   C     0.85114   0.02619   0.25199   0.00000  Uiso   1.00
C278   C     0.84924   0.47742   0.25402   0.00000  Uiso   1.00
C279   C     0.84770   0.28705   0.05495   0.00000  Uiso   1.00
C280   C     0.81283   0.21337   0.44349   0.00000  Uiso   1.00
H281   H     0.85534   0.31837   0.03798   0.00000  Uiso   1.00
H282   H     0.79187   0.18640   0.45850   0.00000  Uiso   1.00
C283   C     0.84639   0.28795   0.10487   0.00000  Uiso   1.00
C284   C     0.81115   0.21402   0.39288   0.00000  Uiso   1.00
N285   N     0.83333   0.25001   0.12934   0.00000  Uiso   1.00
N286   N     0.83333   0.24999   0.37065   0.00000  Uiso   1.00
C287   C     0.81881   0.21149   0.10192   0.00000  Uiso   1.00
C288   C     0.85584   0.28510   0.40006   0.00000  Uiso   1.00
C289   C     0.82507   0.20947   0.05275   0.00000  Uiso   1.00
C290   C     0.86210   0.28225   0.45070   0.00000  Uiso   1.00
H291   H     0.81656   0.17802   0.03378   0.00000  Uiso   1.00
H292   H     0.88258   0.30978   0.47146   0.00000  Uiso   1.00
C293   C     0.83849   0.24757   0.02782   0.00000  Uiso   1.00
C294   C     0.83894   0.24712   0.47365   0.00000  Uiso   1.00
C295   C     0.98631   0.25985   0.17635   0.00000  Uiso   1.00
C296   C     0.68259   0.27049   0.13411   0.00000  Uiso   1.00
C297   C     0.98063   0.27992   0.08763   0.00000  Uiso   1.00
H298   H     0.95295   0.25103   0.07758   0.00000  Uiso   1.00
H299   H     0.95997   0.30988   0.09205   0.00000  Uiso   1.00
H300   H     0.66976   0.28587   0.05777   0.00000  Uiso   1.00
H301   H     0.70986   0.29976   0.14313   0.00000  Uiso   1.00
H302   H     0.70285   0.24153   0.12576   0.00000  Uiso   1.00
H303   H     0.96384   0.22785   0.16691   0.00000  Uiso   1.00
H304   H     0.96136   0.28741   0.17541   0.00000  Uiso   1.00
C305   C     0.68291   0.27189   0.32079   0.00000  Uiso   1.00
C306   C     0.98706   0.28539   0.36096   0.00000  Uiso   1.00
C307   C     0.68941   0.30574   0.40449   0.00000  Uiso   1.00
H308   H     0.71789   0.28207   0.41848   0.00000  Uiso   1.00
H309   H     0.70914   0.33711   0.39426   0.00000  Uiso   1.00
H310   H     0.66745   0.31331   0.43372   0.00000  Uiso   1.00
H311   H     0.96006   0.30970   0.34695   0.00000  Uiso   1.00
H312   H     0.96627   0.25581   0.37389   0.00000  Uiso   1.00
H313   H     0.70228   0.24272   0.33543   0.00000  Uiso   1.00
H314   H     0.71072   0.30042   0.31722   0.00000  Uiso   1.00
C315   C     0.88977   0.11852   0.34399   0.00000  Uiso   1.00
C316   C     0.94330   0.13806   0.33998   0.00000  Uiso   1.00
C317   C     0.96981   0.15733   0.38847   0.00000  Uiso   1.00
H318   H     0.94682   0.18232   0.40226   0.00000  Uiso   1.00
H319   H     0.97571   0.13045   0.41532   0.00000  Uiso   1.00
H320   H     0.67384   0.17368   0.38413   0.00000  Uiso   1.00
H321   H     0.96589   0.11168   0.32816   0.00000  Uiso   1.00
H322   H     0.94155   0.16479   0.31272   0.00000  Uiso   1.00
H323   H     0.86774   0.14475   0.35549   0.00000  Uiso   1.00
H324   H     0.89250   0.09417   0.37388   0.00000  Uiso   1.00
C325   C     0.74468   0.38721   0.22031   0.00000  Uiso   1.00
C326   C     0.72896   0.39761   0.16657   0.00000  Uiso   1.00
C327   C     0.67206   0.39123   0.15184   0.00000  Uiso   1.00
H328   H     0.99191   0.35812   0.16308   0.00000  Uiso   1.00
H329   H     0.98630   0.41676   0.16940   0.00000  Uiso   1.00
H330   H     0.99558   0.39391   0.11205   0.00000  Uiso   1.00
H331   H     0.74094   0.43235   0.15821   0.00000  Uiso   1.00
H332   H     0.74734   0.37518   0.14430   0.00000  Uiso   1.00
H333   H     0.74222   0.35065   0.22493   0.00000  Uiso   1.00
H334   H     0.71780   0.40065   0.24233   0.00000  Uiso   1.00
N335   N     0.88377   0.11848   0.17324   0.00000  Uiso   1.00
O336   O     0.91555   0.15247   0.18646   0.00000  Uiso   1.00
O337   O     0.88603   0.10002   0.13169   0.00000  Uiso   1.00
N338   N     0.93136   0.38191   0.27994   0.00000  Uiso   1.00
O339   O     0.95666   0.38540   0.32334   0.00000  Uiso   1.00
O340   O     0.94636   0.35626   0.24838   0.00000  Uiso   1.00
C341   C     0.83056   0.02442   0.15964   0.00000  Uiso   1.00
C342   C     0.87128   0.49730   0.14287   0.00000  Uiso   1.00
C343   C     0.85302   0.47660   0.09296   0.00000  Uiso   1.00
H344   H     0.81799   0.45477   0.09346   0.00000  Uiso   1.00
H345   H     0.84536   0.00299   0.06580   0.00000  Uiso   1.00
H346   H     0.88257   0.45627   0.08229   0.00000  Uiso   1.00
H347   H     0.90630   0.01880   0.14136   0.00000  Uiso   1.00
H348   H     0.88067   0.47000   0.16830   0.00000  Uiso   1.00
H349   H     0.79663   0.00211   0.16257   0.00000  Uiso   1.00
H350   H     0.81655   0.04788   0.13114   0.00000  Uiso   1.00
C351   C     0.94450   0.47950   0.28430   0.00000  Uiso   1.00
C352   C     0.96757   0.00210   0.24293   0.00000  Uiso   1.00
C353   C     0.68598   0.02549   0.26125   0.00000  Uiso   1.00
H354   H     0.68209   0.05305   0.28656   0.00000  Uiso   1.00
H355   H     0.71166   0.00174   0.28025   0.00000  Uiso   1.00
H356   H     0.70298   0.03954   0.23030   0.00000  Uiso   1.00
H357   H     0.97174   0.47686   0.21522   0.00000  Uiso   1.00
H358   H     0.94321   0.02744   0.22583   0.00000  Uiso   1.00
H359   H     0.94108   0.00446   0.31250   0.00000  Uiso   1.00
H360   H     0.97283   0.45781   0.30211   0.00000  Uiso   1.00
N361   N     0.85567   0.33063   0.12776   0.00000  Uiso   1.00
O362   O     0.89946   0.34128   0.15308   0.00000  Uiso   1.00
O363   O     0.82754   0.36240   0.11174   0.00000  Uiso   1.00
N364   N     0.78497   0.17589   0.36653   0.00000  Uiso   1.00
O365   O     0.75066   0.18047   0.32936   0.00000  Uiso   1.00
O366   O     0.78644   0.13694   0.38646   0.00000  Uiso   1.00
N367   N     0.79188   0.17384   0.12011   0.00000  Uiso   1.00
O368   O     0.75451   0.17988   0.14333   0.00000  Uiso   1.00
O369   O     0.79449   0.13438   0.10212   0.00000  Uiso   1.00
N370   N     0.86524   0.32842   0.38154   0.00000  Uiso   1.00
O371   O     0.90896   0.34953   0.39572   0.00000  Uiso   1.00
O372   O     0.82652   0.35219   0.37085   0.00000  Uiso   1.00
O373   O     0.16667   0.68572   0.29071   0.00000  Uiso   1.00
O374   O     0.16666   0.81427   0.20928   0.00000  Uiso   1.00
O375   O     0.16667   0.68573   0.20928   0.00000  Uiso   1.00
O376   O     0.16666   0.81427   0.29072   0.00000  Uiso   1.00
C377   C     0.17429   0.66603   0.25110   0.00000  Uiso   1.00
C378   C     0.16848   0.83514   0.25034   0.00000  Uiso   1.00
O379   O     0.09161   0.75000   0.28132   0.00000  Uiso   1.00
O380   O     0.24172   0.75000   0.21868   0.00000  Uiso   1.00
O381   O     0.09161   0.75000   0.19988   0.00000  Uiso   1.00
O382   O     0.24172   0.75000   0.30011   0.00000  Uiso   1.00
C383   C     0.06836   0.75285   0.23729   0.00000  Uiso   1.00
C384   C     0.26547   0.75333   0.26254   0.00000  Uiso   1.00
Cu385  Cu    0.16667   0.74999   0.29821   0.00000  Uiso   1.00
Cu386  Cu    0.16667   0.75000   0.20178   0.00000  Uiso   1.00
C387   C     0.01354   0.75784   0.22948   0.00000  Uiso   1.00
C388   C     0.32118   0.76022   0.26925   0.00000  Uiso   1.00
C389   C     0.19385   0.54971   0.29573   0.00000  Uiso   1.00
C390   C     0.13554   0.95455   0.24164   0.00000  Uiso   1.00
H391   H     0.19926   0.53151   0.32924   0.00000  Uiso   1.00
H392   H     0.10243   0.97323   0.23271   0.00000  Uiso   1.00
C393   C     0.19816   0.59601   0.29691   0.00000  Uiso   1.00
C394   C     0.13031   0.90837   0.23834   0.00000  Uiso   1.00
C395   C     0.18776   0.61892   0.25275   0.00000  Uiso   1.00
C396   C     0.17327   0.88407   0.25130   0.00000  Uiso   1.00
C397   C     0.19136   0.59589   0.20925   0.00000  Uiso   1.00
C398   C     0.22125   0.90687   0.26667   0.00000  Uiso   1.00
C399   C     0.18145   0.54903   0.20757   0.00000  Uiso   1.00
C400   C     0.22645   0.95412   0.26783   0.00000  Uiso   1.00
C401   C     0.18448   0.52619   0.25199   0.00000  Uiso   1.00
C402   C     0.18258   0.97742   0.25402   0.00000  Uiso   1.00
C403   C     0.18103   0.78705   0.05495   0.00000  Uiso   1.00
C404   C     0.14616   0.71337   0.44349   0.00000  Uiso   1.00
H405   H     0.18867   0.81837   0.03798   0.00000  Uiso   1.00
H406   H     0.12520   0.68640   0.45850   0.00000  Uiso   1.00
C407   C     0.17973   0.78795   0.10487   0.00000  Uiso   1.00
C408   C     0.14448   0.71402   0.39288   0.00000  Uiso   1.00
N409   N     0.16667   0.75001   0.12934   0.00000  Uiso   1.00
N410   N     0.16667   0.74999   0.37065   0.00000  Uiso   1.00
C411   C     0.15214   0.71149   0.10192   0.00000  Uiso   1.00
C412   C     0.18917   0.78510   0.40006   0.00000  Uiso   1.00
C413   C     0.15841   0.70947   0.05275   0.00000  Uiso   1.00
C414   C     0.19543   0.78225   0.45070   0.00000  Uiso   1.00
H415   H     0.14989   0.67802   0.03378   0.00000  Uiso   1.00
H416   H     0.21592   0.80978   0.47146   0.00000  Uiso   1.00
C417   C     0.17182   0.74757   0.02782   0.00000  Uiso   1.00
C418   C     0.17228   0.74712   0.47365   0.00000  Uiso   1.00
C419   C     0.31964   0.75985   0.17635   0.00000  Uiso   1.00
C420   C     0.01592   0.77049   0.13411   0.00000  Uiso   1.00
C421   C     0.31396   0.77992   0.08763   0.00000  Uiso   1.00
H422   H     0.28628   0.75103   0.07758   0.00000  Uiso   1.00
H423   H     0.29330   0.80988   0.09205   0.00000  Uiso   1.00
H424   H     0.00309   0.78587   0.05777   0.00000  Uiso   1.00
H425   H     0.04319   0.79976   0.14313   0.00000  Uiso   1.00
H426   H     0.03619   0.74153   0.12576   0.00000  Uiso   1.00
H427   H     0.29717   0.72785   0.16691   0.00000  Uiso   1.00
H428   H     0.29469   0.78741   0.17541   0.00000  Uiso   1.00
C429   C     0.01624   0.77189   0.32079   0.00000  Uiso   1.00
C430   C     0.32040   0.78539   0.36096   0.00000  Uiso   1.00
C431   C     0.02274   0.80574   0.40449   0.00000  Uiso   1.00
H432   H     0.05123   0.78207   0.41848   0.00000  Uiso   1.00
H433   H     0.04247   0.83711   0.39426   0.00000  Uiso   1.00
H434   H     0.00078   0.81331   0.43372   0.00000  Uiso   1.00
H435   H     0.29339   0.80970   0.34695   0.00000  Uiso   1.00
H436   H     0.29961   0.75581   0.37389   0.00000  Uiso   1.00
H437   H     0.03561   0.74272   0.33543   0.00000  Uiso   1.00
H438   H     0.04405   0.80042   0.31722   0.00000  Uiso   1.00
C439   C     0.22311   0.61852   0.34399   0.00000  Uiso   1.00
C440   C     0.27663   0.63806   0.33998   0.00000  Uiso   1.00
C441   C     0.30314   0.65733   0.38847   0.00000  Uiso   1.00
H442   H     0.28015   0.68232   0.40226   0.00000  Uiso   1.00
H443   H     0.30904   0.63045   0.41532   0.00000  Uiso   1.00
H444   H     0.00717   0.67368   0.38413   0.00000  Uiso   1.00
H445   H     0.29922   0.61168   0.32816   0.00000  Uiso   1.00
H446   H     0.27488   0.66479   0.31272   0.00000  Uiso   1.00
H447   H     0.20107   0.64475   0.35549   0.00000  Uiso   1.00
H448   H     0.22584   0.59417   0.37388   0.00000  Uiso   1.00
C449   C     0.07801   0.88721   0.22031   0.00000  Uiso   1.00
C450   C     0.06229   0.89761   0.16657   0.00000  Uiso   1.00
C451   C     0.00539   0.89123   0.15184   0.00000  Uiso   1.00
H452   H     0.32525   0.85812   0.16308   0.00000  Uiso   1.00
H453   H     0.31963   0.91676   0.16940   0.00000  Uiso   1.00
H454   H     0.32891   0.89391   0.11205   0.00000  Uiso   1.00
H455   H     0.07428   0.93235   0.15821   0.00000  Uiso   1.00
H456   H     0.08067   0.87518   0.14430   0.00000  Uiso   1.00
H457   H     0.07555   0.85065   0.22493   0.00000  Uiso   1.00
H458   H     0.05113   0.90065   0.24233   0.00000  Uiso   1.00
N459   N     0.21710   0.61848   0.17324   0.00000  Uiso   1.00
O460   O     0.24888   0.65247   0.18646   0.00000  Uiso   1.00
O461   O     0.21937   0.60002   0.13169   0.00000  Uiso   1.00
N462   N     0.26469   0.88191   0.27994   0.00000  Uiso   1.00
O463   O     0.28999   0.88540   0.32334   0.00000  Uiso   1.00
O464   O     0.27969   0.85626   0.24838   0.00000  Uiso   1.00
C465   C     0.16390   0.52442   0.15964   0.00000  Uiso   1.00
C466   C     0.20462   0.99730   0.14287   0.00000  Uiso   1.00
C467   C     0.18635   0.97660   0.09296   0.00000  Uiso   1.00
H468   H     0.15132   0.95477   0.09346   0.00000  Uiso   1.00
H469   H     0.17870   0.50299   0.06580   0.00000  Uiso   1.00
H470   H     0.21590   0.95627   0.08229   0.00000  Uiso   1.00
H471   H     0.23963   0.51880   0.14136   0.00000  Uiso   1.00
H472   H     0.21401   0.97000   0.16830   0.00000  Uiso   1.00
H473   H     0.12996   0.50211   0.16257   0.00000  Uiso   1.00
H474   H     0.14988   0.54788   0.13114   0.00000  Uiso   1.00
C475   C     0.27784   0.97950   0.28430   0.00000  Uiso   1.00
C476   C     0.30090   0.50210   0.24293   0.00000  Uiso   1.00
C477   C     0.01931   0.52549   0.26125   0.00000  Uiso   1.00
H478   H     0.01542   0.55305   0.28656   0.00000  Uiso   1.00
H479   H     0.04500   0.50174   0.28025   0.00000  Uiso   1.00
H480   H     0.03631   0.53954   0.23030   0.00000  Uiso   1.00
H481   H     0.30507   0.97686   0.21522   0.00000  Uiso   1.00
H482   H     0.27654   0.52744   0.22583   0.00000  Uiso   1.00
H483   H     0.27442   0.50446   0.31250   0.00000  Uiso   1.00
H484   H     0.30616   0.95781   0.30211   0.00000  Uiso   1.00
N485   N     0.18900   0.83063   0.12776   0.00000  Uiso   1.00
O486   O     0.23279   0.84128   0.15308   0.00000  Uiso   1.00
O487   O     0.16087   0.86240   0.11174   0.00000  Uiso   1.00
N488   N     0.11831   0.67589   0.36653   0.00000  Uiso   1.00
O489   O     0.08399   0.68047   0.32936   0.00000  Uiso   1.00
O490   O     0.11977   0.63694   0.38646   0.00000  Uiso   1.00
N491   N     0.12522   0.67384   0.12011   0.00000  Uiso   1.00
O492   O     0.08784   0.67988   0.14333   0.00000  Uiso   1.00
O493   O     0.12782   0.63438   0.10212   0.00000  Uiso   1.00
N494   N     0.19857   0.82842   0.38154   0.00000  Uiso   1.00
O495   O     0.24229   0.84953   0.39572   0.00000  Uiso   1.00
O496   O     0.15985   0.85219   0.37085   0.00000  Uiso   1.00
O497   O     0.50000   0.68572   0.29071   0.00000  Uiso   1.00
O498   O     0.50000   0.81427   0.20928   0.00000  Uiso   1.00
O499   O     0.50000   0.68573   0.20928   0.00000  Uiso   1.00
O500   O     0.50000   0.81427   0.29072   0.00000  Uiso   1.00
C501   C     0.50762   0.66603   0.25110   0.00000  Uiso   1.00
C502   C     0.50181   0.83514   0.25034   0.00000  Uiso   1.00
O503   O     0.42495   0.75000   0.28132   0.00000  Uiso   1.00
O504   O     0.57505   0.75000   0.21868   0.00000  Uiso   1.00
O505   O     0.42495   0.75000   0.19988   0.00000  Uiso   1.00
O506   O     0.57505   0.75000   0.30011   0.00000  Uiso   1.00
C507   C     0.40170   0.75285   0.23729   0.00000  Uiso   1.00
C508   C     0.59881   0.75333   0.26254   0.00000  Uiso   1.00
Cu509  Cu    0.50000   0.74999   0.29821   0.00000  Uiso   1.00
Cu510  Cu    0.50000   0.75000   0.20178   0.00000  Uiso   1.00
C511   C     0.34688   0.75784   0.22948   0.00000  Uiso   1.00
C512   C     0.65451   0.76022   0.26925   0.00000  Uiso   1.00
C513   C     0.52718   0.54971   0.29573   0.00000  Uiso   1.00
C514   C     0.46888   0.95455   0.24164   0.00000  Uiso   1.00
H515   H     0.53259   0.53151   0.32924   0.00000  Uiso   1.00
H516   H     0.43576   0.97323   0.23271   0.00000  Uiso   1.00
C517   C     0.53150   0.59601   0.29691   0.00000  Uiso   1.00
C518   C     0.46364   0.90837   0.23834   0.00000  Uiso   1.00
C519   C     0.52109   0.61892   0.25275   0.00000  Uiso   1.00
C520   C     0.50661   0.88407   0.25130   0.00000  Uiso   1.00
C521   C     0.52470   0.59589   0.20925   0.00000  Uiso   1.00
C522   C     0.55458   0.90687   0.26667   0.00000  Uiso   1.00
C523   C     0.51478   0.54903   0.20757   0.00000  Uiso   1.00
C524   C     0.55978   0.95412   0.26783   0.00000  Uiso   1.00
C525   C     0.51781   0.52619   0.25199   0.00000  Uiso   1.00
C526   C     0.51591   0.97742   0.25402   0.00000  Uiso   1.00
C527   C     0.51436   0.78705   0.05495   0.00000  Uiso   1.00
C528   C     0.47950   0.71337   0.44349   0.00000  Uiso   1.00
H529   H     0.52201   0.81837   0.03798   0.00000  Uiso   1.00
H530   H     0.45853   0.68640   0.45850   0.00000  Uiso   1.00
C531   C     0.51306   0.78795   0.10487   0.00000  Uiso   1.00
C532   C     0.47781   0.71402   0.39288   0.00000  Uiso   1.00
N533   N     0.50000   0.75001   0.12934   0.00000  Uiso   1.00
N534   N     0.50000   0.74999   0.37065   0.00000  Uiso   1.00
C535   C     0.48548   0.71149   0.10192   0.00000  Uiso   1.00
C536   C     0.52251   0.78510   0.40006   0.00000  Uiso   1.00
C537   C     0.49174   0.70947   0.05275   0.00000  Uiso   1.00
C538   C     0.52876   0.78225   0.45070   0.00000  Uiso   1.00
H539   H     0.48323   0.67802   0.03378   0.00000  Uiso   1.00
H540   H     0.54925   0.80978   0.47146   0.00000  Uiso   1.00
C541   C     0.50515   0.74757   0.02782   0.00000  Uiso   1.00
C542   C     0.50561   0.74712   0.47365   0.00000  Uiso   1.00
C543   C     0.65297   0.75985   0.17635   0.00000  Uiso   1.00
C544   C     0.34925   0.77049   0.13411   0.00000  Uiso   1.00
C545   C     0.64730   0.77992   0.08763   0.00000  Uiso   1.00
H546   H     0.61961   0.75103   0.07758   0.00000  Uiso   1.00
H547   H     0.62664   0.80988   0.09205   0.00000  Uiso   1.00
H548   H     0.33642   0.78587   0.05777   0.00000  Uiso   1.00
H549   H     0.37653   0.79976   0.14313   0.00000  Uiso   1.00
H550   H     0.36952   0.74153   0.12576   0.00000  Uiso   1.00
H551   H     0.63050   0.72785   0.16691   0.00000  Uiso   1.00
H552   H     0.62802   0.78741   0.17541   0.00000  Uiso   1.00
C553   C     0.34957   0.77189   0.32079   0.00000  Uiso   1.00
C554   C     0.65373   0.78539   0.36096   0.00000  Uiso   1.00
C555   C     0.35608   0.80574   0.40449   0.00000  Uiso   1.00
H556   H     0.38456   0.78207   0.41848   0.00000  Uiso   1.00
H557   H     0.37581   0.83711   0.39426   0.00000  Uiso   1.00
H558   H     0.33411   0.81331   0.43372   0.00000  Uiso   1.00
H559   H     0.62672   0.80970   0.34695   0.00000  Uiso   1.00
H560   H     0.63294   0.75581   0.37389   0.00000  Uiso   1.00
H561   H     0.36894   0.74272   0.33543   0.00000  Uiso   1.00
H562   H     0.37738   0.80042   0.31722   0.00000  Uiso   1.00
C563   C     0.55644   0.61852   0.34399   0.00000  Uiso   1.00
C564   C     0.60996   0.63806   0.33998   0.00000  Uiso   1.00
C565   C     0.63647   0.65733   0.38847   0.00000  Uiso   1.00
H566   H     0.61349   0.68232   0.40226   0.00000  Uiso   1.00
H567   H     0.64238   0.63045   0.41532   0.00000  Uiso   1.00
H568   H     0.34050   0.67368   0.38413   0.00000  Uiso   1.00
H569   H     0.63255   0.61168   0.32816   0.00000  Uiso   1.00
H570   H     0.60822   0.66479   0.31272   0.00000  Uiso   1.00
H571   H     0.53441   0.64475   0.35549   0.00000  Uiso   1.00
H572   H     0.55917   0.59417   0.37388   0.00000  Uiso   1.00
C573   C     0.41135   0.88721   0.22031   0.00000  Uiso   1.00
C574   C     0.39563   0.89761   0.16657   0.00000  Uiso   1.00
C575   C     0.33872   0.89123   0.15184   0.00000  Uiso   1.00
H576   H     0.65858   0.85812   0.16308   0.00000  Uiso   1.00
H577   H     0.65297   0.91676   0.16940   0.00000  Uiso   1.00
H578   H     0.66225   0.89391   0.11205   0.00000  Uiso   1.00
H579   H     0.40761   0.93235   0.15821   0.00000  Uiso   1.00
H580   H     0.41400   0.87518   0.14430   0.00000  Uiso   1.00
H581   H     0.40889   0.85065   0.22493   0.00000  Uiso   1.00
H582   H     0.38447   0.90065   0.24233   0.00000  Uiso   1.00
N583   N     0.55044   0.61848   0.17324   0.00000  Uiso   1.00
O584   O     0.58222   0.65247   0.18646   0.00000  Uiso   1.00
O585   O     0.55270   0.60002   0.13169   0.00000  Uiso   1.00
N586   N     0.59802   0.88191   0.27994   0.00000  Uiso   1.00
O587   O     0.62333   0.88540   0.32334   0.00000  Uiso   1.00
O588   O     0.61303   0.85626   0.24838   0.00000  Uiso   1.00
C589   C     0.49723   0.52442   0.15964   0.00000  Uiso   1.00
C590   C     0.53795   0.99730   0.14287   0.00000  Uiso   1.00
C591   C     0.51968   0.97660   0.09296   0.00000  Uiso   1.00
H592   H     0.48465   0.95477   0.09346   0.00000  Uiso   1.00
H593   H     0.51203   0.50299   0.06580   0.00000  Uiso   1.00
H594   H     0.54924   0.95627   0.08229   0.00000  Uiso   1.00
H595   H     0.57297   0.51880   0.14136   0.00000  Uiso   1.00
H596   H     0.54734   0.97000   0.16830   0.00000  Uiso   1.00
H597   H     0.46330   0.50211   0.16257   0.00000  Uiso   1.00
H598   H     0.48321   0.54788   0.13114   0.00000  Uiso   1.00
C599   C     0.61117   0.97950   0.28430   0.00000  Uiso   1.00
C600   C     0.63423   0.50210   0.24293   0.00000  Uiso   1.00
C601   C     0.35264   0.52549   0.26125   0.00000  Uiso   1.00
H602   H     0.34876   0.55305   0.28656   0.00000  Uiso   1.00
H603   H     0.37833   0.50174   0.28025   0.00000  Uiso   1.00
H604   H     0.36965   0.53954   0.23030   0.00000  Uiso   1.00
H605   H     0.63841   0.97686   0.21522   0.00000  Uiso   1.00
H606   H     0.60988   0.52744   0.22583   0.00000  Uiso   1.00
H607   H     0.60775   0.50446   0.31250   0.00000  Uiso   1.00
H608   H     0.63949   0.95781   0.30211   0.00000  Uiso   1.00
N609   N     0.52234   0.83063   0.12776   0.00000  Uiso   1.00
O610   O     0.56613   0.84128   0.15308   0.00000  Uiso   1.00
O611   O     0.49420   0.86240   0.11174   0.00000  Uiso   1.00
N612   N     0.45164   0.67589   0.36653   0.00000  Uiso   1.00
O613   O     0.41733   0.68047   0.32936   0.00000  Uiso   1.00
O614   O     0.45311   0.63694   0.38646   0.00000  Uiso   1.00
N615   N     0.45855   0.67384   0.12011   0.00000  Uiso   1.00
O616   O     0.42117   0.67988   0.14333   0.00000  Uiso   1.00
O617   O     0.46115   0.63438   0.10212   0.00000  Uiso   1.00
N618   N     0.53191   0.82842   0.38154   0.00000  Uiso   1.00
O619   O     0.57563   0.84953   0.39572   0.00000  Uiso   1.00
O620   O     0.49319   0.85219   0.37085   0.00000  Uiso   1.00
O621   O     0.83334   0.68572   0.29071   0.00000  Uiso   1.00
O622   O     0.83333   0.81427   0.20928   0.00000  Uiso   1.00
O623   O     0.83334   0.68573   0.20928   0.00000  Uiso   1.00
O624   O     0.83333   0.81427   0.29072   0.00000  Uiso   1.00
C625   C     0.84096   0.66603   0.25110   0.00000  Uiso   1.00
C626   C     0.83515   0.83514   0.25034   0.00000  Uiso   1.00
O627   O     0.75828   0.75000   0.28132   0.00000  Uiso   1.00
O628   O     0.90839   0.75000   0.21868   0.00000  Uiso   1.00
O629   O     0.75828   0.75000   0.19988   0.00000  Uiso   1.00
O630   O     0.90839   0.75000   0.30011   0.00000  Uiso   1.00
C631   C     0.73503   0.75285   0.23729   0.00000  Uiso   1.00
C632   C     0.93214   0.75333   0.26254   0.00000  Uiso   1.00
Cu633  Cu    0.83333   0.74999   0.29821   0.00000  Uiso   1.00
Cu634  Cu    0.83333   0.75000   0.20178   0.00000  Uiso   1.00
C635   C     0.68021   0.75784   0.22948   0.00000  Uiso   1.00
C636   C     0.98785   0.76022   0.26925   0.00000  Uiso   1.00
C637   C     0.86052   0.54971   0.29573   0.00000  Uiso   1.00
C638   C     0.80221   0.95455   0.24164   0.00000  Uiso   1.00
H639   H     0.86592   0.53151   0.32924   0.00000  Uiso   1.00
H640   H     0.76910   0.97323   0.23271   0.00000  Uiso   1.00
C641   C     0.86483   0.59601   0.29691   0.00000  Uiso   1.00
C642   C     0.79697   0.90837   0.23834   0.00000  Uiso   1.00
C643   C     0.85442   0.61892   0.25275   0.00000  Uiso   1.00
C644   C     0.83994   0.88407   0.25130   0.00000  Uiso   1.00
C645   C     0.85803   0.59589   0.20925   0.00000  Uiso   1.00
C646   C     0.88792   0.90687   0.26667   0.00000  Uiso   1.00
C647   C     0.84811   0.54903   0.20757   0.00000  Uiso   1.00
C648   C     0.89312   0.95412   0.26783   0.00000  Uiso   1.00
C649   C     0.85114   0.52619   0.25199   0.00000  Uiso   1.00
C650   C     0.84924   0.97742   0.25402   0.00000  Uiso   1.00
C651   C     0.84770   0.78705   0.05495   0.00000  Uiso   1.00
C652   C     0.81283   0.71337   0.44349   0.00000  Uiso   1.00
H653   H     0.85534   0.81837   0.03798   0.00000  Uiso   1.00
H654   H     0.79187   0.68640   0.45850   0.00000  Uiso   1.00
C655   C     0.84639   0.78795   0.10487   0.00000  Uiso   1.00
C656   C     0.81115   0.71402   0.39288   0.00000  Uiso   1.00
N657   N     0.83333   0.75001   0.12934   0.00000  Uiso   1.00
N658   N     0.83333   0.74999   0.37065   0.00000  Uiso   1.00
C659   C     0.81881   0.71149   0.10192   0.00000  Uiso   1.00
C660   C     0.85584   0.78510   0.40006   0.00000  Uiso   1.00
C661   C     0.82507   0.70947   0.05275   0.00000  Uiso   1.00
C662   C     0.86210   0.78225   0.45070   0.00000  Uiso   1.00
H663   H     0.81656   0.67802   0.03378   0.00000  Uiso   1.00
H664   H     0.88258   0.80978   0.47146   0.00000  Uiso   1.00
C665   C     0.83849   0.74757   0.02782   0.00000  Uiso   1.00
C666   C     0.83894   0.74712   0.47365   0.00000  Uiso   1.00
C667   C     0.98631   0.75985   0.17635   0.00000  Uiso   1.00
C668   C     0.68259   0.77049   0.13411   0.00000  Uiso   1.00
C669   C     0.98063   0.77992   0.08763   0.00000  Uiso   1.00
H670   H     0.95295   0.75103   0.07758   0.00000  Uiso   1.00
H671   H     0.95997   0.80988   0.09205   0.00000  Uiso   1.00
H672   H     0.66976   0.78587   0.05777   0.00000  Uiso   1.00
H673   H     0.70986   0.79976   0.14313   0.00000  Uiso   1.00
H674   H     0.70285   0.74153   0.12576   0.00000  Uiso   1.00
H675   H     0.96384   0.72785   0.16691   0.00000  Uiso   1.00
H676   H     0.96136   0.78741   0.17541   0.00000  Uiso   1.00
C677   C     0.68291   0.77189   0.32079   0.00000  Uiso   1.00
C678   C     0.98706   0.78539   0.36096   0.00000  Uiso   1.00
C679   C     0.68941   0.80574   0.40449   0.00000  Uiso   1.00
H680   H     0.71789   0.78207   0.41848   0.00000  Uiso   1.00
H681   H     0.70914   0.83711   0.39426   0.00000  Uiso   1.00
H682   H     0.66745   0.81331   0.43372   0.00000  Uiso   1.00
H683   H     0.96006   0.80970   0.34695   0.00000  Uiso   1.00
H684   H     0.96627   0.75581   0.37389   0.00000  Uiso   1.00
H685   H     0.70228   0.74272   0.33543   0.00000  Uiso   1.00
H686   H     0.71072   0.80042   0.31722   0.00000  Uiso   1.00
C687   C     0.88977   0.61852   0.34399   0.00000  Uiso   1.00
C688   C     0.94330   0.63806   0.33998   0.00000  Uiso   1.00
C689   C     0.96981   0.65733   0.38847   0.00000  Uiso   1.00
H690   H     0.94682   0.68232   0.40226   0.00000  Uiso   1.00
H691   H     0.97571   0.63045   0.41532   0.00000  Uiso   1.00
H692   H     0.67384   0.67368   0.38413   0.00000  Uiso   1.00
H693   H     0.96589   0.61168   0.32816   0.00000  Uiso   1.00
H694   H     0.94155   0.66479   0.31272   0.00000  Uiso   1.00
H695   H     0.86774   0.64475   0.35549   0.00000  Uiso   1.00
H696   H     0.89250   0.59417   0.37388   0.00000  Uiso   1.00
C697   C     0.74468   0.88721   0.22031   0.00000  Uiso   1.00
C698   C     0.72896   0.89761   0.16657   0.00000  Uiso   1.00
C699   C     0.67206   0.89123   0.15184   0.00000  Uiso   1.00
H700   H     0.99191   0.85812   0.16308   0.00000  Uiso   1.00
H701   H     0.98630   0.91676   0.16940   0.00000  Uiso   1.00
H702   H     0.99558   0.89391   0.11205   0.00000  Uiso   1.00
H703   H     0.74094   0.93235   0.15821   0.00000  Uiso   1.00
H704   H     0.74734   0.87518   0.14430   0.00000  Uiso   1.00
H705   H     0.74222   0.85065   0.22493   0.00000  Uiso   1.00
H706   H     0.71780   0.90065   0.24233   0.00000  Uiso   1.00
N707   N     0.88377   0.61848   0.17324   0.00000  Uiso   1.00
O708   O     0.91555   0.65247   0.18646   0.00000  Uiso   1.00
O709   O     0.88603   0.60002   0.13169   0.00000  Uiso   1.00
N710   N     0.93136   0.88191   0.27994   0.00000  Uiso   1.00
O711   O     0.95666   0.88540   0.32334   0.00000  Uiso   1.00
O712   O     0.94636   0.85626   0.24838   0.00000  Uiso   1.00
C713   C     0.83056   0.52442   0.15964   0.00000  Uiso   1.00
C714   C     0.87128   0.99730   0.14287   0.00000  Uiso   1.00
C715   C     0.85302   0.97660   0.09296   0.00000  Uiso   1.00
H716   H     0.81799   0.95477   0.09346   0.00000  Uiso   1.00
H717   H     0.84536   0.50299   0.06580   0.00000  Uiso   1.00
H718   H     0.88257   0.95627   0.08229   0.00000  Uiso   1.00
H719   H     0.90630   0.51880   0.14136   0.00000  Uiso   1.00
H720   H     0.88067   0.97000   0.16830   0.00000  Uiso   1.00
H721   H     0.79663   0.50211   0.16257   0.00000  Uiso   1.00
H722   H     0.81655   0.54788   0.13114   0.00000  Uiso   1.00
C723   C     0.94450   0.97950   0.28430   0.00000  Uiso   1.00
C724   C     0.96757   0.50210   0.24293   0.00000  Uiso   1.00
C725   C     0.68598   0.52549   0.26125   0.00000  Uiso   1.00
H726   H     0.68209   0.55305   0.28656   0.00000  Uiso   1.00
H727   H     0.71166   0.50174   0.28025   0.00000  Uiso   1.00
H728   H     0.70298   0.53954   0.23030   0.00000  Uiso   1.00
H729   H     0.97174   0.97686   0.21522   0.00000  Uiso   1.00
H730   H     0.94321   0.52744   0.22583   0.00000  Uiso   1.00
H731   H     0.94108   0.50446   0.31250   0.00000  Uiso   1.00
H732   H     0.97283   0.95781   0.30211   0.00000  Uiso   1.00
N733   N     0.85567   0.83063   0.12776   0.00000  Uiso   1.00
O734   O     0.89946   0.84128   0.15308   0.00000  Uiso   1.00
O735   O     0.82754   0.86240   0.11174   0.00000  Uiso   1.00
N736   N     0.78497   0.67589   0.36653   0.00000  Uiso   1.00
O737   O     0.75066   0.68047   0.32936   0.00000  Uiso   1.00
O738   O     0.78644   0.63694   0.38646   0.00000  Uiso   1.00
N739   N     0.79188   0.67384   0.12011   0.00000  Uiso   1.00
O740   O     0.75451   0.67988   0.14333   0.00000  Uiso   1.00
O741   O     0.79449   0.63438   0.10212   0.00000  Uiso   1.00
N742   N     0.86524   0.82842   0.38154   0.00000  Uiso   1.00
O743   O     0.90896   0.84953   0.39572   0.00000  Uiso   1.00
O744   O     0.82652   0.85219   0.37085   0.00000  Uiso   1.00
O745   O     0.16667   0.18572   0.79071   0.00000  Uiso   1.00
O746   O     0.16666   0.31427   0.70928   0.00000  Uiso   1.00
O747   O     0.16667   0.18573   0.70928   0.00000  Uiso   1.00
O748   O     0.16666   0.31427   0.79072   0.00000  Uiso   1.00
C749   C     0.17429   0.16603   0.75110   0.00000  Uiso   1.00
C750   C     0.16848   0.33514   0.75034   0.00000  Uiso   1.00
O751   O     0.09161   0.25000   0.78132   0.00000  Uiso   1.00
O752   O     0.24172   0.25000   0.71868   0.00000  Uiso   1.00
O753   O     0.09161   0.25000   0.69988   0.00000  Uiso   1.00
O754   O     0.24172   0.25000   0.80011   0.00000  Uiso   1.00
C755   C     0.06836   0.25285   0.73729   0.00000  Uiso   1.00
C756   C     0.26547   0.25333   0.76254   0.00000  Uiso   1.00
Cu757  Cu    0.16667   0.24999   0.79821   0.00000  Uiso   1.00
Cu758  Cu    0.16667   0.25000   0.70178   0.00000  Uiso   1.00
C759   C     0.01354   0.25784   0.72948   0.00000  Uiso   1.00
C760   C     0.32118   0.26022   0.76925   0.00000  Uiso   1.00
C761   C     0.19385   0.04971   0.79573   0.00000  Uiso   1.00
C762   C     0.13554   0.45455   0.74164   0.00000  Uiso   1.00
H763   H     0.19926   0.03151   0.82924   0.00000  Uiso   1.00
H764   H     0.10243   0.47323   0.73271   0.00000  Uiso   1.00
C765   C     0.19816   0.09601   0.79691   0.00000  Uiso   1.00
C766   C     0.13031   0.40837   0.73834   0.00000  Uiso   1.00
C767   C     0.18776   0.11892   0.75275   0.00000  Uiso   1.00
C768   C     0.17327   0.38407   0.75130   0.00000  Uiso   1.00
C769   C     0.19136   0.09589   0.70925   0.00000  Uiso   1.00
C770   C     0.22125   0.40687   0.76667   0.00000  Uiso   1.00
C771   C     0.18145   0.04903   0.70757   0.00000  Uiso   1.00
C772   C     0.22645   0.45412   0.76783   0.00000  Uiso   1.00
C773   C     0.18448   0.02619   0.75199   0.00000  Uiso   1.00
C774   C     0.18258   0.47742   0.75402   0.00000  Uiso   1.00
C775   C     0.18103   0.28705   0.55495   0.00000  Uiso   1.00
C776   C     0.14616   0.21337   0.94349   0.00000  Uiso   1.00
H777   H     0.18867   0.31837   0.53798   0.00000  Uiso   1.00
H778   H     0.12520   0.18640   0.95850   0.00000  Uiso   1.00
C779   C     0.17973   0.28795   0.60487   0.00000  Uiso   1.00
C780   C     0.14448   0.21402   0.89288   0.00000  Uiso   1.00
N781   N     0.16667   0.25001   0.62934   0.00000  Uiso   1.00
N782   N     0.16667   0.24999   0.87065   0.00000  Uiso   1.00
C783   C     0.15214   0.21149   0.60192   0.00000  Uiso   1.00
C784   C     0.18917   0.28510   0.90006   0.00000  Uiso   1.00
C785   C     0.15841   0.20947   0.55275   0.00000  Uiso   1.00
C786   C     0.19543   0.28225   0.95070   0.00000  Uiso   1.00
H787   H     0.14989   0.17802   0.53378   0.00000  Uiso   1.00
H788   H     0.21592   0.30978   0.97146   0.00000  Uiso   1.00
C789   C     0.17182   0.24757   0.52782   0.00000  Uiso   1.00
C790   C     0.17228   0.24712   0.97365   0.00000  Uiso   1.00
C791   C     0.31964   0.25985   0.67635   0.00000  Uiso   1.00
C792   C     0.01592   0.27049   0.63411   0.00000  Uiso   1.00
C793   C     0.31396   0.27992   0.58763   0.00000  Uiso   1.00
H794   H     0.28628   0.25103   0.57758   0.00000  Uiso   1.00
H795   H     0.29330   0.30988   0.59205   0.00000  Uiso   1.00
H796   H     0.00309   0.28587   0.55777   0.00000  Uiso   1.00
H797   H     0.04319   0.29976   0.64313   0.00000  Uiso   1.00
H798   H     0.03619   0.24153   0.62576   0.00000  Uiso   1.00
H799   H     0.29717   0.22785   0.66691   0.00000  Uiso   1.00
H800   H     0.29469   0.28741   0.67541   0.00000  Uiso   1.00
C801   C     0.01624   0.27189   0.82079   0.00000  Uiso   1.00
C802   C     0.32040   0.28539   0.86096   0.00000  Uiso   1.00
C803   C     0.02274   0.30574   0.90449   0.00000  Uiso   1.00
H804   H     0.05123   0.28207   0.91848   0.00000  Uiso   1.00
H805   H     0.04247   0.33711   0.89426   0.00000  Uiso   1.00
H806   H     0.00078   0.31331   0.93372   0.00000  Uiso   1.00
H807   H     0.29339   0.30970   0.84695   0.00000  Uiso   1.00
H808   H     0.29961   0.25581   0.87389   0.00000  Uiso   1.00
H809   H     0.03561   0.24272   0.83543   0.00000  Uiso   1.00
H810   H     0.04405   0.30042   0.81722   0.00000  Uiso   1.00
C811   C     0.22311   0.11852   0.84399   0.00000  Uiso   1.00
C812   C     0.27663   0.13806   0.83998   0.00000  Uiso   1.00
C813   C     0.30314   0.15733   0.88847   0.00000  Uiso   1.00
H814   H     0.28015   0.18232   0.90226   0.00000  Uiso   1.00
H815   H     0.30904   0.13045   0.91532   0.00000  Uiso   1.00
H816   H     0.00717   0.17368   0.88413   0.00000  Uiso   1.00
H817   H     0.29922   0.11168   0.82816   0.00000  Uiso   1.00
H818   H     0.27488   0.16479   0.81272   0.00000  Uiso   1.00
H819   H     0.20107   0.14475   0.85549   0.00000  Uiso   1.00
H820   H     0.22584   0.09417   0.87388   0.00000  Uiso   1.00
C821   C     0.07801   0.38721   0.72031   0.00000  Uiso   1.00
C822   C     0.06229   0.39761   0.66657   0.00000  Uiso   1.00
C823   C     0.00539   0.39123   0.65184   0.00000  Uiso   1.00
H824   H     0.32525   0.35812   0.66308   0.00000  Uiso   1.00
H825   H     0.31963   0.41676   0.66940   0.00000  Uiso   1.00
H826   H     0.32891   0.39391   0.61205   0.00000  Uiso   1.00
H827   H     0.07428   0.43235   0.65821   0.00000  Uiso   1.00
H828   H     0.08067   0.37518   0.64430   0.00000  Uiso   1.00
H829   H     0.07555   0.35065   0.72493   0.00000  Uiso   1.00
H830   H     0.05113   0.40065   0.74233   0.00000  Uiso   1.00
N831   N     0.21710   0.11848   0.67324   0.00000  Uiso   1.00
O832   O     0.24888   0.15247   0.68646   0.00000  Uiso   1.00
O833   O     0.21937   0.10002   0.63169   0.00000  Uiso   1.00
N834   N     0.26469   0.38191   0.77994   0.00000  Uiso   1.00
O835   O     0.28999   0.38540   0.82334   0.00000  Uiso   1.00
O836   O     0.27969   0.35626   0.74838   0.00000  Uiso   1.00
C837   C     0.16390   0.02442   0.65964   0.00000  Uiso   1.00
C838   C     0.20462   0.49730   0.64287   0.00000  Uiso   1.00
C839   C     0.18635   0.47660   0.59296   0.00000  Uiso   1.00
H840   H     0.15132   0.45477   0.59346   0.00000  Uiso   1.00
H841   H     0.17870   0.00299   0.56580   0.00000  Uiso   1.00
H842   H     0.21590   0.45627   0.58229   0.00000  Uiso   1.00
H843   H     0.23963   0.01880   0.64136   0.00000  Uiso   1.00
H844   H     0.21401   0.47000   0.66830   0.00000  Uiso   1.00
H845   H     0.12996   0.00211   0.66257   0.00000  Uiso   1.00
H846   H     0.14988   0.04788   0.63114   0.00000  Uiso   1.00
C847   C     0.27784   0.47950   0.78430   0.00000  Uiso   1.00
C848   C     0.30090   0.00210   0.74293   0.00000  Uiso   1.00
C849   C     0.01931   0.02549   0.76125   0.00000  Uiso   1.00
H850   H     0.01542   0.05305   0.78656   0.00000  Uiso   1.00
H851   H     0.04500   0.00174   0.78025   0.00000  Uiso   1.00
H852   H     0.03631   0.03954   0.73030   0.00000  Uiso   1.00
H853   H     0.30507   0.47686   0.71522   0.00000  Uiso   1.00
H854   H     0.27654   0.02744   0.72583   0.00000  Uiso   1.00
H855   H     0.27442   0.00446   0.81250   0.00000  Uiso   1.00
H856   H     0.30616   0.45781   0.80211   0.00000  Uiso   1.00
N857   N     0.18900   0.33063   0.62776   0.00000  Uiso   1.00
O858   O     0.23279   0.34128   0.65308   0.00000  Uiso   1.00
O859   O     0.16087   0.36240   0.61174   0.00000  Uiso   1.00
N860   N     0.11831   0.17589   0.86653   0.00000  Uiso   1.00
O861   O     0.08399   0.18047   0.82936   0.00000  Uiso   1.00
O862   O     0.11977   0.13694   0.88646   0.00000  Uiso   1.00
N863   N     0.12522   0.17384   0.62011   0.00000  Uiso   1.00
O864   O     0.08784   0.17988   0.64333   0.00000  Uiso   1.00
O865   O     0.12782   0.13438   0.60212   0.00000  Uiso   1.00
N866   N     0.19857   0.32842   0.88154   0.00000  Uiso   1.00
O867   O     0.24229   0.34953   0.89572   0.00000  Uiso   1.00
O868   O     0.15985   0.35219   0.87085   0.00000  Uiso   1.00
O869   O     0.50000   0.18572   0.79071   0.00000  Uiso   1.00
O870   O     0.50000   0.31427   0.70928   0.00000  Uiso   1.00
O871   O     0.50000   0.18573   0.70928   0.00000  Uiso   1.00
O872   O     0.50000   0.31427   0.79072   0.00000  Uiso   1.00
C873   C     0.50762   0.16603   0.75110   0.00000  Uiso   1.00
C874   C     0.50181   0.33514   0.75034   0.00000  Uiso   1.00
O875   O     0.42495   0.25000   0.78132   0.00000  Uiso   1.00
O876   O     0.57505   0.25000   0.71868   0.00000  Uiso   1.00
O877   O     0.42495   0.25000   0.69988   0.00000  Uiso   1.00
O878   O     0.57505   0.25000   0.80011   0.00000  Uiso   1.00
C879   C     0.40170   0.25285   0.73729   0.00000  Uiso   1.00
C880   C     0.59881   0.25333   0.76254   0.00000  Uiso   1.00
Cu881  Cu    0.50000   0.24999   0.79821   0.00000  Uiso   1.00
Cu882  Cu    0.50000   0.25000   0.70178   0.00000  Uiso   1.00
C883   C     0.34688   0.25784   0.72948   0.00000  Uiso   1.00
C884   C     0.65451   0.26022   0.76925   0.00000  Uiso   1.00
C885   C     0.52718   0.04971   0.79573   0.00000  Uiso   1.00
C886   C     0.46888   0.45455   0.74164   0.00000  Uiso   1.00
H887   H     0.53259   0.03151   0.82924   0.00000  Uiso   1.00
H888   H     0.43576   0.47323   0.73271   0.00000  Uiso   1.00
C889   C     0.53150   0.09601   0.79691   0.00000  Uiso   1.00
C890   C     0.46364   0.40837   0.73834   0.00000  Uiso   1.00
C891   C     0.52109   0.11892   0.75275   0.00000  Uiso   1.00
C892   C     0.50661   0.38407   0.75130   0.00000  Uiso   1.00
C893   C     0.52470   0.09589   0.70925   0.00000  Uiso   1.00
C894   C     0.55458   0.40687   0.76667   0.00000  Uiso   1.00
C895   C     0.51478   0.04903   0.70757   0.00000  Uiso   1.00
C896   C     0.55978   0.45412   0.76783   0.00000  Uiso   1.00
C897   C     0.51781   0.02619   0.75199   0.00000  Uiso   1.00
C898   C     0.51591   0.47742   0.75402   0.00000  Uiso   1.00
C899   C     0.51436   0.28705   0.55495   0.00000  Uiso   1.00
C900   C     0.47950   0.21337   0.94349   0.00000  Uiso   1.00
H901   H     0.52201   0.31837   0.53798   0.00000  Uiso   1.00
H902   H     0.45853   0.18640   0.95850   0.00000  Uiso   1.00
C903   C     0.51306   0.28795   0.60487   0.00000  Uiso   1.00
C904   C     0.47781   0.21402   0.89288   0.00000  Uiso   1.00
N905   N     0.50000   0.25001   0.62934   0.00000  Uiso   1.00
N906   N     0.50000   0.24999   0.87065   0.00000  Uiso   1.00
C907   C     0.48548   0.21149   0.60192   0.00000  Uiso   1.00
C908   C     0.52251   0.28510   0.90006   0.00000  Uiso   1.00
C909   C     0.49174   0.20947   0.55275   0.00000  Uiso   1.00
C910   C     0.52876   0.28225   0.95070   0.00000  Uiso   1.00
H911   H     0.48323   0.17802   0.53378   0.00000  Uiso   1.00
H912   H     0.54925   0.30978   0.97146   0.00000  Uiso   1.00
C913   C     0.50515   0.24757   0.52782   0.00000  Uiso   1.00
C914   C     0.50561   0.24712   0.97365   0.00000  Uiso   1.00
C915   C     0.65297   0.25985   0.67635   0.00000  Uiso   1.00
C916   C     0.34925   0.27049   0.63411   0.00000  Uiso   1.00
C917   C     0.64730   0.27992   0.58763   0.00000  Uiso   1.00
H918   H     0.61961   0.25103   0.57758   0.00000  Uiso   1.00
H919   H     0.62664   0.30988   0.59205   0.00000  Uiso   1.00
H920   H     0.33642   0.28587   0.55777   0.00000  Uiso   1.00
H921   H     0.37653   0.29976   0.64313   0.00000  Uiso   1.00
H922   H     0.36952   0.24153   0.62576   0.00000  Uiso   1.00
H923   H     0.63050   0.22785   0.66691   0.00000  Uiso   1.00
H924   H     0.62802   0.28741   0.67541   0.00000  Uiso   1.00
C925   C     0.34957   0.27189   0.82079   0.00000  Uiso   1.00
C926   C     0.65373   0.28539   0.86096   0.00000  Uiso   1.00
C927   C     0.35608   0.30574   0.90449   0.00000  Uiso   1.00
H928   H     0.38456   0.28207   0.91848   0.00000  Uiso   1.00
H929   H     0.37581   0.33711   0.89426   0.00000  Uiso   1.00
H930   H     0.33411   0.31331   0.93372   0.00000  Uiso   1.00
H931   H     0.62672   0.30970   0.84695   0.00000  Uiso   1.00
H932   H     0.63294   0.25581   0.87389   0.00000  Uiso   1.00
H933   H     0.36894   0.24272   0.83543   0.00000  Uiso   1.00
H934   H     0.37738   0.30042   0.81722   0.00000  Uiso   1.00
C935   C     0.55644   0.11852   0.84399   0.00000  Uiso   1.00
C936   C     0.60996   0.13806   0.83998   0.00000  Uiso   1.00
C937   C     0.63647   0.15733   0.88847   0.00000  Uiso   1.00
H938   H     0.61349   0.18232   0.90226   0.00000  Uiso   1.00
H939   H     0.64238   0.13045   0.91532   0.00000  Uiso   1.00
H940   H     0.34050   0.17368   0.88413   0.00000  Uiso   1.00
H941   H     0.63255   0.11168   0.82816   0.00000  Uiso   1.00
H942   H     0.60822   0.16479   0.81272   0.00000  Uiso   1.00
H943   H     0.53441   0.14475   0.85549   0.00000  Uiso   1.00
H944   H     0.55917   0.09417   0.87388   0.00000  Uiso   1.00
C945   C     0.41135   0.38721   0.72031   0.00000  Uiso   1.00
C946   C     0.39563   0.39761   0.66657   0.00000  Uiso   1.00
C947   C     0.33872   0.39123   0.65184   0.00000  Uiso   1.00
H948   H     0.65858   0.35812   0.66308   0.00000  Uiso   1.00
H949   H     0.65297   0.41676   0.66940   0.00000  Uiso   1.00
H950   H     0.66225   0.39391   0.61205   0.00000  Uiso   1.00
H951   H     0.40761   0.43235   0.65821   0.00000  Uiso   1.00
H952   H     0.41400   0.37518   0.64430   0.00000  Uiso   1.00
H953   H     0.40889   0.35065   0.72493   0.00000  Uiso   1.00
H954   H     0.38447   0.40065   0.74233   0.00000  Uiso   1.00
N955   N     0.55044   0.11848   0.67324   0.00000  Uiso   1.00
O956   O     0.58222   0.15247   0.68646   0.00000  Uiso   1.00
O957   O     0.55270   0.10002   0.63169   0.00000  Uiso   1.00
N958   N     0.59802   0.38191   0.77994   0.00000  Uiso   1.00
O959   O     0.62333   0.38540   0.82334   0.00000  Uiso   1.00
O960   O     0.61303   0.35626   0.74838   0.00000  Uiso   1.00
C961   C     0.49723   0.02442   0.65964   0.00000  Uiso   1.00
C962   C     0.53795   0.49730   0.64287   0.00000  Uiso   1.00
C963   C     0.51968   0.47660   0.59296   0.00000  Uiso   1.00
H964   H     0.48465   0.45477   0.59346   0.00000  Uiso   1.00
H965   H     0.51203   0.00299   0.56580   0.00000  Uiso   1.00
H966   H     0.54924   0.45627   0.58229   0.00000  Uiso   1.00
H967   H     0.57297   0.01880   0.64136   0.00000  Uiso   1.00
H968   H     0.54734   0.47000   0.66830   0.00000  Uiso   1.00
H969   H     0.46330   0.00211   0.66257   0.00000  Uiso   1.00
H970   H     0.48321   0.04788   0.63114   0.00000  Uiso   1.00
C971   C     0.61117   0.47950   0.78430   0.00000  Uiso   1.00
C972   C     0.63423   0.00210   0.74293   0.00000  Uiso   1.00
C973   C     0.35264   0.02549   0.76125   0.00000  Uiso   1.00
H974   H     0.34876   0.05305   0.78656   0.00000  Uiso   1.00
H975   H     0.37833   0.00174   0.78025   0.00000  Uiso   1.00
H976   H     0.36965   0.03954   0.73030   0.00000  Uiso   1.00
H977   H     0.63841   0.47686   0.71522   0.00000  Uiso   1.00
H978   H     0.60988   0.02744   0.72583   0.00000  Uiso   1.00
H979   H     0.60775   0.00446   0.81250   0.00000  Uiso   1.00
H980   H     0.63949   0.45781   0.80211   0.00000  Uiso   1.00
N981   N     0.52234   0.33063   0.62776   0.00000  Uiso   1.00
O982   O     0.56613   0.34128   0.65308   0.00000  Uiso   1.00
O983   O     0.49420   0.36240   0.61174   0.00000  Uiso   1.00
N984   N     0.45164   0.17589   0.86653   0.00000  Uiso   1.00
O985   O     0.41733   0.18047   0.82936   0.00000  Uiso   1.00
O986   O     0.45311   0.13694   0.88646   0.00000  Uiso   1.00
N987   N     0.45855   0.17384   0.62011   0.00000  Uiso   1.00
O988   O     0.42117   0.17988   0.64333   0.00000  Uiso   1.00
O989   O     0.46115   0.13438   0.60212   0.00000  Uiso   1.00
N990   N     0.53191   0.32842   0.88154   0.00000  Uiso   1.00
O991   O     0.57563   0.34953   0.89572   0.00000  Uiso   1.00
O992   O     0.49319   0.35219   0.87085   0.00000  Uiso   1.00
O993   O     0.83334   0.18572   0.79071   0.00000  Uiso   1.00
O994   O     0.83333   0.31427   0.70928   0.00000  Uiso   1.00
O995   O     0.83334   0.18573   0.70928   0.00000  Uiso   1.00
O996   O     0.83333   0.31427   0.79072   0.00000  Uiso   1.00
C997   C     0.84096   0.16603   0.75110   0.00000  Uiso   1.00
C998   C     0.83515   0.33514   0.75034   0.00000  Uiso   1.00
O999   O     0.75828   0.25000   0.78132   0.00000  Uiso   1.00
O1000  O     0.90839   0.25000   0.71868   0.00000  Uiso   1.00
O1001  O     0.75828   0.25000   0.69988   0.00000  Uiso   1.00
O1002  O     0.90839   0.25000   0.80011   0.00000  Uiso   1.00
C1003  C     0.73503   0.25285   0.73729   0.00000  Uiso   1.00
C1004  C     0.93214   0.25333   0.76254   0.00000  Uiso   1.00
Cu1005 Cu    0.83333   0.24999   0.79821   0.00000  Uiso   1.00
Cu1006 Cu    0.83333   0.25000   0.70178   0.00000  Uiso   1.00
C1007  C     0.68021   0.25784   0.72948   0.00000  Uiso   1.00
C1008  C     0.98785   0.26022   0.76925   0.00000  Uiso   1.00
C1009  C     0.86052   0.04971   0.79573   0.00000  Uiso   1.00
C1010  C     0.80221   0.45455   0.74164   0.00000  Uiso   1.00
H1011  H     0.86592   0.03151   0.82924   0.00000  Uiso   1.00
H1012  H     0.76910   0.47323   0.73271   0.00000  Uiso   1.00
C1013  C     0.86483   0.09601   0.79691   0.00000  Uiso   1.00
C1014  C     0.79697   0.40837   0.73834   0.00000  Uiso   1.00
C1015  C     0.85442   0.11892   0.75275   0.00000  Uiso   1.00
C1016  C     0.83994   0.38407   0.75130   0.00000  Uiso   1.00
C1017  C     0.85803   0.09589   0.70925   0.00000  Uiso   1.00
C1018  C     0.88792   0.40687   0.76667   0.00000  Uiso   1.00
C1019  C     0.84811   0.04903   0.70757   0.00000  Uiso   1.00
C1020  C     0.89312   0.45412   0.76783   0.00000  Uiso   1.00
C1021  C     0.85114   0.02619   0.75199   0.00000  Uiso   1.00
C1022  C     0.84924   0.47742   0.75402   0.00000  Uiso   1.00
C1023  C     0.84770   0.28705   0.55495   0.00000  Uiso   1.00
C1024  C     0.81283   0.21337   0.94349   0.00000  Uiso   1.00
H1025  H     0.85534   0.31837   0.53798   0.00000  Uiso   1.00
H1026  H     0.79187   0.18640   0.95850   0.00000  Uiso   1.00
C1027  C     0.84639   0.28795   0.60487   0.00000  Uiso   1.00
C1028  C     0.81115   0.21402   0.89288   0.00000  Uiso   1.00
N1029  N     0.83333   0.25001   0.62934   0.00000  Uiso   1.00
N1030  N     0.83333   0.24999   0.87065   0.00000  Uiso   1.00
C1031  C     0.81881   0.21149   0.60192   0.00000  Uiso   1.00
C1032  C     0.85584   0.28510   0.90006   0.00000  Uiso   1.00
C1033  C     0.82507   0.20947   0.55275   0.00000  Uiso   1.00
C1034  C     0.86210   0.28225   0.95070   0.00000  Uiso   1.00
H1035  H     0.81656   0.17802   0.53378   0.00000  Uiso   1.00
H1036  H     0.88258   0.30978   0.97146   0.00000  Uiso   1.00
C1037  C     0.83849   0.24757   0.52782   0.00000  Uiso   1.00
C1038  C     0.83894   0.24712   0.97365   0.00000  Uiso   1.00
C1039  C     0.98631   0.25985   0.67635   0.00000  Uiso   1.00
C1040  C     0.68259   0.27049   0.63411   0.00000  Uiso   1.00
C1041  C     0.98063   0.27992   0.58763   0.00000  Uiso   1.00
H1042  H     0.95295   0.25103   0.57758   0.00000  Uiso   1.00
H1043  H     0.95997   0.30988   0.59205   0.00000  Uiso   1.00
H1044  H     0.66976   0.28587   0.55777   0.00000  Uiso   1.00
H1045  H     0.70986   0.29976   0.64313   0.00000  Uiso   1.00
H1046  H     0.70285   0.24153   0.62576   0.00000  Uiso   1.00
H1047  H     0.96384   0.22785   0.66691   0.00000  Uiso   1.00
H1048  H     0.96136   0.28741   0.67541   0.00000  Uiso   1.00
C1049  C     0.68291   0.27189   0.82079   0.00000  Uiso   1.00
C1050  C     0.98706   0.28539   0.86096   0.00000  Uiso   1.00
C1051  C     0.68941   0.30574   0.90449   0.00000  Uiso   1.00
H1052  H     0.71789   0.28207   0.91848   0.00000  Uiso   1.00
H1053  H     0.70914   0.33711   0.89426   0.00000  Uiso   1.00
H1054  H     0.66745   0.31331   0.93372   0.00000  Uiso   1.00
H1055  H     0.96006   0.30970   0.84695   0.00000  Uiso   1.00
H1056  H     0.96627   0.25581   0.87389   0.00000  Uiso   1.00
H1057  H     0.70228   0.24272   0.83543   0.00000  Uiso   1.00
H1058  H     0.71072   0.30042   0.81722   0.00000  Uiso   1.00
C1059  C     0.88977   0.11852   0.84399   0.00000  Uiso   1.00
C1060  C     0.94330   0.13806   0.83998   0.00000  Uiso   1.00
C1061  C     0.96981   0.15733   0.88847   0.00000  Uiso   1.00
H1062  H     0.94682   0.18232   0.90226   0.00000  Uiso   1.00
H1063  H     0.97571   0.13045   0.91532   0.00000  Uiso   1.00
H1064  H     0.67384   0.17368   0.88413   0.00000  Uiso   1.00
H1065  H     0.96589   0.11168   0.82816   0.00000  Uiso   1.00
H1066  H     0.94155   0.16479   0.81272   0.00000  Uiso   1.00
H1067  H     0.86774   0.14475   0.85549   0.00000  Uiso   1.00
H1068  H     0.89250   0.09417   0.87388   0.00000  Uiso   1.00
C1069  C     0.74468   0.38721   0.72031   0.00000  Uiso   1.00
C1070  C     0.72896   0.39761   0.66657   0.00000  Uiso   1.00
C1071  C     0.67206   0.39123   0.65184   0.00000  Uiso   1.00
H1072  H     0.99191   0.35812   0.66308   0.00000  Uiso   1.00
H1073  H     0.98630   0.41676   0.66940   0.00000  Uiso   1.00
H1074  H     0.99558   0.39391   0.61205   0.00000  Uiso   1.00
H1075  H     0.74094   0.43235   0.65821   0.00000  Uiso   1.00
H1076  H     0.74734   0.37518   0.64430   0.00000  Uiso   1.00
H1077  H     0.74222   0.35065   0.72493   0.00000  Uiso   1.00
H1078  H     0.71780   0.40065   0.74233   0.00000  Uiso   1.00
N1079  N     0.88377   0.11848   0.67324   0.00000  Uiso   1.00
O1080  O     0.91555   0.15247   0.68646   0.00000  Uiso   1.00
O1081  O     0.88603   0.10002   0.63169   0.00000  Uiso   1.00
N1082  N     0.93136   0.38191   0.77994   0.00000  Uiso   1.00
O1083  O     0.95666   0.38540   0.82334   0.00000  Uiso   1.00
O1084  O     0.94636   0.35626   0.74838   0.00000  Uiso   1.00
C1085  C     0.83056   0.02442   0.65964   0.00000  Uiso   1.00
C1086  C     0.87128   0.49730   0.64287   0.00000  Uiso   1.00
C1087  C     0.85302   0.47660   0.59296   0.00000  Uiso   1.00
H1088  H     0.81799   0.45477   0.59346   0.00000  Uiso   1.00
H1089  H     0.84536   0.00299   0.56580   0.00000  Uiso   1.00
H1090  H     0.88257   0.45627   0.58229   0.00000  Uiso   1.00
H1091  H     0.90630   0.01880   0.64136   0.00000  Uiso   1.00
H1092  H     0.88067   0.47000   0.66830   0.00000  Uiso   1.00
H1093  H     0.79663   0.00211   0.66257   0.00000  Uiso   1.00
H1094  H     0.81655   0.04788   0.63114   0.00000  Uiso   1.00
C1095  C     0.94450   0.47950   0.78430   0.00000  Uiso   1.00
C1096  C     0.96757   0.00210   0.74293   0.00000  Uiso   1.00
C1097  C     0.68598   0.02549   0.76125   0.00000  Uiso   1.00
H1098  H     0.68209   0.05305   0.78656   0.00000  Uiso   1.00
H1099  H     0.71166   0.00174   0.78025   0.00000  Uiso   1.00
H1100  H     0.70298   0.03954   0.73030   0.00000  Uiso   1.00
H1101  H     0.97174   0.47686   0.71522   0.00000  Uiso   1.00
H1102  H     0.94321   0.02744   0.72583   0.00000  Uiso   1.00
H1103  H     0.94108   0.00446   0.81250   0.00000  Uiso   1.00
H1104  H     0.97283   0.45781   0.80211   0.00000  Uiso   1.00
N1105  N     0.85567   0.33063   0.62776   0.00000  Uiso   1.00
O1106  O     0.89946   0.34128   0.65308   0.00000  Uiso   1.00
O1107  O     0.82754   0.36240   0.61174   0.00000  Uiso   1.00
N1108  N     0.78497   0.17589   0.86653   0.00000  Uiso   1.00
O1109  O     0.75066   0.18047   0.82936   0.00000  Uiso   1.00
O1110  O     0.78644   0.13694   0.88646   0.00000  Uiso   1.00
N1111  N     0.79188   0.17384   0.62011   0.00000  Uiso   1.00
O1112  O     0.75451   0.17988   0.64333   0.00000  Uiso   1.00
O1113  O     0.79449   0.13438   0.60212   0.00000  Uiso   1.00
N1114  N     0.86524   0.32842   0.88154   0.00000  Uiso   1.00
O1115  O     0.90896   0.34953   0.89572   0.00000  Uiso   1.00
O1116  O     0.82652   0.35219   0.87085   0.00000  Uiso   1.00
O1117  O     0.16667   0.68572   0.79071   0.00000  Uiso   1.00
O1118  O     0.16666   0.81427   0.70928   0.00000  Uiso   1.00
O1119  O     0.16667   0.68573   0.70928   0.00000  Uiso   1.00
O1120  O     0.16666   0.81427   0.79072   0.00000  Uiso   1.00
C1121  C     0.17429   0.66603   0.75110   0.00000  Uiso   1.00
C1122  C     0.16848   0.83514   0.75034   0.00000  Uiso   1.00
O1123  O     0.09161   0.75000   0.78132   0.00000  Uiso   1.00
O1124  O     0.24172   0.75000   0.71868   0.00000  Uiso   1.00
O1125  O     0.09161   0.75000   0.69988   0.00000  Uiso   1.00
O1126  O     0.24172   0.75000   0.80011   0.00000  Uiso   1.00
C1127  C     0.06836   0.75285   0.73729   0.00000  Uiso   1.00
C1128  C     0.26547   0.75333   0.76254   0.00000  Uiso   1.00
Cu1129 Cu    0.16667   0.74999   0.79821   0.00000  Uiso   1.00
Cu1130 Cu    0.16667   0.75000   0.70178   0.00000  Uiso   1.00
C1131  C     0.01354   0.75784   0.72948   0.00000  Uiso   1.00
C1132  C     0.32118   0.76022   0.76925   0.00000  Uiso   1.00
C1133  C     0.19385   0.54971   0.79573   0.00000  Uiso   1.00
C1134  C     0.13554   0.95455   0.74164   0.00000  Uiso   1.00
H1135  H     0.19926   0.53151   0.82924   0.00000  Uiso   1.00
H1136  H     0.10243   0.97323   0.73271   0.00000  Uiso   1.00
C1137  C     0.19816   0.59601   0.79691   0.00000  Uiso   1.00
C1138  C     0.13031   0.90837   0.73834   0.00000  Uiso   1.00
C1139  C     0.18776   0.61892   0.75275   0.00000  Uiso   1.00
C1140  C     0.17327   0.88407   0.75130   0.00000  Uiso   1.00
C1141  C     0.19136   0.59589   0.70925   0.00000  Uiso   1.00
C1142  C     0.22125   0.90687   0.76667   0.00000  Uiso   1.00
C1143  C     0.18145   0.54903   0.70757   0.00000  Uiso   1.00
C1144  C     0.22645   0.95412   0.76783   0.00000  Uiso   1.00
C1145  C     0.18448   0.52619   0.75199   0.00000  Uiso   1.00
C1146  C     0.18258   0.97742   0.75402   0.00000  Uiso   1.00
C1147  C     0.18103   0.78705   0.55495   0.00000  Uiso   1.00
C1148  C     0.14616   0.71337   0.94349   0.00000  Uiso   1.00
H1149  H     0.18867   0.81837   0.53798   0.00000  Uiso   1.00
H1150  H     0.12520   0.68640   0.95850   0.00000  Uiso   1.00
C1151  C     0.17973   0.78795   0.60487   0.00000  Uiso   1.00
C1152  C     0.14448   0.71402   0.89288   0.00000  Uiso   1.00
N1153  N     0.16667   0.75001   0.62934   0.00000  Uiso   1.00
N1154  N     0.16667   0.74999   0.87065   0.00000  Uiso   1.00
C1155  C     0.15214   0.71149   0.60192   0.00000  Uiso   1.00
C1156  C     0.18917   0.78510   0.90006   0.00000  Uiso   1.00
C1157  C     0.15841   0.70947   0.55275   0.00000  Uiso   1.00
C1158  C     0.19543   0.78225   0.95070   0.00000  Uiso   1.00
H1159  H     0.14989   0.67802   0.53378   0.00000  Uiso   1.00
H1160  H     0.21592   0.80978   0.97146   0.00000  Uiso   1.00
C1161  C     0.17182   0.74757   0.52782   0.00000  Uiso   1.00
C1162  C     0.17228   0.74712   0.97365   0.00000  Uiso   1.00
C1163  C     0.31964   0.75985   0.67635   0.00000  Uiso   1.00
C1164  C     0.01592   0.77049   0.63411   0.00000  Uiso   1.00
C1165  C     0.31396   0.77992   0.58763   0.00000  Uiso   1.00
H1166  H     0.28628   0.75103   0.57758   0.00000  Uiso   1.00
H1167  H     0.29330   0.80988   0.59205   0.00000  Uiso   1.00
H1168  H     0.00309   0.78587   0.55777   0.00000  Uiso   1.00
H1169  H     0.04319   0.79976   0.64313   0.00000  Uiso   1.00
H1170  H     0.03619   0.74153   0.62576   0.00000  Uiso   1.00
H1171  H     0.29717   0.72785   0.66691   0.00000  Uiso   1.00
H1172  H     0.29469   0.78741   0.67541   0.00000  Uiso   1.00
C1173  C     0.01624   0.77189   0.82079   0.00000  Uiso   1.00
C1174  C     0.32040   0.78539   0.86096   0.00000  Uiso   1.00
C1175  C     0.02274   0.80574   0.90449   0.00000  Uiso   1.00
H1176  H     0.05123   0.78207   0.91848   0.00000  Uiso   1.00
H1177  H     0.04247   0.83711   0.89426   0.00000  Uiso   1.00
H1178  H     0.00078   0.81331   0.93372   0.00000  Uiso   1.00
H1179  H     0.29339   0.80970   0.84695   0.00000  Uiso   1.00
H1180  H     0.29961   0.75581   0.87389   0.00000  Uiso   1.00
H1181  H     0.03561   0.74272   0.83543   0.00000  Uiso   1.00
H1182  H     0.04405   0.80042   0.81722   0.00000  Uiso   1.00
C1183  C     0.22311   0.61852   0.84399   0.00000  Uiso   1.00
C1184  C     0.27663   0.63806   0.83998   0.00000  Uiso   1.00
C1185  C     0.30314   0.65733   0.88847   0.00000  Uiso   1.00
H1186  H     0.28015   0.68232   0.90226   0.00000  Uiso   1.00
H1187  H     0.30904   0.63045   0.91532   0.00000  Uiso   1.00
H1188  H     0.00717   0.67368   0.88413   0.00000  Uiso   1.00
H1189  H     0.29922   0.61168   0.82816   0.00000  Uiso   1.00
H1190  H     0.27488   0.66479   0.81272   0.00000  Uiso   1.00
H1191  H     0.20107   0.64475   0.85549   0.00000  Uiso   1.00
H1192  H     0.22584   0.59417   0.87388   0.00000  Uiso   1.00
C1193  C     0.07801   0.88721   0.72031   0.00000  Uiso   1.00
C1194  C     0.06229   0.89761   0.66657   0.00000  Uiso   1.00
C1195  C     0.00539   0.89123   0.65184   0.00000  Uiso   1.00
H1196  H     0.32525   0.85812   0.66308   0.00000  Uiso   1.00
H1197  H     0.31963   0.91676   0.66940   0.00000  Uiso   1.00
H1198  H     0.32891   0.89391   0.61205   0.00000  Uiso   1.00
H1199  H     0.07428   0.93235   0.65821   0.00000  Uiso   1.00
H1200  H     0.08067   0.87518   0.64430   0.00000  Uiso   1.00
H1201  H     0.07555   0.85065   0.72493   0.00000  Uiso   1.00
H1202  H     0.05113   0.90065   0.74233   0.00000  Uiso   1.00
N1203  N     0.21710   0.61848   0.67324   0.00000  Uiso   1.00
O1204  O     0.24888   0.65247   0.68646   0.00000  Uiso   1.00
O1205  O     0.21937   0.60002   0.63169   0.00000  Uiso   1.00
N1206  N     0.26469   0.88191   0.77994   0.00000  Uiso   1.00
O1207  O     0.28999   0.88540   0.82334   0.00000  Uiso   1.00
O1208  O     0.27969   0.85626   0.74838   0.00000  Uiso   1.00
C1209  C     0.16390   0.52442   0.65964   0.00000  Uiso   1.00
C1210  C     0.20462   0.99730   0.64287   0.00000  Uiso   1.00
C1211  C     0.18635   0.97660   0.59296   0.00000  Uiso   1.00
H1212  H     0.15132   0.95477   0.59346   0.00000  Uiso   1.00
H1213  H     0.17870   0.50299   0.56580   0.00000  Uiso   1.00
H1214  H     0.21590   0.95627   0.58229   0.00000  Uiso   1.00
H1215  H     0.23963   0.51880   0.64136   0.00000  Uiso   1.00
H1216  H     0.21401   0.97000   0.66830   0.00000  Uiso   1.00
H1217  H     0.12996   0.50211   0.66257   0.00000  Uiso   1.00
H1218  H     0.14988   0.54788   0.63114   0.00000  Uiso   1.00
C1219  C     0.27784   0.97950   0.78430   0.00000  Uiso   1.00
C1220  C     0.30090   0.50210   0.74293   0.00000  Uiso   1.00
C1221  C     0.01931   0.52549   0.76125   0.00000  Uiso   1.00
H1222  H     0.01542   0.55305   0.78656   0.00000  Uiso   1.00
H1223  H     0.04500   0.50174   0.78025   0.00000  Uiso   1.00
H1224  H     0.03631   0.53954   0.73030   0.00000  Uiso   1.00
H1225  H     0.30507   0.97686   0.71522   0.00000  Uiso   1.00
H1226  H     0.27654   0.52744   0.72583   0.00000  Uiso   1.00
H1227  H     0.27442   0.50446   0.81250   0.00000  Uiso   1.00
H1228  H     0.30616   0.95781   0.80211   0.00000  Uiso   1.00
N1229  N     0.18900   0.83063   0.62776   0.00000  Uiso   1.00
O1230  O     0.23279   0.84128   0.65308   0.00000  Uiso   1.00
O1231  O     0.16087   0.86240   0.61174   0.00000  Uiso   1.00
N1232  N     0.11831   0.67589   0.86653   0.00000  Uiso   1.00
O1233  O     0.08399   0.68047   0.82936   0.00000  Uiso   1.00
O1234  O     0.11977   0.63694   0.88646   0.00000  Uiso   1.00
N1235  N     0.12522   0.67384   0.62011   0.00000  Uiso   1.00
O1236  O     0.08784   0.67988   0.64333   0.00000  Uiso   1.00
O1237  O     0.12782   0.63438   0.60212   0.00000  Uiso   1.00
N1238  N     0.19857   0.82842   0.88154   0.00000  Uiso   1.00
O1239  O     0.24229   0.84953   0.89572   0.00000  Uiso   1.00
O1240  O     0.15985   0.85219   0.87085   0.00000  Uiso   1.00
O1241  O     0.50000   0.68572   0.79071   0.00000  Uiso   1.00
O1242  O     0.50000   0.81427   0.70928   0.00000  Uiso   1.00
O1243  O     0.50000   0.68573   0.70928   0.00000  Uiso   1.00
O1244  O     0.50000   0.81427   0.79072   0.00000  Uiso   1.00
C1245  C     0.50762   0.66603   0.75110   0.00000  Uiso   1.00
C1246  C     0.50181   0.83514   0.75034   0.00000  Uiso   1.00
O1247  O     0.42495   0.75000   0.78132   0.00000  Uiso   1.00
O1248  O     0.57505   0.75000   0.71868   0.00000  Uiso   1.00
O1249  O     0.42495   0.75000   0.69988   0.00000  Uiso   1.00
O1250  O     0.57505   0.75000   0.80011   0.00000  Uiso   1.00
C1251  C     0.40170   0.75285   0.73729   0.00000  Uiso   1.00
C1252  C     0.59881   0.75333   0.76254   0.00000  Uiso   1.00
Cu1253 Cu    0.50000   0.74999   0.79821   0.00000  Uiso   1.00
Cu1254 Cu    0.50000   0.75000   0.70178   0.00000  Uiso   1.00
C1255  C     0.34688   0.75784   0.72948   0.00000  Uiso   1.00
C1256  C     0.65451   0.76022   0.76925   0.00000  Uiso   1.00
C1257  C     0.52718   0.54971   0.79573   0.00000  Uiso   1.00
C1258  C     0.46888   0.95455   0.74164   0.00000  Uiso   1.00
H1259  H     0.53259   0.53151   0.82924   0.00000  Uiso   1.00
H1260  H     0.43576   0.97323   0.73271   0.00000  Uiso   1.00
C1261  C     0.53150   0.59601   0.79691   0.00000  Uiso   1.00
C1262  C     0.46364   0.90837   0.73834   0.00000  Uiso   1.00
C1263  C     0.52109   0.61892   0.75275   0.00000  Uiso   1.00
C1264  C     0.50661   0.88407   0.75130   0.00000  Uiso   1.00
C1265  C     0.52470   0.59589   0.70925   0.00000  Uiso   1.00
C1266  C     0.55458   0.90687   0.76667   0.00000  Uiso   1.00
C1267  C     0.51478   0.54903   0.70757   0.00000  Uiso   1.00
C1268  C     0.55978   0.95412   0.76783   0.00000  Uiso   1.00
C1269  C     0.51781   0.52619   0.75199   0.00000  Uiso   1.00
C1270  C     0.51591   0.97742   0.75402   0.00000  Uiso   1.00
C1271  C     0.51436   0.78705   0.55495   0.00000  Uiso   1.00
C1272  C     0.47950   0.71337   0.94349   0.00000  Uiso   1.00
H1273  H     0.52201   0.81837   0.53798   0.00000  Uiso   1.00
H1274  H     0.45853   0.68640   0.95850   0.00000  Uiso   1.00
C1275  C     0.51306   0.78795   0.60487   0.00000  Uiso   1.00
C1276  C     0.47781   0.71402   0.89288   0.00000  Uiso   1.00
N1277  N     0.50000   0.75001   0.62934   0.00000  Uiso   1.00
N1278  N     0.50000   0.74999   0.87065   0.00000  Uiso   1.00
C1279  C     0.48548   0.71149   0.60192   0.00000  Uiso   1.00
C1280  C     0.52251   0.78510   0.90006   0.00000  Uiso   1.00
C1281  C     0.49174   0.70947   0.55275   0.00000  Uiso   1.00
C1282  C     0.52876   0.78225   0.95070   0.00000  Uiso   1.00
H1283  H     0.48323   0.67802   0.53378   0.00000  Uiso   1.00
H1284  H     0.54925   0.80978   0.97146   0.00000  Uiso   1.00
C1285  C     0.50515   0.74757   0.52782   0.00000  Uiso   1.00
C1286  C     0.50561   0.74712   0.97365   0.00000  Uiso   1.00
C1287  C     0.65297   0.75985   0.67635   0.00000  Uiso   1.00
C1288  C     0.34925   0.77049   0.63411   0.00000  Uiso   1.00
C1289  C     0.64730   0.77992   0.58763   0.00000  Uiso   1.00
H1290  H     0.61961   0.75103   0.57758   0.00000  Uiso   1.00
H1291  H     0.62664   0.80988   0.59205   0.00000  Uiso   1.00
H1292  H     0.33642   0.78587   0.55777   0.00000  Uiso   1.00
H1293  H     0.37653   0.79976   0.64313   0.00000  Uiso   1.00
H1294  H     0.36952   0.74153   0.62576   0.00000  Uiso   1.00
H1295  H     0.63050   0.72785   0.66691   0.00000  Uiso   1.00
H1296  H     0.62802   0.78741   0.67541   0.00000  Uiso   1.00
C1297  C     0.34957   0.77189   0.82079   0.00000  Uiso   1.00
C1298  C     0.65373   0.78539   0.86096   0.00000  Uiso   1.00
C1299  C     0.35608   0.80574   0.90449   0.00000  Uiso   1.00
H1300  H     0.38456   0.78207   0.91848   0.00000  Uiso   1.00
H1301  H     0.37581   0.83711   0.89426   0.00000  Uiso   1.00
H1302  H     0.33411   0.81331   0.93372   0.00000  Uiso   1.00
H1303  H     0.62672   0.80970   0.84695   0.00000  Uiso   1.00
H1304  H     0.63294   0.75581   0.87389   0.00000  Uiso   1.00
H1305  H     0.36894   0.74272   0.83543   0.00000  Uiso   1.00
H1306  H     0.37738   0.80042   0.81722   0.00000  Uiso   1.00
C1307  C     0.55644   0.61852   0.84399   0.00000  Uiso   1.00
C1308  C     0.60996   0.63806   0.83998   0.00000  Uiso   1.00
C1309  C     0.63647   0.65733   0.88847   0.00000  Uiso   1.00
H1310  H     0.61349   0.68232   0.90226   0.00000  Uiso   1.00
H1311  H     0.64238   0.63045   0.91532   0.00000  Uiso   1.00
H1312  H     0.34050   0.67368   0.88413   0.00000  Uiso   1.00
H1313  H     0.63255   0.61168   0.82816   0.00000  Uiso   1.00
H1314  H     0.60822   0.66479   0.81272   0.00000  Uiso   1.00
H1315  H     0.53441   0.64475   0.85549   0.00000  Uiso   1.00
H1316  H     0.55917   0.59417   0.87388   0.00000  Uiso   1.00
C1317  C     0.41135   0.88721   0.72031   0.00000  Uiso   1.00
C1318  C     0.39563   0.89761   0.66657   0.00000  Uiso   1.00
C1319  C     0.33872   0.89123   0.65184   0.00000  Uiso   1.00
H1320  H     0.65858   0.85812   0.66308   0.00000  Uiso   1.00
H1321  H     0.65297   0.91676   0.66940   0.00000  Uiso   1.00
H1322  H     0.66225   0.89391   0.61205   0.00000  Uiso   1.00
H1323  H     0.40761   0.93235   0.65821   0.00000  Uiso   1.00
H1324  H     0.41400   0.87518   0.64430   0.00000  Uiso   1.00
H1325  H     0.40889   0.85065   0.72493   0.00000  Uiso   1.00
H1326  H     0.38447   0.90065   0.74233   0.00000  Uiso   1.00
N1327  N     0.55044   0.61848   0.67324   0.00000  Uiso   1.00
O1328  O     0.58222   0.65247   0.68646   0.00000  Uiso   1.00
O1329  O     0.55270   0.60002   0.63169   0.00000  Uiso   1.00
N1330  N     0.59802   0.88191   0.77994   0.00000  Uiso   1.00
O1331  O     0.62333   0.88540   0.82334   0.00000  Uiso   1.00
O1332  O     0.61303   0.85626   0.74838   0.00000  Uiso   1.00
C1333  C     0.49723   0.52442   0.65964   0.00000  Uiso   1.00
C1334  C     0.53795   0.99730   0.64287   0.00000  Uiso   1.00
C1335  C     0.51968   0.97660   0.59296   0.00000  Uiso   1.00
H1336  H     0.48465   0.95477   0.59346   0.00000  Uiso   1.00
H1337  H     0.51203   0.50299   0.56580   0.00000  Uiso   1.00
H1338  H     0.54924   0.95627   0.58229   0.00000  Uiso   1.00
H1339  H     0.57297   0.51880   0.64136   0.00000  Uiso   1.00
H1340  H     0.54734   0.97000   0.66830   0.00000  Uiso   1.00
H1341  H     0.46330   0.50211   0.66257   0.00000  Uiso   1.00
H1342  H     0.48321   0.54788   0.63114   0.00000  Uiso   1.00
C1343  C     0.61117   0.97950   0.78430   0.00000  Uiso   1.00
C1344  C     0.63423   0.50210   0.74293   0.00000  Uiso   1.00
C1345  C     0.35264   0.52549   0.76125   0.00000  Uiso   1.00
H1346  H     0.34876   0.55305   0.78656   0.00000  Uiso   1.00
H1347  H     0.37833   0.50174   0.78025   0.00000  Uiso   1.00
H1348  H     0.36965   0.53954   0.73030   0.00000  Uiso   1.00
H1349  H     0.63841   0.97686   0.71522   0.00000  Uiso   1.00
H1350  H     0.60988   0.52744   0.72583   0.00000  Uiso   1.00
H1351  H     0.60775   0.50446   0.81250   0.00000  Uiso   1.00
H1352  H     0.63949   0.95781   0.80211   0.00000  Uiso   1.00
N1353  N     0.52234   0.83063   0.62776   0.00000  Uiso   1.00
O1354  O     0.56613   0.84128   0.65308   0.00000  Uiso   1.00
O1355  O     0.49420   0.86240   0.61174   0.00000  Uiso   1.00
N1356  N     0.45164   0.67589   0.86653   0.00000  Uiso   1.00
O1357  O     0.41733   0.68047   0.82936   0.00000  Uiso   1.00
O1358  O     0.45311   0.63694   0.88646   0.00000  Uiso   1.00
N1359  N     0.45855   0.67384   0.62011   0.00000  Uiso   1.00
O1360  O     0.42117   0.67988   0.64333   0.00000  Uiso   1.00
O1361  O     0.46115   0.63438   0.60212   0.00000  Uiso   1.00
N1362  N     0.53191   0.82842   0.88154   0.00000  Uiso   1.00
O1363  O     0.57563   0.84953   0.89572   0.00000  Uiso   1.00
O1364  O     0.49319   0.85219   0.87085   0.00000  Uiso   1.00
O1365  O     0.83334   0.68572   0.79071   0.00000  Uiso   1.00
O1366  O     0.83333   0.81427   0.70928   0.00000  Uiso   1.00
O1367  O     0.83334   0.68573   0.70928   0.00000  Uiso   1.00
O1368  O     0.83333   0.81427   0.79072   0.00000  Uiso   1.00
C1369  C     0.84096   0.66603   0.75110   0.00000  Uiso   1.00
C1370  C     0.83515   0.83514   0.75034   0.00000  Uiso   1.00
O1371  O     0.75828   0.75000   0.78132   0.00000  Uiso   1.00
O1372  O     0.90839   0.75000   0.71868   0.00000  Uiso   1.00
O1373  O     0.75828   0.75000   0.69988   0.00000  Uiso   1.00
O1374  O     0.90839   0.75000   0.80011   0.00000  Uiso   1.00
C1375  C     0.73503   0.75285   0.73729   0.00000  Uiso   1.00
C1376  C     0.93214   0.75333   0.76254   0.00000  Uiso   1.00
Cu1377 Cu    0.83333   0.74999   0.79821   0.00000  Uiso   1.00
Cu1378 Cu    0.83333   0.75000   0.70178   0.00000  Uiso   1.00
C1379  C     0.68021   0.75784   0.72948   0.00000  Uiso   1.00
C1380  C     0.98785   0.76022   0.76925   0.00000  Uiso   1.00
C1381  C     0.86052   0.54971   0.79573   0.00000  Uiso   1.00
C1382  C     0.80221   0.95455   0.74164   0.00000  Uiso   1.00
H1383  H     0.86592   0.53151   0.82924   0.00000  Uiso   1.00
H1384  H     0.76910   0.97323   0.73271   0.00000  Uiso   1.00
C1385  C     0.86483   0.59601   0.79691   0.00000  Uiso   1.00
C1386  C     0.79697   0.90837   0.73834   0.00000  Uiso   1.00
C1387  C     0.85442   0.61892   0.75275   0.00000  Uiso   1.00
C1388  C     0.83994   0.88407   0.75130   0.00000  Uiso   1.00
C1389  C     0.85803   0.59589   0.70925   0.00000  Uiso   1.00
C1390  C     0.88792   0.90687   0.76667   0.00000  Uiso   1.00
C1391  C     0.84811   0.54903   0.70757   0.00000  Uiso   1.00
C1392  C     0.89312   0.95412   0.76783   0.00000  Uiso   1.00
C1393  C     0.85114   0.52619   0.75199   0.00000  Uiso   1.00
C1394  C     0.84924   0.97742   0.75402   0.00000  Uiso   1.00
C1395  C     0.84770   0.78705   0.55495   0.00000  Uiso   1.00
C1396  C     0.81283   0.71337   0.94349   0.00000  Uiso   1.00
H1397  H     0.85534   0.81837   0.53798   0.00000  Uiso   1.00
H1398  H     0.79187   0.68640   0.95850   0.00000  Uiso   1.00
C1399  C     0.84639   0.78795   0.60487   0.00000  Uiso   1.00
C1400  C     0.81115   0.71402   0.89288   0.00000  Uiso   1.00
N1401  N     0.83333   0.75001   0.62934   0.00000  Uiso   1.00
N1402  N     0.83333   0.74999   0.87065   0.00000  Uiso   1.00
C1403  C     0.81881   0.71149   0.60192   0.00000  Uiso   1.00
C1404  C     0.85584   0.78510   0.90006   0.00000  Uiso   1.00
C1405  C     0.82507   0.70947   0.55275   0.00000  Uiso   1.00
C1406  C     0.86210   0.78225   0.95070   0.00000  Uiso   1.00
H1407  H     0.81656   0.67802   0.53378   0.00000  Uiso   1.00
H1408  H     0.88258   0.80978   0.97146   0.00000  Uiso   1.00
C1409  C     0.83849   0.74757   0.52782   0.00000  Uiso   1.00
C1410  C     0.83894   0.74712   0.97365   0.00000  Uiso   1.00
C1411  C     0.98631   0.75985   0.67635   0.00000  Uiso   1.00
C1412  C     0.68259   0.77049   0.63411   0.00000  Uiso   1.00
C1413  C     0.98063   0.77992   0.58763   0.00000  Uiso   1.00
H1414  H     0.95295   0.75103   0.57758   0.00000  Uiso   1.00
H1415  H     0.95997   0.80988   0.59205   0.00000  Uiso   1.00
H1416  H     0.66976   0.78587   0.55777   0.00000  Uiso   1.00
H1417  H     0.70986   0.79976   0.64313   0.00000  Uiso   1.00
H1418  H     0.70285   0.74153   0.62576   0.00000  Uiso   1.00
H1419  H     0.96384   0.72785   0.66691   0.00000  Uiso   1.00
H1420  H     0.96136   0.78741   0.67541   0.00000  Uiso   1.00
C1421  C     0.68291   0.77189   0.82079   0.00000  Uiso   1.00
C1422  C     0.98706   0.78539   0.86096   0.00000  Uiso   1.00
C1423  C     0.68941   0.80574   0.90449   0.00000  Uiso   1.00
H1424  H     0.71789   0.78207   0.91848   0.00000  Uiso   1.00
H1425  H     0.70914   0.83711   0.89426   0.00000  Uiso   1.00
H1426  H     0.66745   0.81331   0.93372   0.00000  Uiso   1.00
H1427  H     0.96006   0.80970   0.84695   0.00000  Uiso   1.00
H1428  H     0.96627   0.75581   0.87389   0.00000  Uiso   1.00
H1429  H     0.70228   0.74272   0.83543   0.00000  Uiso   1.00
H1430  H     0.71072   0.80042   0.81722   0.00000  Uiso   1.00
C1431  C     0.88977   0.61852   0.84399   0.00000  Uiso   1.00
C1432  C     0.94330   0.63806   0.83998   0.00000  Uiso   1.00
C1433  C     0.96981   0.65733   0.88847   0.00000  Uiso   1.00
H1434  H     0.94682   0.68232   0.90226   0.00000  Uiso   1.00
H1435  H     0.97571   0.63045   0.91532   0.00000  Uiso   1.00
H1436  H     0.67384   0.67368   0.88413   0.00000  Uiso   1.00
H1437  H     0.96589   0.61168   0.82816   0.00000  Uiso   1.00
H1438  H     0.94155   0.66479   0.81272   0.00000  Uiso   1.00
H1439  H     0.86774   0.64475   0.85549   0.00000  Uiso   1.00
H1440  H     0.89250   0.59417   0.87388   0.00000  Uiso   1.00
C1441  C     0.74468   0.88721   0.72031   0.00000  Uiso   1.00
C1442  C     0.72896   0.89761   0.66657   0.00000  Uiso   1.00
C1443  C     0.67206   0.89123   0.65184   0.00000  Uiso   1.00
H1444  H     0.99191   0.85812   0.66308   0.00000  Uiso   1.00
H1445  H     0.98630   0.91676   0.66940   0.00000  Uiso   1.00
H1446  H     0.99558   0.89391   0.61205   0.00000  Uiso   1.00
H1447  H     0.74094   0.93235   0.65821   0.00000  Uiso   1.00
H1448  H     0.74734   0.87518   0.64430   0.00000  Uiso   1.00
H1449  H     0.74222   0.85065   0.72493   0.00000  Uiso   1.00
H1450  H     0.71780   0.90065   0.74233   0.00000  Uiso   1.00
N1451  N     0.88377   0.61848   0.67324   0.00000  Uiso   1.00
O1452  O     0.91555   0.65247   0.68646   0.00000  Uiso   1.00
O1453  O     0.88603   0.60002   0.63169   0.00000  Uiso   1.00
N1454  N     0.93136   0.88191   0.77994   0.00000  Uiso   1.00
O1455  O     0.95666   0.88540   0.82334   0.00000  Uiso   1.00
O1456  O     0.94636   0.85626   0.74838   0.00000  Uiso   1.00
C1457  C     0.83056   0.52442   0.65964   0.00000  Uiso   1.00
C1458  C     0.87128   0.99730   0.64287   0.00000  Uiso   1.00
C1459  C     0.85302   0.97660   0.59296   0.00000  Uiso   1.00
H1460  H     0.81799   0.95477   0.59346   0.00000  Uiso   1.00
H1461  H     0.84536   0.50299   0.56580   0.00000  Uiso   1.00
H1462  H     0.88257   0.95627   0.58229   0.00000  Uiso   1.00
H1463  H     0.90630   0.51880   0.64136   0.00000  Uiso   1.00
H1464  H     0.88067   0.97000   0.66830   0.00000  Uiso   1.00
H1465  H     0.79663   0.50211   0.66257   0.00000  Uiso   1.00
H1466  H     0.81655   0.54788   0.63114   0.00000  Uiso   1.00
C1467  C     0.94450   0.97950   0.78430   0.00000  Uiso   1.00
C1468  C     0.96757   0.50210   0.74293   0.00000  Uiso   1.00
C1469  C     0.68598   0.52549   0.76125   0.00000  Uiso   1.00
H1470  H     0.68209   0.55305   0.78656   0.00000  Uiso   1.00
H1471  H     0.71166   0.50174   0.78025   0.00000  Uiso   1.00
H1472  H     0.70298   0.53954   0.73030   0.00000  Uiso   1.00
H1473  H     0.97174   0.97686   0.71522   0.00000  Uiso   1.00
H1474  H     0.94321   0.52744   0.72583   0.00000  Uiso   1.00
H1475  H     0.94108   0.50446   0.81250   0.00000  Uiso   1.00
H1476  H     0.97283   0.95781   0.80211   0.00000  Uiso   1.00
N1477  N     0.85567   0.83063   0.62776   0.00000  Uiso   1.00
O1478  O     0.89946   0.84128   0.65308   0.00000  Uiso   1.00
O1479  O     0.82754   0.86240   0.61174   0.00000  Uiso   1.00
N1480  N     0.78497   0.67589   0.86653   0.00000  Uiso   1.00
O1481  O     0.75066   0.68047   0.82936   0.00000  Uiso   1.00
O1482  O     0.78644   0.63694   0.88646   0.00000  Uiso   1.00
N1483  N     0.79188   0.67384   0.62011   0.00000  Uiso   1.00
O1484  O     0.75451   0.67988   0.64333   0.00000  Uiso   1.00
O1485  O     0.79449   0.63438   0.60212   0.00000  Uiso   1.00
N1486  N     0.86524   0.82842   0.88154   0.00000  Uiso   1.00
O1487  O     0.90896   0.84953   0.89572   0.00000  Uiso   1.00
O1488  O     0.82652   0.85219   0.87085   0.00000  Uiso   1.00
loop_
_geom_bond_atom_site_label_1
_geom_bond_atom_site_label_2
_geom_bond_distance
_geom_bond_site_symmetry_2
_ccdc_geom_bond_type
O1     C5      1.306   .     A
O1     Cu13    1.949   .     S
O2     C6      1.301   .     A
O2     Cu14    1.949   .     S
O3     Cu14    1.950   .     S
O3     C5      1.310   .     A
O4     Cu13    1.950   .     S
O4     C6      1.302   .     A
C5     C23     1.489   .     S
C6     C24     1.472   .     S
O7     C11     1.301   .     A
O7     Cu13    1.998   .     S
O8     C12     1.295   .     A
O8     Cu14    1.998   .     S
O9     Cu14    2.007   .     S
O9     C11     1.303   .     A
O10    C12     1.311   .     A
O10    Cu13    2.007   .     S
C11    C15     1.473   .     S
C12    C16     1.478   .     S
Cu13   Cu14    2.700   .     S
Cu13   N38     2.028   .     S
Cu14   N37     2.028   .     S
C15    C264    1.400   1_455 S
C15    C295    1.559   1_455 S
C16    C139    1.400   .     S
C16    C181    1.553   .     S
C17    C29     1.394   .     A
C17    C21     1.392   .     A
C17    H19     1.085   .     S
C18    C30     1.390   .     A
C18    H20     1.083   .     S
C18    C22     1.391   .     A
C21    C67     1.520   .     S
C21    C23     1.419   .     A
C22    C24     1.411   .     A
C22    C77     1.513   .     S
C23    C25     1.419   .     A
C24    C26     1.422   .     A
C25    N87     1.452   .     S
C25    C27     1.418   .     A
C26    N90     1.435   .     S
C26    C28     1.421   .     A
C27    C29     1.418   .     A
C27    C93     1.525   .     S
C28    C103    1.535   .     S
C28    C30     1.418   .     A
C29    C402    1.469   1_545 S
C30    C401    1.469   .     S
C31    H33     1.079   .     S
C31    C35     1.404   .     A
C31    C45     1.397   .     A
C32    C36     1.411   .     A
C32    H34     1.079   .     S
C32    C46     1.398   .     A
C35    N37     1.387   .     A
C35    N113    1.425   .     S
C36    N116    1.443   .     S
C36    N38     1.394   .     A
N37    C39     1.389   .     A
N38    C40     1.385   .     A
C39    C41     1.414   .     A
C39    N119    1.439   .     S
C40    C42     1.406   .     A
C40    N122    1.427   .     S
C41    H43     1.078   .     S
C41    C45     1.400   .     A
C42    C46     1.398   .     A
C42    H44     1.079   .     S
C45    C790    1.519   1_554 S
C46    C789    1.519   .     S
C47    H55     1.110   .     S
C47    H56     1.101   .     S
C47    C139    1.559   .     S
C47    C172    1.544   .     S
C48    H54     1.103   .     S
C48    H53     1.109   .     S
C48    C295    1.544   1_455 S
C48    C297    1.529   1_455 S
C49    H51     1.109   .     S
C49    H50     1.111   .     S
C49    C172    1.529   .     S
C49    H176    1.111   .     S
H52    C297    1.111   1_455 S
C57    H66     1.113   .     S
C57    H65     1.102   .     S
C57    C264    1.553   1_455 S
C57    C306    1.534   1_455 S
C58    H64     1.110   .     S
C58    H63     1.099   .     S
C58    C181    1.534   .     S
C58    C183    1.529   .     S
C59    H60     1.112   .     S
C59    H61     1.111   .     S
C59    H62     1.110   .     S
C59    C306    1.529   1_455 S
C67    C68     1.534   .     S
C67    H75     1.096   .     S
C67    H76     1.113   .     S
C68    H74     1.111   .     S
C68    C69     1.527   .     S
C68    H73     1.112   .     S
C69    H70     1.111   .     S
C69    H71     1.111   .     S
C69    H196    1.109   .     S
H72    C317    1.109   1_455 S
C77    C78     1.539   .     S
C77    H85     1.109   .     S
C77    H86     1.113   .     S
C78    H83     1.110   .     S
C78    C79     1.519   .     S
C78    H84     1.108   .     S
C79    H328    1.101   1_455 S
C79    H329    1.107   1_455 S
C79    H330    1.110   1_455 S
H80    C203    1.101   .     S
H81    C203    1.107   .     S
H82    C203    1.110   .     S
N87    O88     1.301   .     A
N87    O89     1.300   .     A
N90    O91     1.300   .     A
N90    O92     1.299   .     A
C93    H101    1.107   .     S
C93    H102    1.109   .     S
C93    C466    1.537   1_545 S
C94    H100    1.108   .     S
C94    C95     1.525   .     S
C94    C465    1.537   .     S
C94    H471    1.110   .     S
C95    H96     1.111   .     S
C95    H98     1.111   .     S
C95    H469    1.111   .     S
H97    C467    1.111   1_545 S
H99    C466    1.110   1_545 S
C103   H112    1.101   .     S
C103   C476    1.534   .     S
C103   H483    1.107   .     S
C104   H110    1.104   .     S
C104   C475    1.534   1_545 S
C104   C229    1.527   .     S
C104   H481    1.108   1_545 S
C105   H107    1.110   .     S
C105   H108    1.111   .     S
C105   H106    1.111   .     S
C105   C352    1.527   1_455 S
H109   C476    1.108   .     S
H111   C475    1.107   1_545 S
N113   O114    1.296   .     A
N113   O115    1.300   .     A
N116   O117    1.296   .     A
N116   O118    1.303   .     A
N119   O121    1.301   .     A
N119   O120    1.298   .     A
N122   O124    1.302   .     A
N122   O123    1.301   .     A
O125   C129    1.306   .     A
O125   Cu137   1.949   .     S
O126   C130    1.301   .     A
O126   Cu138   1.949   .     S
O127   Cu138   1.950   .     S
O127   C129    1.310   .     A
O128   Cu137   1.950   .     S
O128   C130    1.302   .     A
C129   C147    1.489   .     S
C130   C148    1.472   .     S
O131   C135    1.301   .     A
O131   Cu137   1.998   .     S
O132   C136    1.295   .     A
O132   Cu138   1.998   .     S
O133   Cu138   2.007   .     S
O133   C135    1.303   .     A
O134   C136    1.311   .     A
O134   Cu137   2.007   .     S
C135   C139    1.473   .     S
C136   C140    1.478   .     S
Cu137  Cu138   2.700   .     S
Cu137  N162    2.028   .     S
Cu138  N161    2.028   .     S
C140   C263    1.400   .     S
C140   C305    1.553   .     S
C141   C153    1.394   .     A
C141   C145    1.392   .     A
C141   H143    1.085   .     S
C142   C154    1.390   .     A
C142   H144    1.083   .     S
C142   C146    1.391   .     A
C145   C191    1.520   .     S
C145   C147    1.419   .     A
C146   C148    1.411   .     A
C146   C201    1.513   .     S
C147   C149    1.419   .     A
C148   C150    1.422   .     A
C149   N211    1.452   .     S
C149   C151    1.418   .     A
C150   N214    1.435   .     S
C150   C152    1.421   .     A
C151   C153    1.418   .     A
C151   C217    1.525   .     S
C152   C227    1.535   .     S
C152   C154    1.418   .     A
C153   C526    1.469   1_545 S
C154   C525    1.469   .     S
C155   H157    1.079   .     S
C155   C159    1.404   .     A
C155   C169    1.397   .     A
C156   C160    1.411   .     A
C156   H158    1.079   .     S
C156   C170    1.398   .     A
C159   N161    1.387   .     A
C159   N237    1.425   .     S
C160   N240    1.443   .     S
C160   N162    1.394   .     A
N161   C163    1.389   .     A
N162   C164    1.385   .     A
C163   C165    1.414   .     A
C163   N243    1.439   .     S
C164   C166    1.406   .     A
C164   N246    1.427   .     S
C165   H167    1.078   .     S
C165   C169    1.400   .     A
C166   C170    1.398   .     A
C166   H168    1.079   .     S
C169   C914    1.519   1_554 S
C170   C913    1.519   .     S
C171   H179    1.110   .     S
C171   H180    1.101   .     S
C171   C263    1.559   .     S
C171   C296    1.544   .     S
C172   H178    1.103   .     S
C172   H177    1.109   .     S
C173   H175    1.109   .     S
C173   H174    1.111   .     S
C173   C296    1.529   .     S
C173   H300    1.111   .     S
C181   H190    1.113   .     S
C181   H189    1.102   .     S
C182   H188    1.110   .     S
C182   H187    1.099   .     S
C182   C305    1.534   .     S
C182   C307    1.529   .     S
C183   H184    1.112   .     S
C183   H185    1.111   .     S
C183   H186    1.110   .     S
C191   C192    1.534   .     S
C191   H199    1.096   .     S
C191   H200    1.113   .     S
C192   H198    1.111   .     S
C192   C193    1.527   .     S
C192   H197    1.112   .     S
C193   H194    1.111   .     S
C193   H195    1.111   .     S
C193   H320    1.109   .     S
C201   C202    1.539   .     S
C201   H209    1.109   .     S
C201   H210    1.113   .     S
C202   H207    1.110   .     S
C202   C203    1.519   .     S
C202   H208    1.108   .     S
H204   C327    1.101   .     S
H205   C327    1.107   .     S
H206   C327    1.110   .     S
N211   O212    1.301   .     A
N211   O213    1.300   .     A
N214   O215    1.300   .     A
N214   O216    1.299   .     A
C217   H225    1.107   .     S
C217   H226    1.109   .     S
C217   C590    1.537   1_545 S
C218   H224    1.108   .     S
C218   C219    1.525   .     S
C218   C589    1.537   .     S
C218   H595    1.110   .     S
C219   H220    1.111   .     S
C219   H222    1.111   .     S
C219   H593    1.111   .     S
H221   C591    1.111   1_545 S
H223   C590    1.110   1_545 S
C227   H236    1.101   .     S
C227   C600    1.534   .     S
C227   H607    1.107   .     S
C228   H234    1.104   .     S
C228   C599    1.534   1_545 S
C228   C353    1.527   .     S
C228   H605    1.108   1_545 S
C229   H231    1.110   .     S
C229   H232    1.111   .     S
C229   H230    1.111   .     S
H233   C600    1.108   .     S
H235   C599    1.107   1_545 S
N237   O238    1.296   .     A
N237   O239    1.300   .     A
N240   O241    1.296   .     A
N240   O242    1.303   .     A
N243   O245    1.301   .     A
N243   O244    1.298   .     A
N246   O248    1.302   .     A
N246   O247    1.301   .     A
O249   C253    1.306   .     A
O249   Cu261   1.949   .     S
O250   C254    1.301   .     A
O250   Cu262   1.949   .     S
O251   Cu262   1.950   .     S
O251   C253    1.310   .     A
O252   Cu261   1.950   .     S
O252   C254    1.302   .     A
C253   C271    1.489   .     S
C254   C272    1.472   .     S
O255   C259    1.301   .     A
O255   Cu261   1.998   .     S
O256   C260    1.295   .     A
O256   Cu262   1.998   .     S
O257   Cu262   2.007   .     S
O257   C259    1.303   .     A
O258   C260    1.311   .     A
O258   Cu261   2.007   .     S
C259   C263    1.473   .     S
C260   C264    1.478   .     S
Cu261  Cu262   2.700   .     S
Cu261  N286    2.028   .     S
Cu262  N285    2.028   .     S
C264   C15     1.400   1_655 S
C264   C57     1.553   1_655 S
C265   C277    1.394   .     A
C265   C269    1.392   .     A
C265   H267    1.085   .     S
C266   C278    1.390   .     A
C266   H268    1.083   .     S
C266   C270    1.391   .     A
C269   C315    1.520   .     S
C269   C271    1.419   .     A
C270   C272    1.411   .     A
C270   C325    1.513   .     S
C271   C273    1.419   .     A
C272   C274    1.422   .     A
C273   N335    1.452   .     S
C273   C275    1.418   .     A
C274   N338    1.435   .     S
C274   C276    1.421   .     A
C275   C277    1.418   .     A
C275   C341    1.525   .     S
C276   C351    1.535   .     S
C276   C278    1.418   .     A
C277   C650    1.469   1_545 S
C278   C649    1.469   .     S
C279   H281    1.079   .     S
C279   C283    1.404   .     A
C279   C293    1.397   .     A
C280   C284    1.411   .     A
C280   H282    1.079   .     S
C280   C294    1.398   .     A
C283   N285    1.387   .     A
C283   N361    1.425   .     S
C284   N364    1.443   .     S
C284   N286    1.394   .     A
N285   C287    1.389   .     A
N286   C288    1.385   .     A
C287   C289    1.414   .     A
C287   N367    1.439   .     S
C288   C290    1.406   .     A
C288   N370    1.427   .     S
C289   H291    1.078   .     S
C289   C293    1.400   .     A
C290   C294    1.398   .     A
C290   H292    1.079   .     S
C293   C1038   1.519   1_554 S
C294   C1037   1.519   .     S
C295   H303    1.110   .     S
C295   H304    1.101   .     S
C295   C15     1.559   1_655 S
C295   C48     1.544   1_655 S
C296   H302    1.103   .     S
C296   H301    1.109   .     S
C297   H299    1.109   .     S
C297   H298    1.111   .     S
C297   C48     1.529   1_655 S
C297   H52     1.111   1_655 S
C305   H314    1.113   .     S
C305   H313    1.102   .     S
C306   H312    1.110   .     S
C306   H311    1.099   .     S
C306   C57     1.534   1_655 S
C306   C59     1.529   1_655 S
C307   H308    1.112   .     S
C307   H309    1.111   .     S
C307   H310    1.110   .     S
C315   C316    1.534   .     S
C315   H323    1.096   .     S
C315   H324    1.113   .     S
C316   H322    1.111   .     S
C316   C317    1.527   .     S
C316   H321    1.112   .     S
C317   H318    1.111   .     S
C317   H319    1.111   .     S
C317   H72     1.109   1_655 S
C325   C326    1.539   .     S
C325   H333    1.109   .     S
C325   H334    1.113   .     S
C326   H331    1.110   .     S
C326   C327    1.519   .     S
C326   H332    1.108   .     S
H328   C79     1.101   1_655 S
H329   C79     1.107   1_655 S
H330   C79     1.110   1_655 S
N335   O336    1.301   .     A
N335   O337    1.300   .     A
N338   O339    1.300   .     A
N338   O340    1.299   .     A
C341   H349    1.107   .     S
C341   H350    1.109   .     S
C341   C714    1.537   1_545 S
C342   H348    1.108   .     S
C342   C343    1.525   .     S
C342   C713    1.537   .     S
C342   H719    1.110   .     S
C343   H344    1.111   .     S
C343   H346    1.111   .     S
C343   H717    1.111   .     S
H345   C715    1.111   1_545 S
H347   C714    1.110   1_545 S
C351   H360    1.101   .     S
C351   C724    1.534   .     S
C351   H731    1.107   .     S
C352   H358    1.104   .     S
C352   C723    1.534   1_545 S
C352   C105    1.527   1_655 S
C352   H729    1.108   1_545 S
C353   H355    1.110   .     S
C353   H356    1.111   .     S
C353   H354    1.111   .     S
H357   C724    1.108   .     S
H359   C723    1.107   1_545 S
N361   O362    1.296   .     A
N361   O363    1.300   .     A
N364   O365    1.296   .     A
N364   O366    1.303   .     A
N367   O369    1.301   .     A
N367   O368    1.298   .     A
N370   O372    1.302   .     A
N370   O371    1.301   .     A
O373   C377    1.306   .     A
O373   Cu385   1.949   .     S
O374   C378    1.301   .     A
O374   Cu386   1.949   .     S
O375   Cu386   1.950   .     S
O375   C377    1.310   .     A
O376   Cu385   1.950   .     S
O376   C378    1.302   .     A
C377   C395    1.489   .     S
C378   C396    1.472   .     S
O379   C383    1.301   .     A
O379   Cu385   1.998   .     S
O380   C384    1.295   .     A
O380   Cu386   1.998   .     S
O381   Cu386   2.007   .     S
O381   C383    1.303   .     A
O382   C384    1.311   .     A
O382   Cu385   2.007   .     S
C383   C387    1.473   .     S
C384   C388    1.478   .     S
Cu385  Cu386   2.700   .     S
Cu385  N410    2.028   .     S
Cu386  N409    2.028   .     S
C387   C636    1.400   1_455 S
C387   C667    1.559   1_455 S
C388   C511    1.400   .     S
C388   C553    1.553   .     S
C389   C401    1.394   .     A
C389   C393    1.392   .     A
C389   H391    1.085   .     S
C390   C402    1.390   .     A
C390   H392    1.083   .     S
C390   C394    1.391   .     A
C393   C439    1.520   .     S
C393   C395    1.419   .     A
C394   C396    1.411   .     A
C394   C449    1.513   .     S
C395   C397    1.419   .     A
C396   C398    1.422   .     A
C397   N459    1.452   .     S
C397   C399    1.418   .     A
C398   N462    1.435   .     S
C398   C400    1.421   .     A
C399   C401    1.418   .     A
C399   C465    1.525   .     S
C400   C475    1.535   .     S
C400   C402    1.418   .     A
C402   C29     1.469   1_565 S
C403   H405    1.079   .     S
C403   C407    1.404   .     A
C403   C417    1.397   .     A
C404   C408    1.411   .     A
C404   H406    1.079   .     S
C404   C418    1.398   .     A
C407   N409    1.387   .     A
C407   N485    1.425   .     S
C408   N488    1.443   .     S
C408   N410    1.394   .     A
N409   C411    1.389   .     A
N410   C412    1.385   .     A
C411   C413    1.414   .     A
C411   N491    1.439   .     S
C412   C414    1.406   .     A
C412   N494    1.427   .     S
C413   H415    1.078   .     S
C413   C417    1.400   .     A
C414   C418    1.398   .     A
C414   H416    1.079   .     S
C417   C1162   1.519   1_554 S
C418   C1161   1.519   .     S
C419   H427    1.110   .     S
C419   H428    1.101   .     S
C419   C511    1.559   .     S
C419   C544    1.544   .     S
C420   H426    1.103   .     S
C420   H425    1.109   .     S
C420   C667    1.544   1_455 S
C420   C669    1.529   1_455 S
C421   H423    1.109   .     S
C421   H422    1.111   .     S
C421   C544    1.529   .     S
C421   H548    1.111   .     S
H424   C669    1.111   1_455 S
C429   H438    1.113   .     S
C429   H437    1.102   .     S
C429   C636    1.553   1_455 S
C429   C678    1.534   1_455 S
C430   H436    1.110   .     S
C430   H435    1.099   .     S
C430   C553    1.534   .     S
C430   C555    1.529   .     S
C431   H432    1.112   .     S
C431   H433    1.111   .     S
C431   H434    1.110   .     S
C431   C678    1.529   1_455 S
C439   C440    1.534   .     S
C439   H447    1.096   .     S
C439   H448    1.113   .     S
C440   H446    1.111   .     S
C440   C441    1.527   .     S
C440   H445    1.112   .     S
C441   H442    1.111   .     S
C441   H443    1.111   .     S
C441   H568    1.109   .     S
H444   C689    1.109   1_455 S
C449   C450    1.539   .     S
C449   H457    1.109   .     S
C449   H458    1.113   .     S
C450   H455    1.110   .     S
C450   C451    1.519   .     S
C450   H456    1.108   .     S
C451   H700    1.101   1_455 S
C451   H701    1.107   1_455 S
C451   H702    1.110   1_455 S
H452   C575    1.101   .     S
H453   C575    1.107   .     S
H454   C575    1.110   .     S
N459   O460    1.301   .     A
N459   O461    1.300   .     A
N462   O463    1.300   .     A
N462   O464    1.299   .     A
C465   H473    1.107   .     S
C465   H474    1.109   .     S
C466   H472    1.108   .     S
C466   C467    1.525   .     S
C466   C93     1.537   1_565 S
C466   H99     1.110   1_565 S
C467   H468    1.111   .     S
C467   H470    1.111   .     S
C467   H97     1.111   1_565 S
C475   H484    1.101   .     S
C475   C104    1.534   1_565 S
C475   H111    1.107   1_565 S
C476   H482    1.104   .     S
C476   C601    1.527   .     S
C477   H479    1.110   .     S
C477   H480    1.111   .     S
C477   H478    1.111   .     S
C477   C724    1.527   1_455 S
H481   C104    1.108   1_565 S
N485   O486    1.296   .     A
N485   O487    1.300   .     A
N488   O489    1.296   .     A
N488   O490    1.303   .     A
N491   O493    1.301   .     A
N491   O492    1.298   .     A
N494   O496    1.302   .     A
N494   O495    1.301   .     A
O497   C501    1.306   .     A
O497   Cu509   1.949   .     S
O498   C502    1.301   .     A
O498   Cu510   1.949   .     S
O499   Cu510   1.950   .     S
O499   C501    1.310   .     A
O500   Cu509   1.950   .     S
O500   C502    1.302   .     A
C501   C519    1.489   .     S
C502   C520    1.472   .     S
O503   C507    1.301   .     A
O503   Cu509   1.998   .     S
O504   C508    1.295   .     A
O504   Cu510   1.998   .     S
O505   Cu510   2.007   .     S
O505   C507    1.303   .     A
O506   C508    1.311   .     A
O506   Cu509   2.007   .     S
C507   C511    1.473   .     S
C508   C512    1.478   .     S
Cu509  Cu510   2.700   .     S
Cu509  N534    2.028   .     S
Cu510  N533    2.028   .     S
C512   C635    1.400   .     S
C512   C677    1.553   .     S
C513   C525    1.394   .     A
C513   C517    1.392   .     A
C513   H515    1.085   .     S
C514   C526    1.390   .     A
C514   H516    1.083   .     S
C514   C518    1.391   .     A
C517   C563    1.520   .     S
C517   C519    1.419   .     A
C518   C520    1.411   .     A
C518   C573    1.513   .     S
C519   C521    1.419   .     A
C520   C522    1.422   .     A
C521   N583    1.452   .     S
C521   C523    1.418   .     A
C522   N586    1.435   .     S
C522   C524    1.421   .     A
C523   C525    1.418   .     A
C523   C589    1.525   .     S
C524   C599    1.535   .     S
C524   C526    1.418   .     A
C526   C153    1.469   1_565 S
C527   H529    1.079   .     S
C527   C531    1.404   .     A
C527   C541    1.397   .     A
C528   C532    1.411   .     A
C528   H530    1.079   .     S
C528   C542    1.398   .     A
C531   N533    1.387   .     A
C531   N609    1.425   .     S
C532   N612    1.443   .     S
C532   N534    1.394   .     A
N533   C535    1.389   .     A
N534   C536    1.385   .     A
C535   C537    1.414   .     A
C535   N615    1.439   .     S
C536   C538    1.406   .     A
C536   N618    1.427   .     S
C537   H539    1.078   .     S
C537   C541    1.400   .     A
C538   C542    1.398   .     A
C538   H540    1.079   .     S
C541   C1286   1.519   1_554 S
C542   C1285   1.519   .     S
C543   H551    1.110   .     S
C543   H552    1.101   .     S
C543   C635    1.559   .     S
C543   C668    1.544   .     S
C544   H550    1.103   .     S
C544   H549    1.109   .     S
C545   H547    1.109   .     S
C545   H546    1.111   .     S
C545   C668    1.529   .     S
C545   H672    1.111   .     S
C553   H562    1.113   .     S
C553   H561    1.102   .     S
C554   H560    1.110   .     S
C554   H559    1.099   .     S
C554   C677    1.534   .     S
C554   C679    1.529   .     S
C555   H556    1.112   .     S
C555   H557    1.111   .     S
C555   H558    1.110   .     S
C563   C564    1.534   .     S
C563   H571    1.096   .     S
C563   H572    1.113   .     S
C564   H570    1.111   .     S
C564   C565    1.527   .     S
C564   H569    1.112   .     S
C565   H566    1.111   .     S
C565   H567    1.111   .     S
C565   H692    1.109   .     S
C573   C574    1.539   .     S
C573   H581    1.109   .     S
C573   H582    1.113   .     S
C574   H579    1.110   .     S
C574   C575    1.519   .     S
C574   H580    1.108   .     S
H576   C699    1.101   .     S
H577   C699    1.107   .     S
H578   C699    1.110   .     S
N583   O584    1.301   .     A
N583   O585    1.300   .     A
N586   O587    1.300   .     A
N586   O588    1.299   .     A
C589   H597    1.107   .     S
C589   H598    1.109   .     S
C590   H596    1.108   .     S
C590   C591    1.525   .     S
C590   C217    1.537   1_565 S
C590   H223    1.110   1_565 S
C591   H592    1.111   .     S
C591   H594    1.111   .     S
C591   H221    1.111   1_565 S
C599   H608    1.101   .     S
C599   C228    1.534   1_565 S
C599   H235    1.107   1_565 S
C600   H606    1.104   .     S
C600   C725    1.527   .     S
C601   H603    1.110   .     S
C601   H604    1.111   .     S
C601   H602    1.111   .     S
H605   C228    1.108   1_565 S
N609   O610    1.296   .     A
N609   O611    1.300   .     A
N612   O613    1.296   .     A
N612   O614    1.303   .     A
N615   O617    1.301   .     A
N615   O616    1.298   .     A
N618   O620    1.302   .     A
N618   O619    1.301   .     A
O621   C625    1.306   .     A
O621   Cu633   1.949   .     S
O622   C626    1.301   .     A
O622   Cu634   1.949   .     S
O623   Cu634   1.950   .     S
O623   C625    1.310   .     A
O624   Cu633   1.950   .     S
O624   C626    1.302   .     A
C625   C643    1.489   .     S
C626   C644    1.472   .     S
O627   C631    1.301   .     A
O627   Cu633   1.998   .     S
O628   C632    1.295   .     A
O628   Cu634   1.998   .     S
O629   Cu634   2.007   .     S
O629   C631    1.303   .     A
O630   C632    1.311   .     A
O630   Cu633   2.007   .     S
C631   C635    1.473   .     S
C632   C636    1.478   .     S
Cu633  Cu634   2.700   .     S
Cu633  N658    2.028   .     S
Cu634  N657    2.028   .     S
C636   C387    1.400   1_655 S
C636   C429    1.553   1_655 S
C637   C649    1.394   .     A
C637   C641    1.392   .     A
C637   H639    1.085   .     S
C638   C650    1.390   .     A
C638   H640    1.083   .     S
C638   C642    1.391   .     A
C641   C687    1.520   .     S
C641   C643    1.419   .     A
C642   C644    1.411   .     A
C642   C697    1.513   .     S
C643   C645    1.419   .     A
C644   C646    1.422   .     A
C645   N707    1.452   .     S
C645   C647    1.418   .     A
C646   N710    1.435   .     S
C646   C648    1.421   .     A
C647   C649    1.418   .     A
C647   C713    1.525   .     S
C648   C723    1.535   .     S
C648   C650    1.418   .     A
C650   C277    1.469   1_565 S
C651   H653    1.079   .     S
C651   C655    1.404   .     A
C651   C665    1.397   .     A
C652   C656    1.411   .     A
C652   H654    1.079   .     S
C652   C666    1.398   .     A
C655   N657    1.387   .     A
C655   N733    1.425   .     S
C656   N736    1.443   .     S
C656   N658    1.394   .     A
N657   C659    1.389   .     A
N658   C660    1.385   .     A
C659   C661    1.414   .     A
C659   N739    1.439   .     S
C660   C662    1.406   .     A
C660   N742    1.427   .     S
C661   H663    1.078   .     S
C661   C665    1.400   .     A
C662   C666    1.398   .     A
C662   H664    1.079   .     S
C665   C1410   1.519   1_554 S
C666   C1409   1.519   .     S
C667   H675    1.110   .     S
C667   H676    1.101   .     S
C667   C387    1.559   1_655 S
C667   C420    1.544   1_655 S
C668   H674    1.103   .     S
C668   H673    1.109   .     S
C669   H671    1.109   .     S
C669   H670    1.111   .     S
C669   C420    1.529   1_655 S
C669   H424    1.111   1_655 S
C677   H686    1.113   .     S
C677   H685    1.102   .     S
C678   H684    1.110   .     S
C678   H683    1.099   .     S
C678   C429    1.534   1_655 S
C678   C431    1.529   1_655 S
C679   H680    1.112   .     S
C679   H681    1.111   .     S
C679   H682    1.110   .     S
C687   C688    1.534   .     S
C687   H695    1.096   .     S
C687   H696    1.113   .     S
C688   H694    1.111   .     S
C688   C689    1.527   .     S
C688   H693    1.112   .     S
C689   H690    1.111   .     S
C689   H691    1.111   .     S
C689   H444    1.109   1_655 S
C697   C698    1.539   .     S
C697   H705    1.109   .     S
C697   H706    1.113   .     S
C698   H703    1.110   .     S
C698   C699    1.519   .     S
C698   H704    1.108   .     S
H700   C451    1.101   1_655 S
H701   C451    1.107   1_655 S
H702   C451    1.110   1_655 S
N707   O708    1.301   .     A
N707   O709    1.300   .     A
N710   O711    1.300   .     A
N710   O712    1.299   .     A
C713   H721    1.107   .     S
C713   H722    1.109   .     S
C714   H720    1.108   .     S
C714   C715    1.525   .     S
C714   C341    1.537   1_565 S
C714   H347    1.110   1_565 S
C715   H716    1.111   .     S
C715   H718    1.111   .     S
C715   H345    1.111   1_565 S
C723   H732    1.101   .     S
C723   C352    1.534   1_565 S
C723   H359    1.107   1_565 S
C724   H730    1.104   .     S
C724   C477    1.527   1_655 S
C725   H727    1.110   .     S
C725   H728    1.111   .     S
C725   H726    1.111   .     S
H729   C352    1.108   1_565 S
N733   O734    1.296   .     A
N733   O735    1.300   .     A
N736   O737    1.296   .     A
N736   O738    1.303   .     A
N739   O741    1.301   .     A
N739   O740    1.298   .     A
N742   O744    1.302   .     A
N742   O743    1.301   .     A
O745   C749    1.306   .     A
O745   Cu757   1.949   .     S
O746   C750    1.301   .     A
O746   Cu758   1.949   .     S
O747   Cu758   1.950   .     S
O747   C749    1.310   .     A
O748   Cu757   1.950   .     S
O748   C750    1.302   .     A
C749   C767    1.489   .     S
C750   C768    1.472   .     S
O751   C755    1.301   .     A
O751   Cu757   1.998   .     S
O752   C756    1.295   .     A
O752   Cu758   1.998   .     S
O753   Cu758   2.007   .     S
O753   C755    1.303   .     A
O754   C756    1.311   .     A
O754   Cu757   2.007   .     S
C755   C759    1.473   .     S
C756   C760    1.478   .     S
Cu757  Cu758   2.700   .     S
Cu757  N782    2.028   .     S
Cu758  N781    2.028   .     S
C759   C1008   1.400   1_455 S
C759   C1039   1.559   1_455 S
C760   C883    1.400   .     S
C760   C925    1.553   .     S
C761   C773    1.394   .     A
C761   C765    1.392   .     A
C761   H763    1.085   .     S
C762   C774    1.390   .     A
C762   H764    1.083   .     S
C762   C766    1.391   .     A
C765   C811    1.520   .     S
C765   C767    1.419   .     A
C766   C768    1.411   .     A
C766   C821    1.513   .     S
C767   C769    1.419   .     A
C768   C770    1.422   .     A
C769   N831    1.452   .     S
C769   C771    1.418   .     A
C770   N834    1.435   .     S
C770   C772    1.421   .     A
C771   C773    1.418   .     A
C771   C837    1.525   .     S
C772   C847    1.535   .     S
C772   C774    1.418   .     A
C773   C1146   1.469   1_545 S
C774   C1145   1.469   .     S
C775   H777    1.079   .     S
C775   C779    1.404   .     A
C775   C789    1.397   .     A
C776   C780    1.411   .     A
C776   H778    1.079   .     S
C776   C790    1.398   .     A
C779   N781    1.387   .     A
C779   N857    1.425   .     S
C780   N860    1.443   .     S
C780   N782    1.394   .     A
N781   C783    1.389   .     A
N782   C784    1.385   .     A
C783   C785    1.414   .     A
C783   N863    1.439   .     S
C784   C786    1.406   .     A
C784   N866    1.427   .     S
C785   H787    1.078   .     S
C785   C789    1.400   .     A
C786   C790    1.398   .     A
C786   H788    1.079   .     S
C790   C45     1.519   1_556 S
C791   H799    1.110   .     S
C791   H800    1.101   .     S
C791   C883    1.559   .     S
C791   C916    1.544   .     S
C792   H798    1.103   .     S
C792   H797    1.109   .     S
C792   C1039   1.544   1_455 S
C792   C1041   1.529   1_455 S
C793   H795    1.109   .     S
C793   H794    1.111   .     S
C793   C916    1.529   .     S
C793   H920    1.111   .     S
H796   C1041   1.111   1_455 S
C801   H810    1.113   .     S
C801   H809    1.102   .     S
C801   C1008   1.553   1_455 S
C801   C1050   1.534   1_455 S
C802   H808    1.110   .     S
C802   H807    1.099   .     S
C802   C925    1.534   .     S
C802   C927    1.529   .     S
C803   H804    1.112   .     S
C803   H805    1.111   .     S
C803   H806    1.110   .     S
C803   C1050   1.529   1_455 S
C811   C812    1.534   .     S
C811   H819    1.096   .     S
C811   H820    1.113   .     S
C812   H818    1.111   .     S
C812   C813    1.527   .     S
C812   H817    1.112   .     S
C813   H814    1.111   .     S
C813   H815    1.111   .     S
C813   H940    1.109   .     S
H816   C1061   1.109   1_455 S
C821   C822    1.539   .     S
C821   H829    1.109   .     S
C821   H830    1.113   .     S
C822   H827    1.110   .     S
C822   C823    1.519   .     S
C822   H828    1.108   .     S
C823   H1072   1.101   1_455 S
C823   H1073   1.107   1_455 S
C823   H1074   1.110   1_455 S
H824   C947    1.101   .     S
H825   C947    1.107   .     S
H826   C947    1.110   .     S
N831   O832    1.301   .     A
N831   O833    1.300   .     A
N834   O835    1.300   .     A
N834   O836    1.299   .     A
C837   H845    1.107   .     S
C837   H846    1.109   .     S
C837   C1210   1.537   1_545 S
C838   H844    1.108   .     S
C838   C839    1.525   .     S
C838   C1209   1.537   .     S
C838   H1215   1.110   .     S
C839   H840    1.111   .     S
C839   H842    1.111   .     S
C839   H1213   1.111   .     S
H841   C1211   1.111   1_545 S
H843   C1210   1.110   1_545 S
C847   H856    1.101   .     S
C847   C1220   1.534   .     S
C847   H1227   1.107   .     S
C848   H854    1.104   .     S
C848   C1219   1.534   1_545 S
C848   C973    1.527   .     S
C848   H1225   1.108   1_545 S
C849   H851    1.110   .     S
C849   H852    1.111   .     S
C849   H850    1.111   .     S
C849   C1096   1.527   1_455 S
H853   C1220   1.108   .     S
H855   C1219   1.107   1_545 S
N857   O858    1.296   .     A
N857   O859    1.300   .     A
N860   O861    1.296   .     A
N860   O862    1.303   .     A
N863   O865    1.301   .     A
N863   O864    1.298   .     A
N866   O868    1.302   .     A
N866   O867    1.301   .     A
O869   C873    1.306   .     A
O869   Cu881   1.949   .     S
O870   C874    1.301   .     A
O870   Cu882   1.949   .     S
O871   Cu882   1.950   .     S
O871   C873    1.310   .     A
O872   Cu881   1.950   .     S
O872   C874    1.302   .     A
C873   C891    1.489   .     S
C874   C892    1.472   .     S
O875   C879    1.301   .     A
O875   Cu881   1.998   .     S
O876   C880    1.295   .     A
O876   Cu882   1.998   .     S
O877   Cu882   2.007   .     S
O877   C879    1.303   .     A
O878   C880    1.311   .     A
O878   Cu881   2.007   .     S
C879   C883    1.473   .     S
C880   C884    1.478   .     S
Cu881  Cu882   2.700   .     S
Cu881  N906    2.028   .     S
Cu882  N905    2.028   .     S
C884   C1007   1.400   .     S
C884   C1049   1.553   .     S
C885   C897    1.394   .     A
C885   C889    1.392   .     A
C885   H887    1.085   .     S
C886   C898    1.390   .     A
C886   H888    1.083   .     S
C886   C890    1.391   .     A
C889   C935    1.520   .     S
C889   C891    1.419   .     A
C890   C892    1.411   .     A
C890   C945    1.513   .     S
C891   C893    1.419   .     A
C892   C894    1.422   .     A
C893   N955    1.452   .     S
C893   C895    1.418   .     A
C894   N958    1.435   .     S
C894   C896    1.421   .     A
C895   C897    1.418   .     A
C895   C961    1.525   .     S
C896   C971    1.535   .     S
C896   C898    1.418   .     A
C897   C1270   1.469   1_545 S
C898   C1269   1.469   .     S
C899   H901    1.079   .     S
C899   C903    1.404   .     A
C899   C913    1.397   .     A
C900   C904    1.411   .     A
C900   H902    1.079   .     S
C900   C914    1.398   .     A
C903   N905    1.387   .     A
C903   N981    1.425   .     S
C904   N984    1.443   .     S
C904   N906    1.394   .     A
N905   C907    1.389   .     A
N906   C908    1.385   .     A
C907   C909    1.414   .     A
C907   N987    1.439   .     S
C908   C910    1.406   .     A
C908   N990    1.427   .     S
C909   H911    1.078   .     S
C909   C913    1.400   .     A
C910   C914    1.398   .     A
C910   H912    1.079   .     S
C914   C169    1.519   1_556 S
C915   H923    1.110   .     S
C915   H924    1.101   .     S
C915   C1007   1.559   .     S
C915   C1040   1.544   .     S
C916   H922    1.103   .     S
C916   H921    1.109   .     S
C917   H919    1.109   .     S
C917   H918    1.111   .     S
C917   C1040   1.529   .     S
C917   H1044   1.111   .     S
C925   H934    1.113   .     S
C925   H933    1.102   .     S
C926   H932    1.110   .     S
C926   H931    1.099   .     S
C926   C1049   1.534   .     S
C926   C1051   1.529   .     S
C927   H928    1.112   .     S
C927   H929    1.111   .     S
C927   H930    1.110   .     S
C935   C936    1.534   .     S
C935   H943    1.096   .     S
C935   H944    1.113   .     S
C936   H942    1.111   .     S
C936   C937    1.527   .     S
C936   H941    1.112   .     S
C937   H938    1.111   .     S
C937   H939    1.111   .     S
C937   H1064   1.109   .     S
C945   C946    1.539   .     S
C945   H953    1.109   .     S
C945   H954    1.113   .     S
C946   H951    1.110   .     S
C946   C947    1.519   .     S
C946   H952    1.108   .     S
H948   C1071   1.101   .     S
H949   C1071   1.107   .     S
H950   C1071   1.110   .     S
N955   O956    1.301   .     A
N955   O957    1.300   .     A
N958   O959    1.300   .     A
N958   O960    1.299   .     A
C961   H969    1.107   .     S
C961   H970    1.109   .     S
C961   C1334   1.537   1_545 S
C962   H968    1.108   .     S
C962   C963    1.525   .     S
C962   C1333   1.537   .     S
C962   H1339   1.110   .     S
C963   H964    1.111   .     S
C963   H966    1.111   .     S
C963   H1337   1.111   .     S
H965   C1335   1.111   1_545 S
H967   C1334   1.110   1_545 S
C971   H980    1.101   .     S
C971   C1344   1.534   .     S
C971   H1351   1.107   .     S
C972   H978    1.104   .     S
C972   C1343   1.534   1_545 S
C972   C1097   1.527   .     S
C972   H1349   1.108   1_545 S
C973   H975    1.110   .     S
C973   H976    1.111   .     S
C973   H974    1.111   .     S
H977   C1344   1.108   .     S
H979   C1343   1.107   1_545 S
N981   O982    1.296   .     A
N981   O983    1.300   .     A
N984   O985    1.296   .     A
N984   O986    1.303   .     A
N987   O989    1.301   .     A
N987   O988    1.298   .     A
N990   O992    1.302   .     A
N990   O991    1.301   .     A
O993   C997    1.306   .     A
O993   Cu1005  1.949   .     S
O994   C998    1.301   .     A
O994   Cu1006  1.949   .     S
O995   Cu1006  1.950   .     S
O995   C997    1.310   .     A
O996   Cu1005  1.950   .     S
O996   C998    1.302   .     A
C997   C1015   1.489   .     S
C998   C1016   1.472   .     S
O999   C1003   1.301   .     A
O999   Cu1005  1.998   .     S
O1000  C1004   1.295   .     A
O1000  Cu1006  1.998   .     S
O1001  Cu1006  2.007   .     S
O1001  C1003   1.303   .     A
O1002  C1004   1.311   .     A
O1002  Cu1005  2.007   .     S
C1003  C1007   1.473   .     S
C1004  C1008   1.478   .     S
Cu1005 Cu1006  2.700   .     S
Cu1005 N1030   2.028   .     S
Cu1006 N1029   2.028   .     S
C1008  C759    1.400   1_655 S
C1008  C801    1.553   1_655 S
C1009  C1021   1.394   .     A
C1009  C1013   1.392   .     A
C1009  H1011   1.085   .     S
C1010  C1022   1.390   .     A
C1010  H1012   1.083   .     S
C1010  C1014   1.391   .     A
C1013  C1059   1.520   .     S
C1013  C1015   1.419   .     A
C1014  C1016   1.411   .     A
C1014  C1069   1.513   .     S
C1015  C1017   1.419   .     A
C1016  C1018   1.422   .     A
C1017  N1079   1.452   .     S
C1017  C1019   1.418   .     A
C1018  N1082   1.435   .     S
C1018  C1020   1.421   .     A
C1019  C1021   1.418   .     A
C1019  C1085   1.525   .     S
C1020  C1095   1.535   .     S
C1020  C1022   1.418   .     A
C1021  C1394   1.469   1_545 S
C1022  C1393   1.469   .     S
C1023  H1025   1.079   .     S
C1023  C1027   1.404   .     A
C1023  C1037   1.397   .     A
C1024  C1028   1.411   .     A
C1024  H1026   1.079   .     S
C1024  C1038   1.398   .     A
C1027  N1029   1.387   .     A
C1027  N1105   1.425   .     S
C1028  N1108   1.443   .     S
C1028  N1030   1.394   .     A
N1029  C1031   1.389   .     A
N1030  C1032   1.385   .     A
C1031  C1033   1.414   .     A
C1031  N1111   1.439   .     S
C1032  C1034   1.406   .     A
C1032  N1114   1.427   .     S
C1033  H1035   1.078   .     S
C1033  C1037   1.400   .     A
C1034  C1038   1.398   .     A
C1034  H1036   1.079   .     S
C1038  C293    1.519   1_556 S
C1039  H1047   1.110   .     S
C1039  H1048   1.101   .     S
C1039  C759    1.559   1_655 S
C1039  C792    1.544   1_655 S
C1040  H1046   1.103   .     S
C1040  H1045   1.109   .     S
C1041  H1043   1.109   .     S
C1041  H1042   1.111   .     S
C1041  C792    1.529   1_655 S
C1041  H796    1.111   1_655 S
C1049  H1058   1.113   .     S
C1049  H1057   1.102   .     S
C1050  H1056   1.110   .     S
C1050  H1055   1.099   .     S
C1050  C801    1.534   1_655 S
C1050  C803    1.529   1_655 S
C1051  H1052   1.112   .     S
C1051  H1053   1.111   .     S
C1051  H1054   1.110   .     S
C1059  C1060   1.534   .     S
C1059  H1067   1.096   .     S
C1059  H1068   1.113   .     S
C1060  H1066   1.111   .     S
C1060  C1061   1.527   .     S
C1060  H1065   1.112   .     S
C1061  H1062   1.111   .     S
C1061  H1063   1.111   .     S
C1061  H816    1.109   1_655 S
C1069  C1070   1.539   .     S
C1069  H1077   1.109   .     S
C1069  H1078   1.113   .     S
C1070  H1075   1.110   .     S
C1070  C1071   1.519   .     S
C1070  H1076   1.108   .     S
H1072  C823    1.101   1_655 S
H1073  C823    1.107   1_655 S
H1074  C823    1.110   1_655 S
N1079  O1080   1.301   .     A
N1079  O1081   1.300   .     A
N1082  O1083   1.300   .     A
N1082  O1084   1.299   .     A
C1085  H1093   1.107   .     S
C1085  H1094   1.109   .     S
C1085  C1458   1.537   1_545 S
C1086  H1092   1.108   .     S
C1086  C1087   1.525   .     S
C1086  C1457   1.537   .     S
C1086  H1463   1.110   .     S
C1087  H1088   1.111   .     S
C1087  H1090   1.111   .     S
C1087  H1461   1.111   .     S
H1089  C1459   1.111   1_545 S
H1091  C1458   1.110   1_545 S
C1095  H1104   1.101   .     S
C1095  C1468   1.534   .     S
C1095  H1475   1.107   .     S
C1096  H1102   1.104   .     S
C1096  C1467   1.534   1_545 S
C1096  C849    1.527   1_655 S
C1096  H1473   1.108   1_545 S
C1097  H1099   1.110   .     S
C1097  H1100   1.111   .     S
C1097  H1098   1.111   .     S
H1101  C1468   1.108   .     S
H1103  C1467   1.107   1_545 S
N1105  O1106   1.296   .     A
N1105  O1107   1.300   .     A
N1108  O1109   1.296   .     A
N1108  O1110   1.303   .     A
N1111  O1113   1.301   .     A
N1111  O1112   1.298   .     A
N1114  O1116   1.302   .     A
N1114  O1115   1.301   .     A
O1117  C1121   1.306   .     A
O1117  Cu1129  1.949   .     S
O1118  C1122   1.301   .     A
O1118  Cu1130  1.949   .     S
O1119  Cu1130  1.950   .     S
O1119  C1121   1.310   .     A
O1120  Cu1129  1.950   .     S
O1120  C1122   1.302   .     A
C1121  C1139   1.489   .     S
C1122  C1140   1.472   .     S
O1123  C1127   1.301   .     A
O1123  Cu1129  1.998   .     S
O1124  C1128   1.295   .     A
O1124  Cu1130  1.998   .     S
O1125  Cu1130  2.007   .     S
O1125  C1127   1.303   .     A
O1126  C1128   1.311   .     A
O1126  Cu1129  2.007   .     S
C1127  C1131   1.473   .     S
C1128  C1132   1.478   .     S
Cu1129 Cu1130  2.700   .     S
Cu1129 N1154   2.028   .     S
Cu1130 N1153   2.028   .     S
C1131  C1380   1.400   1_455 S
C1131  C1411   1.559   1_455 S
C1132  C1255   1.400   .     S
C1132  C1297   1.553   .     S
C1133  C1145   1.394   .     A
C1133  C1137   1.392   .     A
C1133  H1135   1.085   .     S
C1134  C1146   1.390   .     A
C1134  H1136   1.083   .     S
C1134  C1138   1.391   .     A
C1137  C1183   1.520   .     S
C1137  C1139   1.419   .     A
C1138  C1140   1.411   .     A
C1138  C1193   1.513   .     S
C1139  C1141   1.419   .     A
C1140  C1142   1.422   .     A
C1141  N1203   1.452   .     S
C1141  C1143   1.418   .     A
C1142  N1206   1.435   .     S
C1142  C1144   1.421   .     A
C1143  C1145   1.418   .     A
C1143  C1209   1.525   .     S
C1144  C1219   1.535   .     S
C1144  C1146   1.418   .     A
C1146  C773    1.469   1_565 S
C1147  H1149   1.079   .     S
C1147  C1151   1.404   .     A
C1147  C1161   1.397   .     A
C1148  C1152   1.411   .     A
C1148  H1150   1.079   .     S
C1148  C1162   1.398   .     A
C1151  N1153   1.387   .     A
C1151  N1229   1.425   .     S
C1152  N1232   1.443   .     S
C1152  N1154   1.394   .     A
N1153  C1155   1.389   .     A
N1154  C1156   1.385   .     A
C1155  C1157   1.414   .     A
C1155  N1235   1.439   .     S
C1156  C1158   1.406   .     A
C1156  N1238   1.427   .     S
C1157  H1159   1.078   .     S
C1157  C1161   1.400   .     A
C1158  C1162   1.398   .     A
C1158  H1160   1.079   .     S
C1162  C417    1.519   1_556 S
C1163  H1171   1.110   .     S
C1163  H1172   1.101   .     S
C1163  C1255   1.559   .     S
C1163  C1288   1.544   .     S
C1164  H1170   1.103   .     S
C1164  H1169   1.109   .     S
C1164  C1411   1.544   1_455 S
C1164  C1413   1.529   1_455 S
C1165  H1167   1.109   .     S
C1165  H1166   1.111   .     S
C1165  C1288   1.529   .     S
C1165  H1292   1.111   .     S
H1168  C1413   1.111   1_455 S
C1173  H1182   1.113   .     S
C1173  H1181   1.102   .     S
C1173  C1380   1.553   1_455 S
C1173  C1422   1.534   1_455 S
C1174  H1180   1.110   .     S
C1174  H1179   1.099   .     S
C1174  C1297   1.534   .     S
C1174  C1299   1.529   .     S
C1175  H1176   1.112   .     S
C1175  H1177   1.111   .     S
C1175  H1178   1.110   .     S
C1175  C1422   1.529   1_455 S
C1183  C1184   1.534   .     S
C1183  H1191   1.096   .     S
C1183  H1192   1.113   .     S
C1184  H1190   1.111   .     S
C1184  C1185   1.527   .     S
C1184  H1189   1.112   .     S
C1185  H1186   1.111   .     S
C1185  H1187   1.111   .     S
C1185  H1312   1.109   .     S
H1188  C1433   1.109   1_455 S
C1193  C1194   1.539   .     S
C1193  H1201   1.109   .     S
C1193  H1202   1.113   .     S
C1194  H1199   1.110   .     S
C1194  C1195   1.519   .     S
C1194  H1200   1.108   .     S
C1195  H1444   1.101   1_455 S
C1195  H1445   1.107   1_455 S
C1195  H1446   1.110   1_455 S
H1196  C1319   1.101   .     S
H1197  C1319   1.107   .     S
H1198  C1319   1.110   .     S
N1203  O1204   1.301   .     A
N1203  O1205   1.300   .     A
N1206  O1207   1.300   .     A
N1206  O1208   1.299   .     A
C1209  H1217   1.107   .     S
C1209  H1218   1.109   .     S
C1210  H1216   1.108   .     S
C1210  C1211   1.525   .     S
C1210  C837    1.537   1_565 S
C1210  H843    1.110   1_565 S
C1211  H1212   1.111   .     S
C1211  H1214   1.111   .     S
C1211  H841    1.111   1_565 S
C1219  H1228   1.101   .     S
C1219  C848    1.534   1_565 S
C1219  H855    1.107   1_565 S
C1220  H1226   1.104   .     S
C1220  C1345   1.527   .     S
C1221  H1223   1.110   .     S
C1221  H1224   1.111   .     S
C1221  H1222   1.111   .     S
C1221  C1468   1.527   1_455 S
H1225  C848    1.108   1_565 S
N1229  O1230   1.296   .     A
N1229  O1231   1.300   .     A
N1232  O1233   1.296   .     A
N1232  O1234   1.303   .     A
N1235  O1237   1.301   .     A
N1235  O1236   1.298   .     A
N1238  O1240   1.302   .     A
N1238  O1239   1.301   .     A
O1241  C1245   1.306   .     A
O1241  Cu1253  1.949   .     S
O1242  C1246   1.301   .     A
O1242  Cu1254  1.949   .     S
O1243  Cu1254  1.950   .     S
O1243  C1245   1.310   .     A
O1244  Cu1253  1.950   .     S
O1244  C1246   1.302   .     A
C1245  C1263   1.489   .     S
C1246  C1264   1.472   .     S
O1247  C1251   1.301   .     A
O1247  Cu1253  1.998   .     S
O1248  C1252   1.295   .     A
O1248  Cu1254  1.998   .     S
O1249  Cu1254  2.007   .     S
O1249  C1251   1.303   .     A
O1250  C1252   1.311   .     A
O1250  Cu1253  2.007   .     S
C1251  C1255   1.473   .     S
C1252  C1256   1.478   .     S
Cu1253 Cu1254  2.700   .     S
Cu1253 N1278   2.028   .     S
Cu1254 N1277   2.028   .     S
C1256  C1379   1.400   .     S
C1256  C1421   1.553   .     S
C1257  C1269   1.394   .     A
C1257  C1261   1.392   .     A
C1257  H1259   1.085   .     S
C1258  C1270   1.390   .     A
C1258  H1260   1.083   .     S
C1258  C1262   1.391   .     A
C1261  C1307   1.520   .     S
C1261  C1263   1.419   .     A
C1262  C1264   1.411   .     A
C1262  C1317   1.513   .     S
C1263  C1265   1.419   .     A
C1264  C1266   1.422   .     A
C1265  N1327   1.452   .     S
C1265  C1267   1.418   .     A
C1266  N1330   1.435   .     S
C1266  C1268   1.421   .     A
C1267  C1269   1.418   .     A
C1267  C1333   1.525   .     S
C1268  C1343   1.535   .     S
C1268  C1270   1.418   .     A
C1270  C897    1.469   1_565 S
C1271  H1273   1.079   .     S
C1271  C1275   1.404   .     A
C1271  C1285   1.397   .     A
C1272  C1276   1.411   .     A
C1272  H1274   1.079   .     S
C1272  C1286   1.398   .     A
C1275  N1277   1.387   .     A
C1275  N1353   1.425   .     S
C1276  N1356   1.443   .     S
C1276  N1278   1.394   .     A
N1277  C1279   1.389   .     A
N1278  C1280   1.385   .     A
C1279  C1281   1.414   .     A
C1279  N1359   1.439   .     S
C1280  C1282   1.406   .     A
C1280  N1362   1.427   .     S
C1281  H1283   1.078   .     S
C1281  C1285   1.400   .     A
C1282  C1286   1.398   .     A
C1282  H1284   1.079   .     S
C1286  C541    1.519   1_556 S
C1287  H1295   1.110   .     S
C1287  H1296   1.101   .     S
C1287  C1379   1.559   .     S
C1287  C1412   1.544   .     S
C1288  H1294   1.103   .     S
C1288  H1293   1.109   .     S
C1289  H1291   1.109   .     S
C1289  H1290   1.111   .     S
C1289  C1412   1.529   .     S
C1289  H1416   1.111   .     S
C1297  H1306   1.113   .     S
C1297  H1305   1.102   .     S
C1298  H1304   1.110   .     S
C1298  H1303   1.099   .     S
C1298  C1421   1.534   .     S
C1298  C1423   1.529   .     S
C1299  H1300   1.112   .     S
C1299  H1301   1.111   .     S
C1299  H1302   1.110   .     S
C1307  C1308   1.534   .     S
C1307  H1315   1.096   .     S
C1307  H1316   1.113   .     S
C1308  H1314   1.111   .     S
C1308  C1309   1.527   .     S
C1308  H1313   1.112   .     S
C1309  H1310   1.111   .     S
C1309  H1311   1.111   .     S
C1309  H1436   1.109   .     S
C1317  C1318   1.539   .     S
C1317  H1325   1.109   .     S
C1317  H1326   1.113   .     S
C1318  H1323   1.110   .     S
C1318  C1319   1.519   .     S
C1318  H1324   1.108   .     S
H1320  C1443   1.101   .     S
H1321  C1443   1.107   .     S
H1322  C1443   1.110   .     S
N1327  O1328   1.301   .     A
N1327  O1329   1.300   .     A
N1330  O1331   1.300   .     A
N1330  O1332   1.299   .     A
C1333  H1341   1.107   .     S
C1333  H1342   1.109   .     S
C1334  H1340   1.108   .     S
C1334  C1335   1.525   .     S
C1334  C961    1.537   1_565 S
C1334  H967    1.110   1_565 S
C1335  H1336   1.111   .     S
C1335  H1338   1.111   .     S
C1335  H965    1.111   1_565 S
C1343  H1352   1.101   .     S
C1343  C972    1.534   1_565 S
C1343  H979    1.107   1_565 S
C1344  H1350   1.104   .     S
C1344  C1469   1.527   .     S
C1345  H1347   1.110   .     S
C1345  H1348   1.111   .     S
C1345  H1346   1.111   .     S
H1349  C972    1.108   1_565 S
N1353  O1354   1.296   .     A
N1353  O1355   1.300   .     A
N1356  O1357   1.296   .     A
N1356  O1358   1.303   .     A
N1359  O1361   1.301   .     A
N1359  O1360   1.298   .     A
N1362  O1364   1.302   .     A
N1362  O1363   1.301   .     A
O1365  C1369   1.306   .     A
O1365  Cu1377  1.949   .     S
O1366  C1370   1.301   .     A
O1366  Cu1378  1.949   .     S
O1367  Cu1378  1.950   .     S
O1367  C1369   1.310   .     A
O1368  Cu1377  1.950   .     S
O1368  C1370   1.302   .     A
C1369  C1387   1.489   .     S
C1370  C1388   1.472   .     S
O1371  C1375   1.301   .     A
O1371  Cu1377  1.998   .     S
O1372  C1376   1.295   .     A
O1372  Cu1378  1.998   .     S
O1373  Cu1378  2.007   .     S
O1373  C1375   1.303   .     A
O1374  C1376   1.311   .     A
O1374  Cu1377  2.007   .     S
C1375  C1379   1.473   .     S
C1376  C1380   1.478   .     S
Cu1377 Cu1378  2.700   .     S
Cu1377 N1402   2.028   .     S
Cu1378 N1401   2.028   .     S
C1380  C1131   1.400   1_655 S
C1380  C1173   1.553   1_655 S
C1381  C1393   1.394   .     A
C1381  C1385   1.392   .     A
C1381  H1383   1.085   .     S
C1382  C1394   1.390   .     A
C1382  H1384   1.083   .     S
C1382  C1386   1.391   .     A
C1385  C1431   1.520   .     S
C1385  C1387   1.419   .     A
C1386  C1388   1.411   .     A
C1386  C1441   1.513   .     S
C1387  C1389   1.419   .     A
C1388  C1390   1.422   .     A
C1389  N1451   1.452   .     S
C1389  C1391   1.418   .     A
C1390  N1454   1.435   .     S
C1390  C1392   1.421   .     A
C1391  C1393   1.418   .     A
C1391  C1457   1.525   .     S
C1392  C1467   1.535   .     S
C1392  C1394   1.418   .     A
C1394  C1021   1.469   1_565 S
C1395  H1397   1.079   .     S
C1395  C1399   1.404   .     A
C1395  C1409   1.397   .     A
C1396  C1400   1.411   .     A
C1396  H1398   1.079   .     S
C1396  C1410   1.398   .     A
C1399  N1401   1.387   .     A
C1399  N1477   1.425   .     S
C1400  N1480   1.443   .     S
C1400  N1402   1.394   .     A
N1401  C1403   1.389   .     A
N1402  C1404   1.385   .     A
C1403  C1405   1.414   .     A
C1403  N1483   1.439   .     S
C1404  C1406   1.406   .     A
C1404  N1486   1.427   .     S
C1405  H1407   1.078   .     S
C1405  C1409   1.400   .     A
C1406  C1410   1.398   .     A
C1406  H1408   1.079   .     S
C1410  C665    1.519   1_556 S
C1411  H1419   1.110   .     S
C1411  H1420   1.101   .     S
C1411  C1131   1.559   1_655 S
C1411  C1164   1.544   1_655 S
C1412  H1418   1.103   .     S
C1412  H1417   1.109   .     S
C1413  H1415   1.109   .     S
C1413  H1414   1.111   .     S
C1413  C1164   1.529   1_655 S
C1413  H1168   1.111   1_655 S
C1421  H1430   1.113   .     S
C1421  H1429   1.102   .     S
C1422  H1428   1.110   .     S
C1422  H1427   1.099   .     S
C1422  C1173   1.534   1_655 S
C1422  C1175   1.529   1_655 S
C1423  H1424   1.112   .     S
C1423  H1425   1.111   .     S
C1423  H1426   1.110   .     S
C1431  C1432   1.534   .     S
C1431  H1439   1.096   .     S
C1431  H1440   1.113   .     S
C1432  H1438   1.111   .     S
C1432  C1433   1.527   .     S
C1432  H1437   1.112   .     S
C1433  H1434   1.111   .     S
C1433  H1435   1.111   .     S
C1433  H1188   1.109   1_655 S
C1441  C1442   1.539   .     S
C1441  H1449   1.109   .     S
C1441  H1450   1.113   .     S
C1442  H1447   1.110   .     S
C1442  C1443   1.519   .     S
C1442  H1448   1.108   .     S
H1444  C1195   1.101   1_655 S
H1445  C1195   1.107   1_655 S
H1446  C1195   1.110   1_655 S
N1451  O1452   1.301   .     A
N1451  O1453   1.300   .     A
N1454  O1455   1.300   .     A
N1454  O1456   1.299   .     A
C1457  H1465   1.107   .     S
C1457  H1466   1.109   .     S
C1458  H1464   1.108   .     S
C1458  C1459   1.525   .     S
C1458  C1085   1.537   1_565 S
C1458  H1091   1.110   1_565 S
C1459  H1460   1.111   .     S
C1459  H1462   1.111   .     S
C1459  H1089   1.111   1_565 S
C1467  H1476   1.101   .     S
C1467  C1096   1.534   1_565 S
C1467  H1103   1.107   1_565 S
C1468  H1474   1.104   .     S
C1468  C1221   1.527   1_655 S
C1469  H1471   1.110   .     S
C1469  H1472   1.111   .     S
C1469  H1470   1.111   .     S
H1473  C1096   1.108   1_565 S
N1477  O1478   1.296   .     A
N1477  O1479   1.300   .     A
N1480  O1481   1.296   .     A
N1480  O1482   1.303   .     A
N1483  O1485   1.301   .     A
N1483  O1484   1.298   .     A
N1486  O1488   1.302   .     A
N1486  O1487   1.301   .     A
