data_str_m2_o10_o17_pcu_sym.134
_audit_creation_date              2020-01-03
_audit_creation_method            'Materials Studio'
_symmetry_space_group_name_H-M    'P1'
_symmetry_Int_Tables_number       1
_symmetry_cell_setting            triclinic
loop_
_symmetry_equiv_pos_as_xyz
  x,y,z
_cell_length_a                    29.9198
_cell_length_b                    26.1204
_cell_length_c                    22.6009
_cell_angle_alpha                 102.4840
_cell_angle_beta                  95.4218
_cell_angle_gamma                 94.6586
loop_
_atom_site_label
_atom_site_type_symbol
_atom_site_fract_x
_atom_site_fract_y
_atom_site_fract_z
_atom_site_U_iso_or_equiv
_atom_site_adp_type
_atom_site_occupancy
C1     C     0.24759   0.06683   0.15157   0.00000  Uiso   1.00
C2     C     0.25241   0.26650   0.18176   0.00000  Uiso   1.00
C3     C     0.01195   0.07240   0.11265   0.00000  Uiso   1.00
C4     C     0.48805   0.26094   0.22068   0.00000  Uiso   1.00
C5     C     0.23890   0.01131   0.14603   0.00000  Uiso   1.00
C6     C     0.26110   0.32202   0.18731   0.00000  Uiso   1.00
C7     C     0.16456   0.16538   0.16659   0.00000  Uiso   1.00
C8     C     0.33544   0.16796   0.16675   0.00000  Uiso   1.00
C9     C     0.41211   0.21246   0.19746   0.00000  Uiso   1.00
C10    C     0.08789   0.12087   0.13587   0.00000  Uiso   1.00
C11    C     0.38362   0.16827   0.16642   0.00000  Uiso   1.00
C12    C     0.11638   0.16506   0.16691   0.00000  Uiso   1.00
C13    C     0.40062   0.12395   0.13488   0.00000  Uiso   1.00
C14    C     0.09938   0.20938   0.19845   0.00000  Uiso   1.00
C15    C     0.44727   0.12141   0.13675   0.00000  Uiso   1.00
C16    C     0.05273   0.21192   0.19658   0.00000  Uiso   1.00
C17    C     0.47662   0.16718   0.16634   0.00000  Uiso   1.00
C18    C     0.02338   0.16615   0.16699   0.00000  Uiso   1.00
C19    C     0.45888   0.21408   0.19484   0.00000  Uiso   1.00
C20    C     0.04112   0.11926   0.13849   0.00000  Uiso   1.00
C21    C     0.46470   0.07414   0.10990   0.00000  Uiso   1.00
C22    C     0.03530   0.25920   0.22343   0.00000  Uiso   1.00
Cu23   Cu    0.25500   0.17246   0.22813   0.00000  Uiso   1.00
Cu24   Cu    0.24499   0.16087   0.10521   0.00000  Uiso   1.00
H25    H     0.39707   0.24526   0.22311   0.00000  Uiso   1.00
H26    H     0.10293   0.08807   0.11022   0.00000  Uiso   1.00
H27    H     0.37669   0.09109   0.11064   0.00000  Uiso   1.00
H28    H     0.12331   0.24224   0.22269   0.00000  Uiso   1.00
N29    N     0.23744   0.15214   0.01284   0.00000  Uiso   1.00
N30    N     0.26255   0.18119   0.32049   0.00000  Uiso   1.00
O31    O     0.25325   0.09538   0.20659   0.00000  Uiso   1.00
O32    O     0.24674   0.23796   0.12674   0.00000  Uiso   1.00
O33    O     0.24480   0.08559   0.10279   0.00000  Uiso   1.00
O34    O     0.25520   0.24774   0.23055   0.00000  Uiso   1.00
O35    O     0.18935   0.17155   0.21857   0.00000  Uiso   1.00
O36    O     0.31064   0.16179   0.11476   0.00000  Uiso   1.00
O37    O     0.18090   0.16176   0.11477   0.00000  Uiso   1.00
O38    O     0.31910   0.17157   0.21857   0.00000  Uiso   1.00
C39    C     0.43313   0.02570   0.08324   0.00000  Uiso   1.00
H40    H     0.40681   0.01371   0.10879   0.00000  Uiso   1.00
O41    O     0.43476   0.00038   0.03156   0.00000  Uiso   1.00
C42    C     0.06687   0.30763   0.25010   0.00000  Uiso   1.00
H43    H     0.09319   0.31962   0.22454   0.00000  Uiso   1.00
O44    O     0.06524   0.33296   0.30177   0.00000  Uiso   1.00
C45    C     0.03004   0.02045   0.09348   0.00000  Uiso   1.00
H46    H     0.01338   0.32419   0.05493   0.00000  Uiso   1.00
O47    O     0.06278   0.00903   0.12246   0.00000  Uiso   1.00
C48    C     0.46996   0.31288   0.23985   0.00000  Uiso   1.00
H49    H     0.48662   0.00914   0.27840   0.00000  Uiso   1.00
O50    O     0.43722   0.32430   0.21087   0.00000  Uiso   1.00
C51    C     0.19889   0.31855   0.10208   0.00000  Uiso   1.00
H52    H     0.19202   0.33075   0.05944   0.00000  Uiso   1.00
O53    O     0.17182   0.28608   0.11465   0.00000  Uiso   1.00
C54    C     0.30111   0.01478   0.23125   0.00000  Uiso   1.00
H55    H     0.30798   0.00258   0.27390   0.00000  Uiso   1.00
O56    O     0.32818   0.04726   0.21868   0.00000  Uiso   1.00
Br57   Br    0.19311   0.09969   0.30041   0.00000  Uiso   1.00
Br58   Br    0.30689   0.23364   0.03292   0.00000  Uiso   1.00
C59    C     0.74759   0.06683   0.15157   0.00000  Uiso   1.00
C60    C     0.75241   0.26650   0.18176   0.00000  Uiso   1.00
C61    C     0.51195   0.07240   0.11265   0.00000  Uiso   1.00
C62    C     0.98805   0.26094   0.22068   0.00000  Uiso   1.00
C63    C     0.73890   0.01131   0.14603   0.00000  Uiso   1.00
C64    C     0.76110   0.32202   0.18731   0.00000  Uiso   1.00
C65    C     0.66456   0.16538   0.16659   0.00000  Uiso   1.00
C66    C     0.83544   0.16796   0.16675   0.00000  Uiso   1.00
C67    C     0.91211   0.21246   0.19746   0.00000  Uiso   1.00
C68    C     0.58789   0.12087   0.13587   0.00000  Uiso   1.00
C69    C     0.88362   0.16827   0.16642   0.00000  Uiso   1.00
C70    C     0.61638   0.16506   0.16691   0.00000  Uiso   1.00
C71    C     0.90062   0.12395   0.13488   0.00000  Uiso   1.00
C72    C     0.59938   0.20938   0.19845   0.00000  Uiso   1.00
C73    C     0.94727   0.12141   0.13675   0.00000  Uiso   1.00
C74    C     0.55273   0.21192   0.19658   0.00000  Uiso   1.00
C75    C     0.97662   0.16718   0.16634   0.00000  Uiso   1.00
C76    C     0.52338   0.16615   0.16699   0.00000  Uiso   1.00
C77    C     0.95888   0.21408   0.19484   0.00000  Uiso   1.00
C78    C     0.54112   0.11926   0.13849   0.00000  Uiso   1.00
C79    C     0.96470   0.07414   0.10990   0.00000  Uiso   1.00
C80    C     0.53530   0.25920   0.22343   0.00000  Uiso   1.00
Cu81   Cu    0.75500   0.17246   0.22813   0.00000  Uiso   1.00
Cu82   Cu    0.74499   0.16087   0.10521   0.00000  Uiso   1.00
H83    H     0.89707   0.24526   0.22311   0.00000  Uiso   1.00
H84    H     0.60293   0.08807   0.11022   0.00000  Uiso   1.00
H85    H     0.87669   0.09109   0.11064   0.00000  Uiso   1.00
H86    H     0.62331   0.24224   0.22269   0.00000  Uiso   1.00
N87    N     0.73744   0.15214   0.01284   0.00000  Uiso   1.00
N88    N     0.76255   0.18119   0.32049   0.00000  Uiso   1.00
O89    O     0.75325   0.09538   0.20659   0.00000  Uiso   1.00
O90    O     0.74674   0.23796   0.12674   0.00000  Uiso   1.00
O91    O     0.74480   0.08559   0.10279   0.00000  Uiso   1.00
O92    O     0.75520   0.24774   0.23055   0.00000  Uiso   1.00
O93    O     0.68935   0.17155   0.21857   0.00000  Uiso   1.00
O94    O     0.81064   0.16179   0.11476   0.00000  Uiso   1.00
O95    O     0.68090   0.16176   0.11477   0.00000  Uiso   1.00
O96    O     0.81910   0.17157   0.21857   0.00000  Uiso   1.00
C97    C     0.93313   0.02570   0.08324   0.00000  Uiso   1.00
H98    H     0.90681   0.01371   0.10879   0.00000  Uiso   1.00
O99    O     0.93476   0.00038   0.03156   0.00000  Uiso   1.00
C100   C     0.56687   0.30763   0.25010   0.00000  Uiso   1.00
H101   H     0.59319   0.31962   0.22454   0.00000  Uiso   1.00
O102   O     0.56524   0.33296   0.30177   0.00000  Uiso   1.00
C103   C     0.53004   0.02045   0.09348   0.00000  Uiso   1.00
H104   H     0.51338   0.32419   0.05493   0.00000  Uiso   1.00
O105   O     0.56278   0.00903   0.12246   0.00000  Uiso   1.00
C106   C     0.96996   0.31288   0.23985   0.00000  Uiso   1.00
H107   H     0.98662   0.00914   0.27840   0.00000  Uiso   1.00
O108   O     0.93722   0.32430   0.21087   0.00000  Uiso   1.00
C109   C     0.69889   0.31855   0.10208   0.00000  Uiso   1.00
H110   H     0.69202   0.33075   0.05944   0.00000  Uiso   1.00
O111   O     0.67182   0.28608   0.11465   0.00000  Uiso   1.00
C112   C     0.80111   0.01478   0.23125   0.00000  Uiso   1.00
H113   H     0.80798   0.00258   0.27390   0.00000  Uiso   1.00
O114   O     0.82818   0.04726   0.21868   0.00000  Uiso   1.00
Br115  Br    0.69311   0.09969   0.30041   0.00000  Uiso   1.00
Br116  Br    0.80689   0.23364   0.03292   0.00000  Uiso   1.00
C117   C     0.24759   0.40017   0.15157   0.00000  Uiso   1.00
C118   C     0.25241   0.59983   0.18176   0.00000  Uiso   1.00
C119   C     0.01195   0.40573   0.11265   0.00000  Uiso   1.00
C120   C     0.48805   0.59427   0.22068   0.00000  Uiso   1.00
C121   C     0.23890   0.34465   0.14603   0.00000  Uiso   1.00
C122   C     0.26110   0.65535   0.18731   0.00000  Uiso   1.00
C123   C     0.16456   0.49871   0.16659   0.00000  Uiso   1.00
C124   C     0.33544   0.50129   0.16675   0.00000  Uiso   1.00
C125   C     0.41211   0.54580   0.19746   0.00000  Uiso   1.00
C126   C     0.08789   0.45420   0.13587   0.00000  Uiso   1.00
C127   C     0.38362   0.50160   0.16642   0.00000  Uiso   1.00
C128   C     0.11638   0.49840   0.16691   0.00000  Uiso   1.00
C129   C     0.40062   0.45728   0.13488   0.00000  Uiso   1.00
C130   C     0.09938   0.54272   0.19845   0.00000  Uiso   1.00
C131   C     0.44727   0.45475   0.13675   0.00000  Uiso   1.00
C132   C     0.05273   0.54525   0.19658   0.00000  Uiso   1.00
C133   C     0.47662   0.50051   0.16634   0.00000  Uiso   1.00
C134   C     0.02338   0.49949   0.16699   0.00000  Uiso   1.00
C135   C     0.45888   0.54741   0.19484   0.00000  Uiso   1.00
C136   C     0.04112   0.45259   0.13849   0.00000  Uiso   1.00
C137   C     0.46470   0.40747   0.10990   0.00000  Uiso   1.00
C138   C     0.03530   0.59253   0.22343   0.00000  Uiso   1.00
Cu139  Cu    0.25500   0.50579   0.22813   0.00000  Uiso   1.00
Cu140  Cu    0.24499   0.49421   0.10521   0.00000  Uiso   1.00
H141   H     0.39707   0.57859   0.22311   0.00000  Uiso   1.00
H142   H     0.10293   0.42141   0.11022   0.00000  Uiso   1.00
H143   H     0.37669   0.42443   0.11064   0.00000  Uiso   1.00
H144   H     0.12331   0.57557   0.22269   0.00000  Uiso   1.00
N145   N     0.23744   0.48547   0.01284   0.00000  Uiso   1.00
N146   N     0.26255   0.51453   0.32049   0.00000  Uiso   1.00
O147   O     0.25325   0.42871   0.20659   0.00000  Uiso   1.00
O148   O     0.24674   0.57129   0.12674   0.00000  Uiso   1.00
O149   O     0.24480   0.41892   0.10279   0.00000  Uiso   1.00
O150   O     0.25520   0.58108   0.23055   0.00000  Uiso   1.00
O151   O     0.18935   0.50488   0.21857   0.00000  Uiso   1.00
O152   O     0.31064   0.49512   0.11476   0.00000  Uiso   1.00
O153   O     0.18090   0.49510   0.11477   0.00000  Uiso   1.00
O154   O     0.31910   0.50490   0.21857   0.00000  Uiso   1.00
C155   C     0.43313   0.35903   0.08324   0.00000  Uiso   1.00
H156   H     0.40681   0.34704   0.10879   0.00000  Uiso   1.00
O157   O     0.43476   0.33371   0.03156   0.00000  Uiso   1.00
C158   C     0.06687   0.64096   0.25010   0.00000  Uiso   1.00
H159   H     0.09319   0.65296   0.22454   0.00000  Uiso   1.00
O160   O     0.06524   0.66629   0.30177   0.00000  Uiso   1.00
C161   C     0.03004   0.35379   0.09348   0.00000  Uiso   1.00
H162   H     0.01338   0.65753   0.05493   0.00000  Uiso   1.00
O163   O     0.06278   0.34236   0.12246   0.00000  Uiso   1.00
C164   C     0.46996   0.64621   0.23985   0.00000  Uiso   1.00
H165   H     0.48662   0.34247   0.27840   0.00000  Uiso   1.00
O166   O     0.43722   0.65764   0.21087   0.00000  Uiso   1.00
C167   C     0.19889   0.65188   0.10208   0.00000  Uiso   1.00
H168   H     0.19202   0.66408   0.05944   0.00000  Uiso   1.00
O169   O     0.17182   0.61941   0.11465   0.00000  Uiso   1.00
C170   C     0.30111   0.34812   0.23125   0.00000  Uiso   1.00
H171   H     0.30798   0.33592   0.27390   0.00000  Uiso   1.00
O172   O     0.32818   0.38059   0.21868   0.00000  Uiso   1.00
Br173  Br    0.19311   0.43303   0.30041   0.00000  Uiso   1.00
Br174  Br    0.30689   0.56697   0.03292   0.00000  Uiso   1.00
C175   C     0.74759   0.40017   0.15157   0.00000  Uiso   1.00
C176   C     0.75241   0.59983   0.18176   0.00000  Uiso   1.00
C177   C     0.51195   0.40573   0.11265   0.00000  Uiso   1.00
C178   C     0.98805   0.59427   0.22068   0.00000  Uiso   1.00
C179   C     0.73890   0.34465   0.14603   0.00000  Uiso   1.00
C180   C     0.76110   0.65535   0.18731   0.00000  Uiso   1.00
C181   C     0.66456   0.49871   0.16659   0.00000  Uiso   1.00
C182   C     0.83544   0.50129   0.16675   0.00000  Uiso   1.00
C183   C     0.91211   0.54580   0.19746   0.00000  Uiso   1.00
C184   C     0.58789   0.45420   0.13587   0.00000  Uiso   1.00
C185   C     0.88362   0.50160   0.16642   0.00000  Uiso   1.00
C186   C     0.61638   0.49840   0.16691   0.00000  Uiso   1.00
C187   C     0.90062   0.45728   0.13488   0.00000  Uiso   1.00
C188   C     0.59938   0.54272   0.19845   0.00000  Uiso   1.00
C189   C     0.94727   0.45475   0.13675   0.00000  Uiso   1.00
C190   C     0.55273   0.54525   0.19658   0.00000  Uiso   1.00
C191   C     0.97662   0.50051   0.16634   0.00000  Uiso   1.00
C192   C     0.52338   0.49949   0.16699   0.00000  Uiso   1.00
C193   C     0.95888   0.54741   0.19484   0.00000  Uiso   1.00
C194   C     0.54112   0.45259   0.13849   0.00000  Uiso   1.00
C195   C     0.96470   0.40747   0.10990   0.00000  Uiso   1.00
C196   C     0.53530   0.59253   0.22343   0.00000  Uiso   1.00
Cu197  Cu    0.75500   0.50579   0.22813   0.00000  Uiso   1.00
Cu198  Cu    0.74499   0.49421   0.10521   0.00000  Uiso   1.00
H199   H     0.89707   0.57859   0.22311   0.00000  Uiso   1.00
H200   H     0.60293   0.42141   0.11022   0.00000  Uiso   1.00
H201   H     0.87669   0.42443   0.11064   0.00000  Uiso   1.00
H202   H     0.62331   0.57557   0.22269   0.00000  Uiso   1.00
N203   N     0.73744   0.48547   0.01284   0.00000  Uiso   1.00
N204   N     0.76255   0.51453   0.32049   0.00000  Uiso   1.00
O205   O     0.75325   0.42871   0.20659   0.00000  Uiso   1.00
O206   O     0.74674   0.57129   0.12674   0.00000  Uiso   1.00
O207   O     0.74480   0.41892   0.10279   0.00000  Uiso   1.00
O208   O     0.75520   0.58108   0.23055   0.00000  Uiso   1.00
O209   O     0.68935   0.50488   0.21857   0.00000  Uiso   1.00
O210   O     0.81064   0.49512   0.11476   0.00000  Uiso   1.00
O211   O     0.68090   0.49510   0.11477   0.00000  Uiso   1.00
O212   O     0.81910   0.50490   0.21857   0.00000  Uiso   1.00
C213   C     0.93313   0.35903   0.08324   0.00000  Uiso   1.00
H214   H     0.90681   0.34704   0.10879   0.00000  Uiso   1.00
O215   O     0.93476   0.33371   0.03156   0.00000  Uiso   1.00
C216   C     0.56687   0.64096   0.25010   0.00000  Uiso   1.00
H217   H     0.59319   0.65296   0.22454   0.00000  Uiso   1.00
O218   O     0.56524   0.66629   0.30177   0.00000  Uiso   1.00
C219   C     0.53004   0.35379   0.09348   0.00000  Uiso   1.00
H220   H     0.51338   0.65753   0.05493   0.00000  Uiso   1.00
O221   O     0.56278   0.34236   0.12246   0.00000  Uiso   1.00
C222   C     0.96996   0.64621   0.23985   0.00000  Uiso   1.00
H223   H     0.98662   0.34247   0.27840   0.00000  Uiso   1.00
O224   O     0.93722   0.65764   0.21087   0.00000  Uiso   1.00
C225   C     0.69889   0.65188   0.10208   0.00000  Uiso   1.00
H226   H     0.69202   0.66408   0.05944   0.00000  Uiso   1.00
O227   O     0.67182   0.61941   0.11465   0.00000  Uiso   1.00
C228   C     0.80111   0.34812   0.23125   0.00000  Uiso   1.00
H229   H     0.80798   0.33592   0.27390   0.00000  Uiso   1.00
O230   O     0.82818   0.38059   0.21868   0.00000  Uiso   1.00
Br231  Br    0.69311   0.43303   0.30041   0.00000  Uiso   1.00
Br232  Br    0.80689   0.56697   0.03292   0.00000  Uiso   1.00
C233   C     0.24759   0.73350   0.15157   0.00000  Uiso   1.00
C234   C     0.25241   0.93316   0.18176   0.00000  Uiso   1.00
C235   C     0.01195   0.73906   0.11265   0.00000  Uiso   1.00
C236   C     0.48805   0.92760   0.22068   0.00000  Uiso   1.00
C237   C     0.23890   0.67798   0.14603   0.00000  Uiso   1.00
C238   C     0.26110   0.98869   0.18731   0.00000  Uiso   1.00
C239   C     0.16456   0.83204   0.16659   0.00000  Uiso   1.00
C240   C     0.33544   0.83462   0.16675   0.00000  Uiso   1.00
C241   C     0.41211   0.87913   0.19746   0.00000  Uiso   1.00
C242   C     0.08789   0.78754   0.13587   0.00000  Uiso   1.00
C243   C     0.38362   0.83494   0.16642   0.00000  Uiso   1.00
C244   C     0.11638   0.83173   0.16691   0.00000  Uiso   1.00
C245   C     0.40062   0.79062   0.13488   0.00000  Uiso   1.00
C246   C     0.09938   0.87605   0.19845   0.00000  Uiso   1.00
C247   C     0.44727   0.78808   0.13675   0.00000  Uiso   1.00
C248   C     0.05273   0.87859   0.19658   0.00000  Uiso   1.00
C249   C     0.47662   0.83385   0.16634   0.00000  Uiso   1.00
C250   C     0.02338   0.83282   0.16699   0.00000  Uiso   1.00
C251   C     0.45888   0.88074   0.19484   0.00000  Uiso   1.00
C252   C     0.04112   0.78592   0.13849   0.00000  Uiso   1.00
C253   C     0.46470   0.74080   0.10990   0.00000  Uiso   1.00
C254   C     0.03530   0.92586   0.22343   0.00000  Uiso   1.00
Cu255  Cu    0.25500   0.83913   0.22813   0.00000  Uiso   1.00
Cu256  Cu    0.24499   0.82754   0.10521   0.00000  Uiso   1.00
H257   H     0.39707   0.91193   0.22311   0.00000  Uiso   1.00
H258   H     0.10293   0.75474   0.11022   0.00000  Uiso   1.00
H259   H     0.37669   0.75776   0.11064   0.00000  Uiso   1.00
H260   H     0.12331   0.90891   0.22269   0.00000  Uiso   1.00
N261   N     0.23744   0.81881   0.01284   0.00000  Uiso   1.00
N262   N     0.26255   0.84786   0.32049   0.00000  Uiso   1.00
O263   O     0.25325   0.76204   0.20659   0.00000  Uiso   1.00
O264   O     0.24674   0.90462   0.12674   0.00000  Uiso   1.00
O265   O     0.24480   0.75226   0.10279   0.00000  Uiso   1.00
O266   O     0.25520   0.91441   0.23055   0.00000  Uiso   1.00
O267   O     0.18935   0.83821   0.21857   0.00000  Uiso   1.00
O268   O     0.31064   0.82845   0.11476   0.00000  Uiso   1.00
O269   O     0.18090   0.82843   0.11477   0.00000  Uiso   1.00
O270   O     0.31910   0.83824   0.21857   0.00000  Uiso   1.00
C271   C     0.43313   0.69237   0.08324   0.00000  Uiso   1.00
H272   H     0.40681   0.68037   0.10879   0.00000  Uiso   1.00
O273   O     0.43476   0.66704   0.03156   0.00000  Uiso   1.00
C274   C     0.06687   0.97430   0.25010   0.00000  Uiso   1.00
H275   H     0.09319   0.98629   0.22454   0.00000  Uiso   1.00
O276   O     0.06524   0.99962   0.30177   0.00000  Uiso   1.00
C277   C     0.03004   0.68712   0.09348   0.00000  Uiso   1.00
H278   H     0.01338   0.99086   0.05493   0.00000  Uiso   1.00
O279   O     0.06278   0.67569   0.12246   0.00000  Uiso   1.00
C280   C     0.46996   0.97955   0.23985   0.00000  Uiso   1.00
H281   H     0.48662   0.67581   0.27840   0.00000  Uiso   1.00
O282   O     0.43722   0.99097   0.21087   0.00000  Uiso   1.00
C283   C     0.19889   0.98522   0.10208   0.00000  Uiso   1.00
H284   H     0.19202   0.99742   0.05944   0.00000  Uiso   1.00
O285   O     0.17182   0.95274   0.11465   0.00000  Uiso   1.00
C286   C     0.30111   0.68145   0.23125   0.00000  Uiso   1.00
H287   H     0.30798   0.66925   0.27390   0.00000  Uiso   1.00
O288   O     0.32818   0.71392   0.21868   0.00000  Uiso   1.00
Br289  Br    0.19311   0.76636   0.30041   0.00000  Uiso   1.00
Br290  Br    0.30689   0.90030   0.03292   0.00000  Uiso   1.00
C291   C     0.74759   0.73350   0.15157   0.00000  Uiso   1.00
C292   C     0.75241   0.93316   0.18176   0.00000  Uiso   1.00
C293   C     0.51195   0.73906   0.11265   0.00000  Uiso   1.00
C294   C     0.98805   0.92760   0.22068   0.00000  Uiso   1.00
C295   C     0.73890   0.67798   0.14603   0.00000  Uiso   1.00
C296   C     0.76110   0.98869   0.18731   0.00000  Uiso   1.00
C297   C     0.66456   0.83204   0.16659   0.00000  Uiso   1.00
C298   C     0.83544   0.83462   0.16675   0.00000  Uiso   1.00
C299   C     0.91211   0.87913   0.19746   0.00000  Uiso   1.00
C300   C     0.58789   0.78754   0.13587   0.00000  Uiso   1.00
C301   C     0.88362   0.83494   0.16642   0.00000  Uiso   1.00
C302   C     0.61638   0.83173   0.16691   0.00000  Uiso   1.00
C303   C     0.90062   0.79062   0.13488   0.00000  Uiso   1.00
C304   C     0.59938   0.87605   0.19845   0.00000  Uiso   1.00
C305   C     0.94727   0.78808   0.13675   0.00000  Uiso   1.00
C306   C     0.55273   0.87859   0.19658   0.00000  Uiso   1.00
C307   C     0.97662   0.83385   0.16634   0.00000  Uiso   1.00
C308   C     0.52338   0.83282   0.16699   0.00000  Uiso   1.00
C309   C     0.95888   0.88074   0.19484   0.00000  Uiso   1.00
C310   C     0.54112   0.78592   0.13849   0.00000  Uiso   1.00
C311   C     0.96470   0.74080   0.10990   0.00000  Uiso   1.00
C312   C     0.53530   0.92586   0.22343   0.00000  Uiso   1.00
Cu313  Cu    0.75500   0.83913   0.22813   0.00000  Uiso   1.00
Cu314  Cu    0.74499   0.82754   0.10521   0.00000  Uiso   1.00
H315   H     0.89707   0.91193   0.22311   0.00000  Uiso   1.00
H316   H     0.60293   0.75474   0.11022   0.00000  Uiso   1.00
H317   H     0.87669   0.75776   0.11064   0.00000  Uiso   1.00
H318   H     0.62331   0.90891   0.22269   0.00000  Uiso   1.00
N319   N     0.73744   0.81881   0.01284   0.00000  Uiso   1.00
N320   N     0.76255   0.84786   0.32049   0.00000  Uiso   1.00
O321   O     0.75325   0.76204   0.20659   0.00000  Uiso   1.00
O322   O     0.74674   0.90462   0.12674   0.00000  Uiso   1.00
O323   O     0.74480   0.75226   0.10279   0.00000  Uiso   1.00
O324   O     0.75520   0.91441   0.23055   0.00000  Uiso   1.00
O325   O     0.68935   0.83821   0.21857   0.00000  Uiso   1.00
O326   O     0.81064   0.82845   0.11476   0.00000  Uiso   1.00
O327   O     0.68090   0.82843   0.11477   0.00000  Uiso   1.00
O328   O     0.81910   0.83824   0.21857   0.00000  Uiso   1.00
C329   C     0.93313   0.69237   0.08324   0.00000  Uiso   1.00
H330   H     0.90681   0.68037   0.10879   0.00000  Uiso   1.00
O331   O     0.93476   0.66704   0.03156   0.00000  Uiso   1.00
C332   C     0.56687   0.97430   0.25010   0.00000  Uiso   1.00
H333   H     0.59319   0.98629   0.22454   0.00000  Uiso   1.00
O334   O     0.56524   0.99962   0.30177   0.00000  Uiso   1.00
C335   C     0.53004   0.68712   0.09348   0.00000  Uiso   1.00
H336   H     0.51338   0.99086   0.05493   0.00000  Uiso   1.00
O337   O     0.56278   0.67569   0.12246   0.00000  Uiso   1.00
C338   C     0.96996   0.97955   0.23985   0.00000  Uiso   1.00
H339   H     0.98662   0.67581   0.27840   0.00000  Uiso   1.00
O340   O     0.93722   0.99097   0.21087   0.00000  Uiso   1.00
C341   C     0.69889   0.98522   0.10208   0.00000  Uiso   1.00
H342   H     0.69202   0.99742   0.05944   0.00000  Uiso   1.00
O343   O     0.67182   0.95274   0.11465   0.00000  Uiso   1.00
C344   C     0.80111   0.68145   0.23125   0.00000  Uiso   1.00
H345   H     0.80798   0.66925   0.27390   0.00000  Uiso   1.00
O346   O     0.82818   0.71392   0.21868   0.00000  Uiso   1.00
Br347  Br    0.69311   0.76636   0.30041   0.00000  Uiso   1.00
Br348  Br    0.80689   0.90030   0.03292   0.00000  Uiso   1.00
C349   C     0.24759   0.06683   0.48490   0.00000  Uiso   1.00
C350   C     0.25241   0.26650   0.51510   0.00000  Uiso   1.00
C351   C     0.01195   0.07240   0.44599   0.00000  Uiso   1.00
C352   C     0.48805   0.26094   0.55401   0.00000  Uiso   1.00
C353   C     0.23890   0.01131   0.47936   0.00000  Uiso   1.00
C354   C     0.26110   0.32202   0.52064   0.00000  Uiso   1.00
C355   C     0.16456   0.16538   0.49992   0.00000  Uiso   1.00
C356   C     0.33544   0.16796   0.50008   0.00000  Uiso   1.00
C357   C     0.41211   0.21246   0.53080   0.00000  Uiso   1.00
C358   C     0.08789   0.12087   0.46920   0.00000  Uiso   1.00
C359   C     0.38362   0.16827   0.49976   0.00000  Uiso   1.00
C360   C     0.11638   0.16506   0.50024   0.00000  Uiso   1.00
C361   C     0.40062   0.12395   0.46822   0.00000  Uiso   1.00
C362   C     0.09938   0.20938   0.53178   0.00000  Uiso   1.00
C363   C     0.44727   0.12141   0.47008   0.00000  Uiso   1.00
C364   C     0.05273   0.21192   0.52992   0.00000  Uiso   1.00
C365   C     0.47662   0.16718   0.49968   0.00000  Uiso   1.00
C366   C     0.02338   0.16615   0.50032   0.00000  Uiso   1.00
C367   C     0.45888   0.21408   0.52818   0.00000  Uiso   1.00
C368   C     0.04112   0.11926   0.47182   0.00000  Uiso   1.00
C369   C     0.46470   0.07414   0.44323   0.00000  Uiso   1.00
C370   C     0.03530   0.25920   0.55677   0.00000  Uiso   1.00
Cu371  Cu    0.25500   0.17246   0.56146   0.00000  Uiso   1.00
Cu372  Cu    0.24499   0.16087   0.43854   0.00000  Uiso   1.00
H373   H     0.39707   0.24526   0.55645   0.00000  Uiso   1.00
H374   H     0.10293   0.08807   0.44355   0.00000  Uiso   1.00
H375   H     0.37669   0.09109   0.44397   0.00000  Uiso   1.00
H376   H     0.12331   0.24224   0.55603   0.00000  Uiso   1.00
N377   N     0.23744   0.15214   0.34617   0.00000  Uiso   1.00
N378   N     0.26255   0.18119   0.65383   0.00000  Uiso   1.00
O379   O     0.25325   0.09538   0.53992   0.00000  Uiso   1.00
O380   O     0.24674   0.23796   0.46008   0.00000  Uiso   1.00
O381   O     0.24480   0.08559   0.43612   0.00000  Uiso   1.00
O382   O     0.25520   0.24774   0.56388   0.00000  Uiso   1.00
O383   O     0.18935   0.17155   0.55191   0.00000  Uiso   1.00
O384   O     0.31064   0.16179   0.44809   0.00000  Uiso   1.00
O385   O     0.18090   0.16176   0.44810   0.00000  Uiso   1.00
O386   O     0.31910   0.17157   0.55190   0.00000  Uiso   1.00
C387   C     0.43313   0.02570   0.41657   0.00000  Uiso   1.00
H388   H     0.40681   0.01371   0.44213   0.00000  Uiso   1.00
O389   O     0.43476   0.00038   0.36489   0.00000  Uiso   1.00
C390   C     0.06687   0.30763   0.58343   0.00000  Uiso   1.00
H391   H     0.09319   0.31962   0.55787   0.00000  Uiso   1.00
O392   O     0.06524   0.33296   0.63511   0.00000  Uiso   1.00
C393   C     0.03004   0.02045   0.42682   0.00000  Uiso   1.00
H394   H     0.01338   0.32419   0.38826   0.00000  Uiso   1.00
O395   O     0.06278   0.00903   0.45579   0.00000  Uiso   1.00
C396   C     0.46996   0.31288   0.57318   0.00000  Uiso   1.00
H397   H     0.48662   0.00914   0.61174   0.00000  Uiso   1.00
O398   O     0.43722   0.32430   0.54421   0.00000  Uiso   1.00
C399   C     0.19889   0.31855   0.43541   0.00000  Uiso   1.00
H400   H     0.19202   0.33075   0.39277   0.00000  Uiso   1.00
O401   O     0.17182   0.28608   0.44798   0.00000  Uiso   1.00
C402   C     0.30111   0.01478   0.56459   0.00000  Uiso   1.00
H403   H     0.30798   0.00258   0.60723   0.00000  Uiso   1.00
O404   O     0.32818   0.04726   0.55202   0.00000  Uiso   1.00
Br405  Br    0.19311   0.09969   0.63374   0.00000  Uiso   1.00
Br406  Br    0.30689   0.23364   0.36626   0.00000  Uiso   1.00
C407   C     0.74759   0.06683   0.48490   0.00000  Uiso   1.00
C408   C     0.75241   0.26650   0.51510   0.00000  Uiso   1.00
C409   C     0.51195   0.07240   0.44599   0.00000  Uiso   1.00
C410   C     0.98805   0.26094   0.55401   0.00000  Uiso   1.00
C411   C     0.73890   0.01131   0.47936   0.00000  Uiso   1.00
C412   C     0.76110   0.32202   0.52064   0.00000  Uiso   1.00
C413   C     0.66456   0.16538   0.49992   0.00000  Uiso   1.00
C414   C     0.83544   0.16796   0.50008   0.00000  Uiso   1.00
C415   C     0.91211   0.21246   0.53080   0.00000  Uiso   1.00
C416   C     0.58789   0.12087   0.46920   0.00000  Uiso   1.00
C417   C     0.88362   0.16827   0.49976   0.00000  Uiso   1.00
C418   C     0.61638   0.16506   0.50024   0.00000  Uiso   1.00
C419   C     0.90062   0.12395   0.46822   0.00000  Uiso   1.00
C420   C     0.59938   0.20938   0.53178   0.00000  Uiso   1.00
C421   C     0.94727   0.12141   0.47008   0.00000  Uiso   1.00
C422   C     0.55273   0.21192   0.52992   0.00000  Uiso   1.00
C423   C     0.97662   0.16718   0.49968   0.00000  Uiso   1.00
C424   C     0.52338   0.16615   0.50032   0.00000  Uiso   1.00
C425   C     0.95888   0.21408   0.52818   0.00000  Uiso   1.00
C426   C     0.54112   0.11926   0.47182   0.00000  Uiso   1.00
C427   C     0.96470   0.07414   0.44323   0.00000  Uiso   1.00
C428   C     0.53530   0.25920   0.55677   0.00000  Uiso   1.00
Cu429  Cu    0.75500   0.17246   0.56146   0.00000  Uiso   1.00
Cu430  Cu    0.74499   0.16087   0.43854   0.00000  Uiso   1.00
H431   H     0.89707   0.24526   0.55645   0.00000  Uiso   1.00
H432   H     0.60293   0.08807   0.44355   0.00000  Uiso   1.00
H433   H     0.87669   0.09109   0.44397   0.00000  Uiso   1.00
H434   H     0.62331   0.24224   0.55603   0.00000  Uiso   1.00
N435   N     0.73744   0.15214   0.34617   0.00000  Uiso   1.00
N436   N     0.76255   0.18119   0.65383   0.00000  Uiso   1.00
O437   O     0.75325   0.09538   0.53992   0.00000  Uiso   1.00
O438   O     0.74674   0.23796   0.46008   0.00000  Uiso   1.00
O439   O     0.74480   0.08559   0.43612   0.00000  Uiso   1.00
O440   O     0.75520   0.24774   0.56388   0.00000  Uiso   1.00
O441   O     0.68935   0.17155   0.55191   0.00000  Uiso   1.00
O442   O     0.81064   0.16179   0.44809   0.00000  Uiso   1.00
O443   O     0.68090   0.16176   0.44810   0.00000  Uiso   1.00
O444   O     0.81910   0.17157   0.55190   0.00000  Uiso   1.00
C445   C     0.93313   0.02570   0.41657   0.00000  Uiso   1.00
H446   H     0.90681   0.01371   0.44213   0.00000  Uiso   1.00
O447   O     0.93476   0.00038   0.36489   0.00000  Uiso   1.00
C448   C     0.56687   0.30763   0.58343   0.00000  Uiso   1.00
H449   H     0.59319   0.31962   0.55787   0.00000  Uiso   1.00
O450   O     0.56524   0.33296   0.63511   0.00000  Uiso   1.00
C451   C     0.53004   0.02045   0.42682   0.00000  Uiso   1.00
H452   H     0.51338   0.32419   0.38826   0.00000  Uiso   1.00
O453   O     0.56278   0.00903   0.45579   0.00000  Uiso   1.00
C454   C     0.96996   0.31288   0.57318   0.00000  Uiso   1.00
H455   H     0.98662   0.00914   0.61174   0.00000  Uiso   1.00
O456   O     0.93722   0.32430   0.54421   0.00000  Uiso   1.00
C457   C     0.69889   0.31855   0.43541   0.00000  Uiso   1.00
H458   H     0.69202   0.33075   0.39277   0.00000  Uiso   1.00
O459   O     0.67182   0.28608   0.44798   0.00000  Uiso   1.00
C460   C     0.80111   0.01478   0.56459   0.00000  Uiso   1.00
H461   H     0.80798   0.00258   0.60723   0.00000  Uiso   1.00
O462   O     0.82818   0.04726   0.55202   0.00000  Uiso   1.00
Br463  Br    0.69311   0.09969   0.63374   0.00000  Uiso   1.00
Br464  Br    0.80689   0.23364   0.36626   0.00000  Uiso   1.00
C465   C     0.24759   0.40017   0.48490   0.00000  Uiso   1.00
C466   C     0.25241   0.59983   0.51510   0.00000  Uiso   1.00
C467   C     0.01195   0.40573   0.44599   0.00000  Uiso   1.00
C468   C     0.48805   0.59427   0.55401   0.00000  Uiso   1.00
C469   C     0.23890   0.34465   0.47936   0.00000  Uiso   1.00
C470   C     0.26110   0.65535   0.52064   0.00000  Uiso   1.00
C471   C     0.16456   0.49871   0.49992   0.00000  Uiso   1.00
C472   C     0.33544   0.50129   0.50008   0.00000  Uiso   1.00
C473   C     0.41211   0.54580   0.53080   0.00000  Uiso   1.00
C474   C     0.08789   0.45420   0.46920   0.00000  Uiso   1.00
C475   C     0.38362   0.50160   0.49976   0.00000  Uiso   1.00
C476   C     0.11638   0.49840   0.50024   0.00000  Uiso   1.00
C477   C     0.40062   0.45728   0.46822   0.00000  Uiso   1.00
C478   C     0.09938   0.54272   0.53178   0.00000  Uiso   1.00
C479   C     0.44727   0.45475   0.47008   0.00000  Uiso   1.00
C480   C     0.05273   0.54525   0.52992   0.00000  Uiso   1.00
C481   C     0.47662   0.50051   0.49968   0.00000  Uiso   1.00
C482   C     0.02338   0.49949   0.50032   0.00000  Uiso   1.00
C483   C     0.45888   0.54741   0.52818   0.00000  Uiso   1.00
C484   C     0.04112   0.45259   0.47182   0.00000  Uiso   1.00
C485   C     0.46470   0.40747   0.44323   0.00000  Uiso   1.00
C486   C     0.03530   0.59253   0.55677   0.00000  Uiso   1.00
Cu487  Cu    0.25500   0.50579   0.56146   0.00000  Uiso   1.00
Cu488  Cu    0.24499   0.49421   0.43854   0.00000  Uiso   1.00
H489   H     0.39707   0.57859   0.55645   0.00000  Uiso   1.00
H490   H     0.10293   0.42141   0.44355   0.00000  Uiso   1.00
H491   H     0.37669   0.42443   0.44397   0.00000  Uiso   1.00
H492   H     0.12331   0.57557   0.55603   0.00000  Uiso   1.00
N493   N     0.23744   0.48547   0.34617   0.00000  Uiso   1.00
N494   N     0.26255   0.51453   0.65383   0.00000  Uiso   1.00
O495   O     0.25325   0.42871   0.53992   0.00000  Uiso   1.00
O496   O     0.24674   0.57129   0.46008   0.00000  Uiso   1.00
O497   O     0.24480   0.41892   0.43612   0.00000  Uiso   1.00
O498   O     0.25520   0.58108   0.56388   0.00000  Uiso   1.00
O499   O     0.18935   0.50488   0.55191   0.00000  Uiso   1.00
O500   O     0.31064   0.49512   0.44809   0.00000  Uiso   1.00
O501   O     0.18090   0.49510   0.44810   0.00000  Uiso   1.00
O502   O     0.31910   0.50490   0.55190   0.00000  Uiso   1.00
C503   C     0.43313   0.35903   0.41657   0.00000  Uiso   1.00
H504   H     0.40681   0.34704   0.44213   0.00000  Uiso   1.00
O505   O     0.43476   0.33371   0.36489   0.00000  Uiso   1.00
C506   C     0.06687   0.64096   0.58343   0.00000  Uiso   1.00
H507   H     0.09319   0.65296   0.55787   0.00000  Uiso   1.00
O508   O     0.06524   0.66629   0.63511   0.00000  Uiso   1.00
C509   C     0.03004   0.35379   0.42682   0.00000  Uiso   1.00
H510   H     0.01338   0.65753   0.38826   0.00000  Uiso   1.00
O511   O     0.06278   0.34236   0.45579   0.00000  Uiso   1.00
C512   C     0.46996   0.64621   0.57318   0.00000  Uiso   1.00
H513   H     0.48662   0.34247   0.61174   0.00000  Uiso   1.00
O514   O     0.43722   0.65764   0.54421   0.00000  Uiso   1.00
C515   C     0.19889   0.65188   0.43541   0.00000  Uiso   1.00
H516   H     0.19202   0.66408   0.39277   0.00000  Uiso   1.00
O517   O     0.17182   0.61941   0.44798   0.00000  Uiso   1.00
C518   C     0.30111   0.34812   0.56459   0.00000  Uiso   1.00
H519   H     0.30798   0.33592   0.60723   0.00000  Uiso   1.00
O520   O     0.32818   0.38059   0.55202   0.00000  Uiso   1.00
Br521  Br    0.19311   0.43303   0.63374   0.00000  Uiso   1.00
Br522  Br    0.30689   0.56697   0.36626   0.00000  Uiso   1.00
C523   C     0.74759   0.40017   0.48490   0.00000  Uiso   1.00
C524   C     0.75241   0.59983   0.51510   0.00000  Uiso   1.00
C525   C     0.51195   0.40573   0.44599   0.00000  Uiso   1.00
C526   C     0.98805   0.59427   0.55401   0.00000  Uiso   1.00
C527   C     0.73890   0.34465   0.47936   0.00000  Uiso   1.00
C528   C     0.76110   0.65535   0.52064   0.00000  Uiso   1.00
C529   C     0.66456   0.49871   0.49992   0.00000  Uiso   1.00
C530   C     0.83544   0.50129   0.50008   0.00000  Uiso   1.00
C531   C     0.91211   0.54580   0.53080   0.00000  Uiso   1.00
C532   C     0.58789   0.45420   0.46920   0.00000  Uiso   1.00
C533   C     0.88362   0.50160   0.49976   0.00000  Uiso   1.00
C534   C     0.61638   0.49840   0.50024   0.00000  Uiso   1.00
C535   C     0.90062   0.45728   0.46822   0.00000  Uiso   1.00
C536   C     0.59938   0.54272   0.53178   0.00000  Uiso   1.00
C537   C     0.94727   0.45475   0.47008   0.00000  Uiso   1.00
C538   C     0.55273   0.54525   0.52992   0.00000  Uiso   1.00
C539   C     0.97662   0.50051   0.49968   0.00000  Uiso   1.00
C540   C     0.52338   0.49949   0.50032   0.00000  Uiso   1.00
C541   C     0.95888   0.54741   0.52818   0.00000  Uiso   1.00
C542   C     0.54112   0.45259   0.47182   0.00000  Uiso   1.00
C543   C     0.96470   0.40747   0.44323   0.00000  Uiso   1.00
C544   C     0.53530   0.59253   0.55677   0.00000  Uiso   1.00
Cu545  Cu    0.75500   0.50579   0.56146   0.00000  Uiso   1.00
Cu546  Cu    0.74499   0.49421   0.43854   0.00000  Uiso   1.00
H547   H     0.89707   0.57859   0.55645   0.00000  Uiso   1.00
H548   H     0.60293   0.42141   0.44355   0.00000  Uiso   1.00
H549   H     0.87669   0.42443   0.44397   0.00000  Uiso   1.00
H550   H     0.62331   0.57557   0.55603   0.00000  Uiso   1.00
N551   N     0.73744   0.48547   0.34617   0.00000  Uiso   1.00
N552   N     0.76255   0.51453   0.65383   0.00000  Uiso   1.00
O553   O     0.75325   0.42871   0.53992   0.00000  Uiso   1.00
O554   O     0.74674   0.57129   0.46008   0.00000  Uiso   1.00
O555   O     0.74480   0.41892   0.43612   0.00000  Uiso   1.00
O556   O     0.75520   0.58108   0.56388   0.00000  Uiso   1.00
O557   O     0.68935   0.50488   0.55191   0.00000  Uiso   1.00
O558   O     0.81064   0.49512   0.44809   0.00000  Uiso   1.00
O559   O     0.68090   0.49510   0.44810   0.00000  Uiso   1.00
O560   O     0.81910   0.50490   0.55190   0.00000  Uiso   1.00
C561   C     0.93313   0.35903   0.41657   0.00000  Uiso   1.00
H562   H     0.90681   0.34704   0.44213   0.00000  Uiso   1.00
O563   O     0.93476   0.33371   0.36489   0.00000  Uiso   1.00
C564   C     0.56687   0.64096   0.58343   0.00000  Uiso   1.00
H565   H     0.59319   0.65296   0.55787   0.00000  Uiso   1.00
O566   O     0.56524   0.66629   0.63511   0.00000  Uiso   1.00
C567   C     0.53004   0.35379   0.42682   0.00000  Uiso   1.00
H568   H     0.51338   0.65753   0.38826   0.00000  Uiso   1.00
O569   O     0.56278   0.34236   0.45579   0.00000  Uiso   1.00
C570   C     0.96996   0.64621   0.57318   0.00000  Uiso   1.00
H571   H     0.98662   0.34247   0.61174   0.00000  Uiso   1.00
O572   O     0.93722   0.65764   0.54421   0.00000  Uiso   1.00
C573   C     0.69889   0.65188   0.43541   0.00000  Uiso   1.00
H574   H     0.69202   0.66408   0.39277   0.00000  Uiso   1.00
O575   O     0.67182   0.61941   0.44798   0.00000  Uiso   1.00
C576   C     0.80111   0.34812   0.56459   0.00000  Uiso   1.00
H577   H     0.80798   0.33592   0.60723   0.00000  Uiso   1.00
O578   O     0.82818   0.38059   0.55202   0.00000  Uiso   1.00
Br579  Br    0.69311   0.43303   0.63374   0.00000  Uiso   1.00
Br580  Br    0.80689   0.56697   0.36626   0.00000  Uiso   1.00
C581   C     0.24759   0.73350   0.48490   0.00000  Uiso   1.00
C582   C     0.25241   0.93316   0.51510   0.00000  Uiso   1.00
C583   C     0.01195   0.73906   0.44599   0.00000  Uiso   1.00
C584   C     0.48805   0.92760   0.55401   0.00000  Uiso   1.00
C585   C     0.23890   0.67798   0.47936   0.00000  Uiso   1.00
C586   C     0.26110   0.98869   0.52064   0.00000  Uiso   1.00
C587   C     0.16456   0.83204   0.49992   0.00000  Uiso   1.00
C588   C     0.33544   0.83462   0.50008   0.00000  Uiso   1.00
C589   C     0.41211   0.87913   0.53080   0.00000  Uiso   1.00
C590   C     0.08789   0.78754   0.46920   0.00000  Uiso   1.00
C591   C     0.38362   0.83494   0.49976   0.00000  Uiso   1.00
C592   C     0.11638   0.83173   0.50024   0.00000  Uiso   1.00
C593   C     0.40062   0.79062   0.46822   0.00000  Uiso   1.00
C594   C     0.09938   0.87605   0.53178   0.00000  Uiso   1.00
C595   C     0.44727   0.78808   0.47008   0.00000  Uiso   1.00
C596   C     0.05273   0.87859   0.52992   0.00000  Uiso   1.00
C597   C     0.47662   0.83385   0.49968   0.00000  Uiso   1.00
C598   C     0.02338   0.83282   0.50032   0.00000  Uiso   1.00
C599   C     0.45888   0.88074   0.52818   0.00000  Uiso   1.00
C600   C     0.04112   0.78592   0.47182   0.00000  Uiso   1.00
C601   C     0.46470   0.74080   0.44323   0.00000  Uiso   1.00
C602   C     0.03530   0.92586   0.55677   0.00000  Uiso   1.00
Cu603  Cu    0.25500   0.83913   0.56146   0.00000  Uiso   1.00
Cu604  Cu    0.24499   0.82754   0.43854   0.00000  Uiso   1.00
H605   H     0.39707   0.91193   0.55645   0.00000  Uiso   1.00
H606   H     0.10293   0.75474   0.44355   0.00000  Uiso   1.00
H607   H     0.37669   0.75776   0.44397   0.00000  Uiso   1.00
H608   H     0.12331   0.90891   0.55603   0.00000  Uiso   1.00
N609   N     0.23744   0.81881   0.34617   0.00000  Uiso   1.00
N610   N     0.26255   0.84786   0.65383   0.00000  Uiso   1.00
O611   O     0.25325   0.76204   0.53992   0.00000  Uiso   1.00
O612   O     0.24674   0.90462   0.46008   0.00000  Uiso   1.00
O613   O     0.24480   0.75226   0.43612   0.00000  Uiso   1.00
O614   O     0.25520   0.91441   0.56388   0.00000  Uiso   1.00
O615   O     0.18935   0.83821   0.55191   0.00000  Uiso   1.00
O616   O     0.31064   0.82845   0.44809   0.00000  Uiso   1.00
O617   O     0.18090   0.82843   0.44810   0.00000  Uiso   1.00
O618   O     0.31910   0.83824   0.55190   0.00000  Uiso   1.00
C619   C     0.43313   0.69237   0.41657   0.00000  Uiso   1.00
H620   H     0.40681   0.68037   0.44213   0.00000  Uiso   1.00
O621   O     0.43476   0.66704   0.36489   0.00000  Uiso   1.00
C622   C     0.06687   0.97430   0.58343   0.00000  Uiso   1.00
H623   H     0.09319   0.98629   0.55787   0.00000  Uiso   1.00
O624   O     0.06524   0.99962   0.63511   0.00000  Uiso   1.00
C625   C     0.03004   0.68712   0.42682   0.00000  Uiso   1.00
H626   H     0.01338   0.99086   0.38826   0.00000  Uiso   1.00
O627   O     0.06278   0.67569   0.45579   0.00000  Uiso   1.00
C628   C     0.46996   0.97955   0.57318   0.00000  Uiso   1.00
H629   H     0.48662   0.67581   0.61174   0.00000  Uiso   1.00
O630   O     0.43722   0.99097   0.54421   0.00000  Uiso   1.00
C631   C     0.19889   0.98522   0.43541   0.00000  Uiso   1.00
H632   H     0.19202   0.99742   0.39277   0.00000  Uiso   1.00
O633   O     0.17182   0.95274   0.44798   0.00000  Uiso   1.00
C634   C     0.30111   0.68145   0.56459   0.00000  Uiso   1.00
H635   H     0.30798   0.66925   0.60723   0.00000  Uiso   1.00
O636   O     0.32818   0.71392   0.55202   0.00000  Uiso   1.00
Br637  Br    0.19311   0.76636   0.63374   0.00000  Uiso   1.00
Br638  Br    0.30689   0.90030   0.36626   0.00000  Uiso   1.00
C639   C     0.74759   0.73350   0.48490   0.00000  Uiso   1.00
C640   C     0.75241   0.93316   0.51510   0.00000  Uiso   1.00
C641   C     0.51195   0.73906   0.44599   0.00000  Uiso   1.00
C642   C     0.98805   0.92760   0.55401   0.00000  Uiso   1.00
C643   C     0.73890   0.67798   0.47936   0.00000  Uiso   1.00
C644   C     0.76110   0.98869   0.52064   0.00000  Uiso   1.00
C645   C     0.66456   0.83204   0.49992   0.00000  Uiso   1.00
C646   C     0.83544   0.83462   0.50008   0.00000  Uiso   1.00
C647   C     0.91211   0.87913   0.53080   0.00000  Uiso   1.00
C648   C     0.58789   0.78754   0.46920   0.00000  Uiso   1.00
C649   C     0.88362   0.83494   0.49976   0.00000  Uiso   1.00
C650   C     0.61638   0.83173   0.50024   0.00000  Uiso   1.00
C651   C     0.90062   0.79062   0.46822   0.00000  Uiso   1.00
C652   C     0.59938   0.87605   0.53178   0.00000  Uiso   1.00
C653   C     0.94727   0.78808   0.47008   0.00000  Uiso   1.00
C654   C     0.55273   0.87859   0.52992   0.00000  Uiso   1.00
C655   C     0.97662   0.83385   0.49968   0.00000  Uiso   1.00
C656   C     0.52338   0.83282   0.50032   0.00000  Uiso   1.00
C657   C     0.95888   0.88074   0.52818   0.00000  Uiso   1.00
C658   C     0.54112   0.78592   0.47182   0.00000  Uiso   1.00
C659   C     0.96470   0.74080   0.44323   0.00000  Uiso   1.00
C660   C     0.53530   0.92586   0.55677   0.00000  Uiso   1.00
Cu661  Cu    0.75500   0.83913   0.56146   0.00000  Uiso   1.00
Cu662  Cu    0.74499   0.82754   0.43854   0.00000  Uiso   1.00
H663   H     0.89707   0.91193   0.55645   0.00000  Uiso   1.00
H664   H     0.60293   0.75474   0.44355   0.00000  Uiso   1.00
H665   H     0.87669   0.75776   0.44397   0.00000  Uiso   1.00
H666   H     0.62331   0.90891   0.55603   0.00000  Uiso   1.00
N667   N     0.73744   0.81881   0.34617   0.00000  Uiso   1.00
N668   N     0.76255   0.84786   0.65383   0.00000  Uiso   1.00
O669   O     0.75325   0.76204   0.53992   0.00000  Uiso   1.00
O670   O     0.74674   0.90462   0.46008   0.00000  Uiso   1.00
O671   O     0.74480   0.75226   0.43612   0.00000  Uiso   1.00
O672   O     0.75520   0.91441   0.56388   0.00000  Uiso   1.00
O673   O     0.68935   0.83821   0.55191   0.00000  Uiso   1.00
O674   O     0.81064   0.82845   0.44809   0.00000  Uiso   1.00
O675   O     0.68090   0.82843   0.44810   0.00000  Uiso   1.00
O676   O     0.81910   0.83824   0.55190   0.00000  Uiso   1.00
C677   C     0.93313   0.69237   0.41657   0.00000  Uiso   1.00
H678   H     0.90681   0.68037   0.44213   0.00000  Uiso   1.00
O679   O     0.93476   0.66704   0.36489   0.00000  Uiso   1.00
C680   C     0.56687   0.97430   0.58343   0.00000  Uiso   1.00
H681   H     0.59319   0.98629   0.55787   0.00000  Uiso   1.00
O682   O     0.56524   0.99962   0.63511   0.00000  Uiso   1.00
C683   C     0.53004   0.68712   0.42682   0.00000  Uiso   1.00
H684   H     0.51338   0.99086   0.38826   0.00000  Uiso   1.00
O685   O     0.56278   0.67569   0.45579   0.00000  Uiso   1.00
C686   C     0.96996   0.97955   0.57318   0.00000  Uiso   1.00
H687   H     0.98662   0.67581   0.61174   0.00000  Uiso   1.00
O688   O     0.93722   0.99097   0.54421   0.00000  Uiso   1.00
C689   C     0.69889   0.98522   0.43541   0.00000  Uiso   1.00
H690   H     0.69202   0.99742   0.39277   0.00000  Uiso   1.00
O691   O     0.67182   0.95274   0.44798   0.00000  Uiso   1.00
C692   C     0.80111   0.68145   0.56459   0.00000  Uiso   1.00
H693   H     0.80798   0.66925   0.60723   0.00000  Uiso   1.00
O694   O     0.82818   0.71392   0.55202   0.00000  Uiso   1.00
Br695  Br    0.69311   0.76636   0.63374   0.00000  Uiso   1.00
Br696  Br    0.80689   0.90030   0.36626   0.00000  Uiso   1.00
C697   C     0.24759   0.06683   0.81823   0.00000  Uiso   1.00
C698   C     0.25241   0.26650   0.84843   0.00000  Uiso   1.00
C699   C     0.01195   0.07240   0.77932   0.00000  Uiso   1.00
C700   C     0.48805   0.26094   0.88735   0.00000  Uiso   1.00
C701   C     0.23890   0.01131   0.81269   0.00000  Uiso   1.00
C702   C     0.26110   0.32202   0.85397   0.00000  Uiso   1.00
C703   C     0.16456   0.16538   0.83325   0.00000  Uiso   1.00
C704   C     0.33544   0.16796   0.83341   0.00000  Uiso   1.00
C705   C     0.41211   0.21246   0.86413   0.00000  Uiso   1.00
C706   C     0.08789   0.12087   0.80254   0.00000  Uiso   1.00
C707   C     0.38362   0.16827   0.83309   0.00000  Uiso   1.00
C708   C     0.11638   0.16506   0.83358   0.00000  Uiso   1.00
C709   C     0.40062   0.12395   0.80155   0.00000  Uiso   1.00
C710   C     0.09938   0.20938   0.86512   0.00000  Uiso   1.00
C711   C     0.44727   0.12141   0.80342   0.00000  Uiso   1.00
C712   C     0.05273   0.21192   0.86325   0.00000  Uiso   1.00
C713   C     0.47662   0.16718   0.83301   0.00000  Uiso   1.00
C714   C     0.02338   0.16615   0.83366   0.00000  Uiso   1.00
C715   C     0.45888   0.21408   0.86151   0.00000  Uiso   1.00
C716   C     0.04112   0.11926   0.80516   0.00000  Uiso   1.00
C717   C     0.46470   0.07414   0.77657   0.00000  Uiso   1.00
C718   C     0.03530   0.25920   0.89010   0.00000  Uiso   1.00
Cu719  Cu    0.25500   0.17246   0.89479   0.00000  Uiso   1.00
Cu720  Cu    0.24499   0.16087   0.77187   0.00000  Uiso   1.00
H721   H     0.39707   0.24526   0.88978   0.00000  Uiso   1.00
H722   H     0.10293   0.08807   0.77689   0.00000  Uiso   1.00
H723   H     0.37669   0.09109   0.77731   0.00000  Uiso   1.00
H724   H     0.12331   0.24224   0.88936   0.00000  Uiso   1.00
N725   N     0.23744   0.15214   0.67951   0.00000  Uiso   1.00
N726   N     0.26255   0.18119   0.98716   0.00000  Uiso   1.00
O727   O     0.25325   0.09538   0.87326   0.00000  Uiso   1.00
O728   O     0.24674   0.23796   0.79341   0.00000  Uiso   1.00
O729   O     0.24480   0.08559   0.76945   0.00000  Uiso   1.00
O730   O     0.25520   0.24774   0.89721   0.00000  Uiso   1.00
O731   O     0.18935   0.17155   0.88524   0.00000  Uiso   1.00
O732   O     0.31064   0.16179   0.78143   0.00000  Uiso   1.00
O733   O     0.18090   0.16176   0.78143   0.00000  Uiso   1.00
O734   O     0.31910   0.17157   0.88523   0.00000  Uiso   1.00
C735   C     0.43313   0.02570   0.74990   0.00000  Uiso   1.00
H736   H     0.40681   0.01371   0.77546   0.00000  Uiso   1.00
O737   O     0.43476   0.00038   0.69823   0.00000  Uiso   1.00
C738   C     0.06687   0.30763   0.91676   0.00000  Uiso   1.00
H739   H     0.09319   0.31962   0.89121   0.00000  Uiso   1.00
O740   O     0.06524   0.33296   0.96844   0.00000  Uiso   1.00
C741   C     0.03004   0.02045   0.76015   0.00000  Uiso   1.00
H742   H     0.01338   0.32419   0.72159   0.00000  Uiso   1.00
O743   O     0.06278   0.00903   0.78913   0.00000  Uiso   1.00
C744   C     0.46996   0.31288   0.90651   0.00000  Uiso   1.00
H745   H     0.48662   0.00914   0.94507   0.00000  Uiso   1.00
O746   O     0.43722   0.32430   0.87754   0.00000  Uiso   1.00
C747   C     0.19889   0.31855   0.76875   0.00000  Uiso   1.00
H748   H     0.19202   0.33075   0.72610   0.00000  Uiso   1.00
O749   O     0.17182   0.28608   0.78131   0.00000  Uiso   1.00
C750   C     0.30111   0.01478   0.89792   0.00000  Uiso   1.00
H751   H     0.30798   0.00258   0.94056   0.00000  Uiso   1.00
O752   O     0.32818   0.04726   0.88535   0.00000  Uiso   1.00
Br753  Br    0.19311   0.09969   0.96708   0.00000  Uiso   1.00
Br754  Br    0.30689   0.23364   0.69959   0.00000  Uiso   1.00
C755   C     0.74759   0.06683   0.81823   0.00000  Uiso   1.00
C756   C     0.75241   0.26650   0.84843   0.00000  Uiso   1.00
C757   C     0.51195   0.07240   0.77932   0.00000  Uiso   1.00
C758   C     0.98805   0.26094   0.88735   0.00000  Uiso   1.00
C759   C     0.73890   0.01131   0.81269   0.00000  Uiso   1.00
C760   C     0.76110   0.32202   0.85397   0.00000  Uiso   1.00
C761   C     0.66456   0.16538   0.83325   0.00000  Uiso   1.00
C762   C     0.83544   0.16796   0.83341   0.00000  Uiso   1.00
C763   C     0.91211   0.21246   0.86413   0.00000  Uiso   1.00
C764   C     0.58789   0.12087   0.80254   0.00000  Uiso   1.00
C765   C     0.88362   0.16827   0.83309   0.00000  Uiso   1.00
C766   C     0.61638   0.16506   0.83358   0.00000  Uiso   1.00
C767   C     0.90062   0.12395   0.80155   0.00000  Uiso   1.00
C768   C     0.59938   0.20938   0.86512   0.00000  Uiso   1.00
C769   C     0.94727   0.12141   0.80342   0.00000  Uiso   1.00
C770   C     0.55273   0.21192   0.86325   0.00000  Uiso   1.00
C771   C     0.97662   0.16718   0.83301   0.00000  Uiso   1.00
C772   C     0.52338   0.16615   0.83366   0.00000  Uiso   1.00
C773   C     0.95888   0.21408   0.86151   0.00000  Uiso   1.00
C774   C     0.54112   0.11926   0.80516   0.00000  Uiso   1.00
C775   C     0.96470   0.07414   0.77657   0.00000  Uiso   1.00
C776   C     0.53530   0.25920   0.89010   0.00000  Uiso   1.00
Cu777  Cu    0.75500   0.17246   0.89479   0.00000  Uiso   1.00
Cu778  Cu    0.74499   0.16087   0.77187   0.00000  Uiso   1.00
H779   H     0.89707   0.24526   0.88978   0.00000  Uiso   1.00
H780   H     0.60293   0.08807   0.77689   0.00000  Uiso   1.00
H781   H     0.87669   0.09109   0.77731   0.00000  Uiso   1.00
H782   H     0.62331   0.24224   0.88936   0.00000  Uiso   1.00
N783   N     0.73744   0.15214   0.67951   0.00000  Uiso   1.00
N784   N     0.76255   0.18119   0.98716   0.00000  Uiso   1.00
O785   O     0.75325   0.09538   0.87326   0.00000  Uiso   1.00
O786   O     0.74674   0.23796   0.79341   0.00000  Uiso   1.00
O787   O     0.74480   0.08559   0.76945   0.00000  Uiso   1.00
O788   O     0.75520   0.24774   0.89721   0.00000  Uiso   1.00
O789   O     0.68935   0.17155   0.88524   0.00000  Uiso   1.00
O790   O     0.81064   0.16179   0.78143   0.00000  Uiso   1.00
O791   O     0.68090   0.16176   0.78143   0.00000  Uiso   1.00
O792   O     0.81910   0.17157   0.88523   0.00000  Uiso   1.00
C793   C     0.93313   0.02570   0.74990   0.00000  Uiso   1.00
H794   H     0.90681   0.01371   0.77546   0.00000  Uiso   1.00
O795   O     0.93476   0.00038   0.69823   0.00000  Uiso   1.00
C796   C     0.56687   0.30763   0.91676   0.00000  Uiso   1.00
H797   H     0.59319   0.31962   0.89121   0.00000  Uiso   1.00
O798   O     0.56524   0.33296   0.96844   0.00000  Uiso   1.00
C799   C     0.53004   0.02045   0.76015   0.00000  Uiso   1.00
H800   H     0.51338   0.32419   0.72159   0.00000  Uiso   1.00
O801   O     0.56278   0.00903   0.78913   0.00000  Uiso   1.00
C802   C     0.96996   0.31288   0.90651   0.00000  Uiso   1.00
H803   H     0.98662   0.00914   0.94507   0.00000  Uiso   1.00
O804   O     0.93722   0.32430   0.87754   0.00000  Uiso   1.00
C805   C     0.69889   0.31855   0.76875   0.00000  Uiso   1.00
H806   H     0.69202   0.33075   0.72610   0.00000  Uiso   1.00
O807   O     0.67182   0.28608   0.78131   0.00000  Uiso   1.00
C808   C     0.80111   0.01478   0.89792   0.00000  Uiso   1.00
H809   H     0.80798   0.00258   0.94056   0.00000  Uiso   1.00
O810   O     0.82818   0.04726   0.88535   0.00000  Uiso   1.00
Br811  Br    0.69311   0.09969   0.96708   0.00000  Uiso   1.00
Br812  Br    0.80689   0.23364   0.69959   0.00000  Uiso   1.00
C813   C     0.24759   0.40017   0.81823   0.00000  Uiso   1.00
C814   C     0.25241   0.59983   0.84843   0.00000  Uiso   1.00
C815   C     0.01195   0.40573   0.77932   0.00000  Uiso   1.00
C816   C     0.48805   0.59427   0.88735   0.00000  Uiso   1.00
C817   C     0.23890   0.34465   0.81269   0.00000  Uiso   1.00
C818   C     0.26110   0.65535   0.85397   0.00000  Uiso   1.00
C819   C     0.16456   0.49871   0.83325   0.00000  Uiso   1.00
C820   C     0.33544   0.50129   0.83341   0.00000  Uiso   1.00
C821   C     0.41211   0.54580   0.86413   0.00000  Uiso   1.00
C822   C     0.08789   0.45420   0.80254   0.00000  Uiso   1.00
C823   C     0.38362   0.50160   0.83309   0.00000  Uiso   1.00
C824   C     0.11638   0.49840   0.83358   0.00000  Uiso   1.00
C825   C     0.40062   0.45728   0.80155   0.00000  Uiso   1.00
C826   C     0.09938   0.54272   0.86512   0.00000  Uiso   1.00
C827   C     0.44727   0.45475   0.80342   0.00000  Uiso   1.00
C828   C     0.05273   0.54525   0.86325   0.00000  Uiso   1.00
C829   C     0.47662   0.50051   0.83301   0.00000  Uiso   1.00
C830   C     0.02338   0.49949   0.83366   0.00000  Uiso   1.00
C831   C     0.45888   0.54741   0.86151   0.00000  Uiso   1.00
C832   C     0.04112   0.45259   0.80516   0.00000  Uiso   1.00
C833   C     0.46470   0.40747   0.77657   0.00000  Uiso   1.00
C834   C     0.03530   0.59253   0.89010   0.00000  Uiso   1.00
Cu835  Cu    0.25500   0.50579   0.89479   0.00000  Uiso   1.00
Cu836  Cu    0.24499   0.49421   0.77187   0.00000  Uiso   1.00
H837   H     0.39707   0.57859   0.88978   0.00000  Uiso   1.00
H838   H     0.10293   0.42141   0.77689   0.00000  Uiso   1.00
H839   H     0.37669   0.42443   0.77731   0.00000  Uiso   1.00
H840   H     0.12331   0.57557   0.88936   0.00000  Uiso   1.00
N841   N     0.23744   0.48547   0.67951   0.00000  Uiso   1.00
N842   N     0.26255   0.51453   0.98716   0.00000  Uiso   1.00
O843   O     0.25325   0.42871   0.87326   0.00000  Uiso   1.00
O844   O     0.24674   0.57129   0.79341   0.00000  Uiso   1.00
O845   O     0.24480   0.41892   0.76945   0.00000  Uiso   1.00
O846   O     0.25520   0.58108   0.89721   0.00000  Uiso   1.00
O847   O     0.18935   0.50488   0.88524   0.00000  Uiso   1.00
O848   O     0.31064   0.49512   0.78143   0.00000  Uiso   1.00
O849   O     0.18090   0.49510   0.78143   0.00000  Uiso   1.00
O850   O     0.31910   0.50490   0.88523   0.00000  Uiso   1.00
C851   C     0.43313   0.35903   0.74990   0.00000  Uiso   1.00
H852   H     0.40681   0.34704   0.77546   0.00000  Uiso   1.00
O853   O     0.43476   0.33371   0.69823   0.00000  Uiso   1.00
C854   C     0.06687   0.64096   0.91676   0.00000  Uiso   1.00
H855   H     0.09319   0.65296   0.89121   0.00000  Uiso   1.00
O856   O     0.06524   0.66629   0.96844   0.00000  Uiso   1.00
C857   C     0.03004   0.35379   0.76015   0.00000  Uiso   1.00
H858   H     0.01338   0.65753   0.72159   0.00000  Uiso   1.00
O859   O     0.06278   0.34236   0.78913   0.00000  Uiso   1.00
C860   C     0.46996   0.64621   0.90651   0.00000  Uiso   1.00
H861   H     0.48662   0.34247   0.94507   0.00000  Uiso   1.00
O862   O     0.43722   0.65764   0.87754   0.00000  Uiso   1.00
C863   C     0.19889   0.65188   0.76875   0.00000  Uiso   1.00
H864   H     0.19202   0.66408   0.72610   0.00000  Uiso   1.00
O865   O     0.17182   0.61941   0.78131   0.00000  Uiso   1.00
C866   C     0.30111   0.34812   0.89792   0.00000  Uiso   1.00
H867   H     0.30798   0.33592   0.94056   0.00000  Uiso   1.00
O868   O     0.32818   0.38059   0.88535   0.00000  Uiso   1.00
Br869  Br    0.19311   0.43303   0.96708   0.00000  Uiso   1.00
Br870  Br    0.30689   0.56697   0.69959   0.00000  Uiso   1.00
C871   C     0.74759   0.40017   0.81823   0.00000  Uiso   1.00
C872   C     0.75241   0.59983   0.84843   0.00000  Uiso   1.00
C873   C     0.51195   0.40573   0.77932   0.00000  Uiso   1.00
C874   C     0.98805   0.59427   0.88735   0.00000  Uiso   1.00
C875   C     0.73890   0.34465   0.81269   0.00000  Uiso   1.00
C876   C     0.76110   0.65535   0.85397   0.00000  Uiso   1.00
C877   C     0.66456   0.49871   0.83325   0.00000  Uiso   1.00
C878   C     0.83544   0.50129   0.83341   0.00000  Uiso   1.00
C879   C     0.91211   0.54580   0.86413   0.00000  Uiso   1.00
C880   C     0.58789   0.45420   0.80254   0.00000  Uiso   1.00
C881   C     0.88362   0.50160   0.83309   0.00000  Uiso   1.00
C882   C     0.61638   0.49840   0.83358   0.00000  Uiso   1.00
C883   C     0.90062   0.45728   0.80155   0.00000  Uiso   1.00
C884   C     0.59938   0.54272   0.86512   0.00000  Uiso   1.00
C885   C     0.94727   0.45475   0.80342   0.00000  Uiso   1.00
C886   C     0.55273   0.54525   0.86325   0.00000  Uiso   1.00
C887   C     0.97662   0.50051   0.83301   0.00000  Uiso   1.00
C888   C     0.52338   0.49949   0.83366   0.00000  Uiso   1.00
C889   C     0.95888   0.54741   0.86151   0.00000  Uiso   1.00
C890   C     0.54112   0.45259   0.80516   0.00000  Uiso   1.00
C891   C     0.96470   0.40747   0.77657   0.00000  Uiso   1.00
C892   C     0.53530   0.59253   0.89010   0.00000  Uiso   1.00
Cu893  Cu    0.75500   0.50579   0.89479   0.00000  Uiso   1.00
Cu894  Cu    0.74499   0.49421   0.77187   0.00000  Uiso   1.00
H895   H     0.89707   0.57859   0.88978   0.00000  Uiso   1.00
H896   H     0.60293   0.42141   0.77689   0.00000  Uiso   1.00
H897   H     0.87669   0.42443   0.77731   0.00000  Uiso   1.00
H898   H     0.62331   0.57557   0.88936   0.00000  Uiso   1.00
N899   N     0.73744   0.48547   0.67951   0.00000  Uiso   1.00
N900   N     0.76255   0.51453   0.98716   0.00000  Uiso   1.00
O901   O     0.75325   0.42871   0.87326   0.00000  Uiso   1.00
O902   O     0.74674   0.57129   0.79341   0.00000  Uiso   1.00
O903   O     0.74480   0.41892   0.76945   0.00000  Uiso   1.00
O904   O     0.75520   0.58108   0.89721   0.00000  Uiso   1.00
O905   O     0.68935   0.50488   0.88524   0.00000  Uiso   1.00
O906   O     0.81064   0.49512   0.78143   0.00000  Uiso   1.00
O907   O     0.68090   0.49510   0.78143   0.00000  Uiso   1.00
O908   O     0.81910   0.50490   0.88523   0.00000  Uiso   1.00
C909   C     0.93313   0.35903   0.74990   0.00000  Uiso   1.00
H910   H     0.90681   0.34704   0.77546   0.00000  Uiso   1.00
O911   O     0.93476   0.33371   0.69823   0.00000  Uiso   1.00
C912   C     0.56687   0.64096   0.91676   0.00000  Uiso   1.00
H913   H     0.59319   0.65296   0.89121   0.00000  Uiso   1.00
O914   O     0.56524   0.66629   0.96844   0.00000  Uiso   1.00
C915   C     0.53004   0.35379   0.76015   0.00000  Uiso   1.00
H916   H     0.51338   0.65753   0.72159   0.00000  Uiso   1.00
O917   O     0.56278   0.34236   0.78913   0.00000  Uiso   1.00
C918   C     0.96996   0.64621   0.90651   0.00000  Uiso   1.00
H919   H     0.98662   0.34247   0.94507   0.00000  Uiso   1.00
O920   O     0.93722   0.65764   0.87754   0.00000  Uiso   1.00
C921   C     0.69889   0.65188   0.76875   0.00000  Uiso   1.00
H922   H     0.69202   0.66408   0.72610   0.00000  Uiso   1.00
O923   O     0.67182   0.61941   0.78131   0.00000  Uiso   1.00
C924   C     0.80111   0.34812   0.89792   0.00000  Uiso   1.00
H925   H     0.80798   0.33592   0.94056   0.00000  Uiso   1.00
O926   O     0.82818   0.38059   0.88535   0.00000  Uiso   1.00
Br927  Br    0.69311   0.43303   0.96708   0.00000  Uiso   1.00
Br928  Br    0.80689   0.56697   0.69959   0.00000  Uiso   1.00
C929   C     0.24759   0.73350   0.81823   0.00000  Uiso   1.00
C930   C     0.25241   0.93316   0.84843   0.00000  Uiso   1.00
C931   C     0.01195   0.73906   0.77932   0.00000  Uiso   1.00
C932   C     0.48805   0.92760   0.88735   0.00000  Uiso   1.00
C933   C     0.23890   0.67798   0.81269   0.00000  Uiso   1.00
C934   C     0.26110   0.98869   0.85397   0.00000  Uiso   1.00
C935   C     0.16456   0.83204   0.83325   0.00000  Uiso   1.00
C936   C     0.33544   0.83462   0.83341   0.00000  Uiso   1.00
C937   C     0.41211   0.87913   0.86413   0.00000  Uiso   1.00
C938   C     0.08789   0.78754   0.80254   0.00000  Uiso   1.00
C939   C     0.38362   0.83494   0.83309   0.00000  Uiso   1.00
C940   C     0.11638   0.83173   0.83358   0.00000  Uiso   1.00
C941   C     0.40062   0.79062   0.80155   0.00000  Uiso   1.00
C942   C     0.09938   0.87605   0.86512   0.00000  Uiso   1.00
C943   C     0.44727   0.78808   0.80342   0.00000  Uiso   1.00
C944   C     0.05273   0.87859   0.86325   0.00000  Uiso   1.00
C945   C     0.47662   0.83385   0.83301   0.00000  Uiso   1.00
C946   C     0.02338   0.83282   0.83366   0.00000  Uiso   1.00
C947   C     0.45888   0.88074   0.86151   0.00000  Uiso   1.00
C948   C     0.04112   0.78592   0.80516   0.00000  Uiso   1.00
C949   C     0.46470   0.74080   0.77657   0.00000  Uiso   1.00
C950   C     0.03530   0.92586   0.89010   0.00000  Uiso   1.00
Cu951  Cu    0.25500   0.83913   0.89479   0.00000  Uiso   1.00
Cu952  Cu    0.24499   0.82754   0.77187   0.00000  Uiso   1.00
H953   H     0.39707   0.91193   0.88978   0.00000  Uiso   1.00
H954   H     0.10293   0.75474   0.77689   0.00000  Uiso   1.00
H955   H     0.37669   0.75776   0.77731   0.00000  Uiso   1.00
H956   H     0.12331   0.90891   0.88936   0.00000  Uiso   1.00
N957   N     0.23744   0.81881   0.67951   0.00000  Uiso   1.00
N958   N     0.26255   0.84786   0.98716   0.00000  Uiso   1.00
O959   O     0.25325   0.76204   0.87326   0.00000  Uiso   1.00
O960   O     0.24674   0.90462   0.79341   0.00000  Uiso   1.00
O961   O     0.24480   0.75226   0.76945   0.00000  Uiso   1.00
O962   O     0.25520   0.91441   0.89721   0.00000  Uiso   1.00
O963   O     0.18935   0.83821   0.88524   0.00000  Uiso   1.00
O964   O     0.31064   0.82845   0.78143   0.00000  Uiso   1.00
O965   O     0.18090   0.82843   0.78143   0.00000  Uiso   1.00
O966   O     0.31910   0.83824   0.88523   0.00000  Uiso   1.00
C967   C     0.43313   0.69237   0.74990   0.00000  Uiso   1.00
H968   H     0.40681   0.68037   0.77546   0.00000  Uiso   1.00
O969   O     0.43476   0.66704   0.69823   0.00000  Uiso   1.00
C970   C     0.06687   0.97430   0.91676   0.00000  Uiso   1.00
H971   H     0.09319   0.98629   0.89121   0.00000  Uiso   1.00
O972   O     0.06524   0.99962   0.96844   0.00000  Uiso   1.00
C973   C     0.03004   0.68712   0.76015   0.00000  Uiso   1.00
H974   H     0.01338   0.99086   0.72159   0.00000  Uiso   1.00
O975   O     0.06278   0.67569   0.78913   0.00000  Uiso   1.00
C976   C     0.46996   0.97955   0.90651   0.00000  Uiso   1.00
H977   H     0.48662   0.67581   0.94507   0.00000  Uiso   1.00
O978   O     0.43722   0.99097   0.87754   0.00000  Uiso   1.00
C979   C     0.19889   0.98522   0.76875   0.00000  Uiso   1.00
H980   H     0.19202   0.99742   0.72610   0.00000  Uiso   1.00
O981   O     0.17182   0.95274   0.78131   0.00000  Uiso   1.00
C982   C     0.30111   0.68145   0.89792   0.00000  Uiso   1.00
H983   H     0.30798   0.66925   0.94056   0.00000  Uiso   1.00
O984   O     0.32818   0.71392   0.88535   0.00000  Uiso   1.00
Br985  Br    0.19311   0.76636   0.96708   0.00000  Uiso   1.00
Br986  Br    0.30689   0.90030   0.69959   0.00000  Uiso   1.00
C987   C     0.74759   0.73350   0.81823   0.00000  Uiso   1.00
C988   C     0.75241   0.93316   0.84843   0.00000  Uiso   1.00
C989   C     0.51195   0.73906   0.77932   0.00000  Uiso   1.00
C990   C     0.98805   0.92760   0.88735   0.00000  Uiso   1.00
C991   C     0.73890   0.67798   0.81269   0.00000  Uiso   1.00
C992   C     0.76110   0.98869   0.85397   0.00000  Uiso   1.00
C993   C     0.66456   0.83204   0.83325   0.00000  Uiso   1.00
C994   C     0.83544   0.83462   0.83341   0.00000  Uiso   1.00
C995   C     0.91211   0.87913   0.86413   0.00000  Uiso   1.00
C996   C     0.58789   0.78754   0.80254   0.00000  Uiso   1.00
C997   C     0.88362   0.83494   0.83309   0.00000  Uiso   1.00
C998   C     0.61638   0.83173   0.83358   0.00000  Uiso   1.00
C999   C     0.90062   0.79062   0.80155   0.00000  Uiso   1.00
C1000  C     0.59938   0.87605   0.86512   0.00000  Uiso   1.00
C1001  C     0.94727   0.78808   0.80342   0.00000  Uiso   1.00
C1002  C     0.55273   0.87859   0.86325   0.00000  Uiso   1.00
C1003  C     0.97662   0.83385   0.83301   0.00000  Uiso   1.00
C1004  C     0.52338   0.83282   0.83366   0.00000  Uiso   1.00
C1005  C     0.95888   0.88074   0.86151   0.00000  Uiso   1.00
C1006  C     0.54112   0.78592   0.80516   0.00000  Uiso   1.00
C1007  C     0.96470   0.74080   0.77657   0.00000  Uiso   1.00
C1008  C     0.53530   0.92586   0.89010   0.00000  Uiso   1.00
Cu1009 Cu    0.75500   0.83913   0.89479   0.00000  Uiso   1.00
Cu1010 Cu    0.74499   0.82754   0.77187   0.00000  Uiso   1.00
H1011  H     0.89707   0.91193   0.88978   0.00000  Uiso   1.00
H1012  H     0.60293   0.75474   0.77689   0.00000  Uiso   1.00
H1013  H     0.87669   0.75776   0.77731   0.00000  Uiso   1.00
H1014  H     0.62331   0.90891   0.88936   0.00000  Uiso   1.00
N1015  N     0.73744   0.81881   0.67951   0.00000  Uiso   1.00
N1016  N     0.76255   0.84786   0.98716   0.00000  Uiso   1.00
O1017  O     0.75325   0.76204   0.87326   0.00000  Uiso   1.00
O1018  O     0.74674   0.90462   0.79341   0.00000  Uiso   1.00
O1019  O     0.74480   0.75226   0.76945   0.00000  Uiso   1.00
O1020  O     0.75520   0.91441   0.89721   0.00000  Uiso   1.00
O1021  O     0.68935   0.83821   0.88524   0.00000  Uiso   1.00
O1022  O     0.81064   0.82845   0.78143   0.00000  Uiso   1.00
O1023  O     0.68090   0.82843   0.78143   0.00000  Uiso   1.00
O1024  O     0.81910   0.83824   0.88523   0.00000  Uiso   1.00
C1025  C     0.93313   0.69237   0.74990   0.00000  Uiso   1.00
H1026  H     0.90681   0.68037   0.77546   0.00000  Uiso   1.00
O1027  O     0.93476   0.66704   0.69823   0.00000  Uiso   1.00
C1028  C     0.56687   0.97430   0.91676   0.00000  Uiso   1.00
H1029  H     0.59319   0.98629   0.89121   0.00000  Uiso   1.00
O1030  O     0.56524   0.99962   0.96844   0.00000  Uiso   1.00
C1031  C     0.53004   0.68712   0.76015   0.00000  Uiso   1.00
H1032  H     0.51338   0.99086   0.72159   0.00000  Uiso   1.00
O1033  O     0.56278   0.67569   0.78913   0.00000  Uiso   1.00
C1034  C     0.96996   0.97955   0.90651   0.00000  Uiso   1.00
H1035  H     0.98662   0.67581   0.94507   0.00000  Uiso   1.00
O1036  O     0.93722   0.99097   0.87754   0.00000  Uiso   1.00
C1037  C     0.69889   0.98522   0.76875   0.00000  Uiso   1.00
H1038  H     0.69202   0.99742   0.72610   0.00000  Uiso   1.00
O1039  O     0.67182   0.95274   0.78131   0.00000  Uiso   1.00
C1040  C     0.80111   0.68145   0.89792   0.00000  Uiso   1.00
H1041  H     0.80798   0.66925   0.94056   0.00000  Uiso   1.00
O1042  O     0.82818   0.71392   0.88535   0.00000  Uiso   1.00
Br1043 Br    0.69311   0.76636   0.96708   0.00000  Uiso   1.00
Br1044 Br    0.80689   0.90030   0.69959   0.00000  Uiso   1.00
loop_
_geom_bond_atom_site_label_1
_geom_bond_atom_site_label_2
_geom_bond_distance
_geom_bond_site_symmetry_2
_ccdc_geom_bond_type
C1     O33     1.298   .     A
C1     C5      1.428   .     S
C1     O31     1.292   .     A
C2     O34     1.298   .     A
C2     O32     1.292   .     A
C2     C6      1.428   .     S
C3     C20     1.422   .     A
C3     C45     1.494   .     S
C3     C79     1.414   1_455 S
C4     C48     1.494   .     S
C4     C19     1.422   .     A
C4     C80     1.414   .     S
C5     C238    1.359   1_545 S
C5     C283    1.495   1_545 S
C6     C121    1.359   .     S
C6     C170    1.495   .     S
C7     O37     1.299   .     A
C7     C12     1.442   .     S
C7     O35     1.300   .     A
C8     O38     1.299   .     A
C8     C11     1.442   .     S
C8     O36     1.300   .     A
C9     C11     1.389   .     A
C9     H25     1.082   .     S
C9     C19     1.404   .     A
C10    H26     1.082   .     S
C10    C12     1.389   .     A
C10    C20     1.404   .     A
C11    C13     1.384   .     A
C12    C14     1.384   .     A
C13    C15     1.400   .     A
C13    H27     1.083   .     S
C14    C16     1.400   .     A
C14    H28     1.083   .     S
C15    C21     1.416   .     A
C15    C17     1.421   .     A
C16    C18     1.421   .     A
C16    C22     1.416   .     A
C17    C19     1.423   .     A
C17    C76     1.400   .     S
C18    C20     1.423   .     A
C18    C75     1.400   1_455 S
C21    C39     1.491   .     S
C21    C61     1.414   .     S
C22    C42     1.491   .     S
C22    C62     1.414   1_455 S
Cu23   Cu24    2.714   .     S
Cu23   O38     1.951   .     S
Cu23   O34     1.955   .     S
Cu23   O35     1.953   .     S
Cu23   N30     2.039   .     S
Cu23   O31     1.962   .     S
Cu24   O32     1.962   .     S
Cu24   O33     1.955   .     S
Cu24   O37     1.951   .     S
Cu24   O36     1.953   .     S
Cu24   N29     2.039   .     S
N29    N726    1.287   1_554 S
N29    Br753   1.881   1_554 S
N30    N377    1.287   .     S
N30    Br406   1.881   .     S
C39    O41     1.219   .     D
C39    H40     1.084   .     S
C42    O44     1.219   .     D
C42    H43     1.084   .     S
C45    O47     1.220   .     D
C45    H278    1.081   1_545 S
H46    C161    1.081   .     S
C48    O50     1.220   .     D
C48    H165    1.081   .     S
H49    C280    1.081   1_545 S
C51    H52     1.086   .     S
C51    O53     1.222   .     D
C51    C121    1.495   .     S
C54    O56     1.222   .     D
C54    H55     1.086   .     S
C54    C238    1.495   1_545 S
Br57   N377    1.881   .     S
Br58   N726    1.881   1_554 S
C59    O91     1.298   .     A
C59    C63     1.428   .     S
C59    O89     1.292   .     A
C60    O92     1.298   .     A
C60    O90     1.292   .     A
C60    C64     1.428   .     S
C61    C78     1.422   .     A
C61    C103    1.494   .     S
C62    C106    1.494   .     S
C62    C77     1.422   .     A
C62    C22     1.414   1_655 S
C63    C296    1.359   1_545 S
C63    C341    1.495   1_545 S
C64    C179    1.359   .     S
C64    C228    1.495   .     S
C65    O95     1.299   .     A
C65    C70     1.442   .     S
C65    O93     1.300   .     A
C66    O96     1.299   .     A
C66    C69     1.442   .     S
C66    O94     1.300   .     A
C67    C69     1.389   .     A
C67    H83     1.082   .     S
C67    C77     1.404   .     A
C68    H84     1.082   .     S
C68    C70     1.389   .     A
C68    C78     1.404   .     A
C69    C71     1.384   .     A
C70    C72     1.384   .     A
C71    C73     1.400   .     A
C71    H85     1.083   .     S
C72    C74     1.400   .     A
C72    H86     1.083   .     S
C73    C79     1.416   .     A
C73    C75     1.421   .     A
C74    C76     1.421   .     A
C74    C80     1.416   .     A
C75    C77     1.423   .     A
C75    C18     1.400   1_655 S
C76    C78     1.423   .     A
C79    C97     1.491   .     S
C79    C3      1.414   1_655 S
C80    C100    1.491   .     S
Cu81   Cu82    2.714   .     S
Cu81   O96     1.951   .     S
Cu81   O92     1.955   .     S
Cu81   O93     1.953   .     S
Cu81   N88     2.039   .     S
Cu81   O89     1.962   .     S
Cu82   O90     1.962   .     S
Cu82   O91     1.955   .     S
Cu82   O95     1.951   .     S
Cu82   O94     1.953   .     S
Cu82   N87     2.039   .     S
N87    N784    1.287   1_554 S
N87    Br811   1.881   1_554 S
N88    N435    1.287   .     S
N88    Br464   1.881   .     S
C97    O99     1.219   .     D
C97    H98     1.084   .     S
C100   O102    1.219   .     D
C100   H101    1.084   .     S
C103   O105    1.220   .     D
C103   H336    1.081   1_545 S
H104   C219    1.081   .     S
C106   O108    1.220   .     D
C106   H223    1.081   .     S
H107   C338    1.081   1_545 S
C109   H110    1.086   .     S
C109   O111    1.222   .     D
C109   C179    1.495   .     S
C112   O114    1.222   .     D
C112   H113    1.086   .     S
C112   C296    1.495   1_545 S
Br115  N435    1.881   .     S
Br116  N784    1.881   1_554 S
C117   O149    1.298   .     A
C117   C121    1.428   .     S
C117   O147    1.292   .     A
C118   O150    1.298   .     A
C118   O148    1.292   .     A
C118   C122    1.428   .     S
C119   C136    1.422   .     A
C119   C161    1.494   .     S
C119   C195    1.414   1_455 S
C120   C164    1.494   .     S
C120   C135    1.422   .     A
C120   C196    1.414   .     S
C122   C237    1.359   .     S
C122   C286    1.495   .     S
C123   O153    1.299   .     A
C123   C128    1.442   .     S
C123   O151    1.300   .     A
C124   O154    1.299   .     A
C124   C127    1.442   .     S
C124   O152    1.300   .     A
C125   C127    1.389   .     A
C125   H141    1.082   .     S
C125   C135    1.404   .     A
C126   H142    1.082   .     S
C126   C128    1.389   .     A
C126   C136    1.404   .     A
C127   C129    1.384   .     A
C128   C130    1.384   .     A
C129   C131    1.400   .     A
C129   H143    1.083   .     S
C130   C132    1.400   .     A
C130   H144    1.083   .     S
C131   C137    1.416   .     A
C131   C133    1.421   .     A
C132   C134    1.421   .     A
C132   C138    1.416   .     A
C133   C135    1.423   .     A
C133   C192    1.400   .     S
C134   C136    1.423   .     A
C134   C191    1.400   1_455 S
C137   C155    1.491   .     S
C137   C177    1.414   .     S
C138   C158    1.491   .     S
C138   C178    1.414   1_455 S
Cu139  Cu140   2.714   .     S
Cu139  O154    1.951   .     S
Cu139  O150    1.955   .     S
Cu139  O151    1.953   .     S
Cu139  N146    2.039   .     S
Cu139  O147    1.962   .     S
Cu140  O148    1.962   .     S
Cu140  O149    1.955   .     S
Cu140  O153    1.951   .     S
Cu140  O152    1.953   .     S
Cu140  N145    2.039   .     S
N145   N842    1.287   1_554 S
N145   Br869   1.881   1_554 S
N146   N493    1.287   .     S
N146   Br522   1.881   .     S
C155   O157    1.219   .     D
C155   H156    1.084   .     S
C158   O160    1.219   .     D
C158   H159    1.084   .     S
C161   O163    1.220   .     D
H162   C277    1.081   .     S
C164   O166    1.220   .     D
C164   H281    1.081   .     S
C167   H168    1.086   .     S
C167   O169    1.222   .     D
C167   C237    1.495   .     S
C170   O172    1.222   .     D
C170   H171    1.086   .     S
Br173  N493    1.881   .     S
Br174  N842    1.881   1_554 S
C175   O207    1.298   .     A
C175   C179    1.428   .     S
C175   O205    1.292   .     A
C176   O208    1.298   .     A
C176   O206    1.292   .     A
C176   C180    1.428   .     S
C177   C194    1.422   .     A
C177   C219    1.494   .     S
C178   C222    1.494   .     S
C178   C193    1.422   .     A
C178   C138    1.414   1_655 S
C180   C295    1.359   .     S
C180   C344    1.495   .     S
C181   O211    1.299   .     A
C181   C186    1.442   .     S
C181   O209    1.300   .     A
C182   O212    1.299   .     A
C182   C185    1.442   .     S
C182   O210    1.300   .     A
C183   C185    1.389   .     A
C183   H199    1.082   .     S
C183   C193    1.404   .     A
C184   H200    1.082   .     S
C184   C186    1.389   .     A
C184   C194    1.404   .     A
C185   C187    1.384   .     A
C186   C188    1.384   .     A
C187   C189    1.400   .     A
C187   H201    1.083   .     S
C188   C190    1.400   .     A
C188   H202    1.083   .     S
C189   C195    1.416   .     A
C189   C191    1.421   .     A
C190   C192    1.421   .     A
C190   C196    1.416   .     A
C191   C193    1.423   .     A
C191   C134    1.400   1_655 S
C192   C194    1.423   .     A
C195   C213    1.491   .     S
C195   C119    1.414   1_655 S
C196   C216    1.491   .     S
Cu197  Cu198   2.714   .     S
Cu197  O212    1.951   .     S
Cu197  O208    1.955   .     S
Cu197  O209    1.953   .     S
Cu197  N204    2.039   .     S
Cu197  O205    1.962   .     S
Cu198  O206    1.962   .     S
Cu198  O207    1.955   .     S
Cu198  O211    1.951   .     S
Cu198  O210    1.953   .     S
Cu198  N203    2.039   .     S
N203   N900    1.287   1_554 S
N203   Br927   1.881   1_554 S
N204   N551    1.287   .     S
N204   Br580   1.881   .     S
C213   O215    1.219   .     D
C213   H214    1.084   .     S
C216   O218    1.219   .     D
C216   H217    1.084   .     S
C219   O221    1.220   .     D
H220   C335    1.081   .     S
C222   O224    1.220   .     D
C222   H339    1.081   .     S
C225   H226    1.086   .     S
C225   O227    1.222   .     D
C225   C295    1.495   .     S
C228   O230    1.222   .     D
C228   H229    1.086   .     S
Br231  N551    1.881   .     S
Br232  N900    1.881   1_554 S
C233   O265    1.298   .     A
C233   C237    1.428   .     S
C233   O263    1.292   .     A
C234   O266    1.298   .     A
C234   O264    1.292   .     A
C234   C238    1.428   .     S
C235   C252    1.422   .     A
C235   C277    1.494   .     S
C235   C311    1.414   1_455 S
C236   C280    1.494   .     S
C236   C251    1.422   .     A
C236   C312    1.414   .     S
C238   C5      1.359   1_565 S
C238   C54     1.495   1_565 S
C239   O269    1.299   .     A
C239   C244    1.442   .     S
C239   O267    1.300   .     A
C240   O270    1.299   .     A
C240   C243    1.442   .     S
C240   O268    1.300   .     A
C241   C243    1.389   .     A
C241   H257    1.082   .     S
C241   C251    1.404   .     A
C242   H258    1.082   .     S
C242   C244    1.389   .     A
C242   C252    1.404   .     A
C243   C245    1.384   .     A
C244   C246    1.384   .     A
C245   C247    1.400   .     A
C245   H259    1.083   .     S
C246   C248    1.400   .     A
C246   H260    1.083   .     S
C247   C253    1.416   .     A
C247   C249    1.421   .     A
C248   C250    1.421   .     A
C248   C254    1.416   .     A
C249   C251    1.423   .     A
C249   C308    1.400   .     S
C250   C252    1.423   .     A
C250   C307    1.400   1_455 S
C253   C271    1.491   .     S
C253   C293    1.414   .     S
C254   C274    1.491   .     S
C254   C294    1.414   1_455 S
Cu255  Cu256   2.714   .     S
Cu255  O270    1.951   .     S
Cu255  O266    1.955   .     S
Cu255  O267    1.953   .     S
Cu255  N262    2.039   .     S
Cu255  O263    1.962   .     S
Cu256  O264    1.962   .     S
Cu256  O265    1.955   .     S
Cu256  O269    1.951   .     S
Cu256  O268    1.953   .     S
Cu256  N261    2.039   .     S
N261   N958    1.287   1_554 S
N261   Br985   1.881   1_554 S
N262   N609    1.287   .     S
N262   Br638   1.881   .     S
C271   O273    1.219   .     D
C271   H272    1.084   .     S
C274   O276    1.219   .     D
C274   H275    1.084   .     S
C277   O279    1.220   .     D
H278   C45     1.081   1_565 S
C280   O282    1.220   .     D
C280   H49     1.081   1_565 S
C283   H284    1.086   .     S
C283   O285    1.222   .     D
C283   C5      1.495   1_565 S
C286   O288    1.222   .     D
C286   H287    1.086   .     S
Br289  N609    1.881   .     S
Br290  N958    1.881   1_554 S
C291   O323    1.298   .     A
C291   C295    1.428   .     S
C291   O321    1.292   .     A
C292   O324    1.298   .     A
C292   O322    1.292   .     A
C292   C296    1.428   .     S
C293   C310    1.422   .     A
C293   C335    1.494   .     S
C294   C338    1.494   .     S
C294   C309    1.422   .     A
C294   C254    1.414   1_655 S
C296   C63     1.359   1_565 S
C296   C112    1.495   1_565 S
C297   O327    1.299   .     A
C297   C302    1.442   .     S
C297   O325    1.300   .     A
C298   O328    1.299   .     A
C298   C301    1.442   .     S
C298   O326    1.300   .     A
C299   C301    1.389   .     A
C299   H315    1.082   .     S
C299   C309    1.404   .     A
C300   H316    1.082   .     S
C300   C302    1.389   .     A
C300   C310    1.404   .     A
C301   C303    1.384   .     A
C302   C304    1.384   .     A
C303   C305    1.400   .     A
C303   H317    1.083   .     S
C304   C306    1.400   .     A
C304   H318    1.083   .     S
C305   C311    1.416   .     A
C305   C307    1.421   .     A
C306   C308    1.421   .     A
C306   C312    1.416   .     A
C307   C309    1.423   .     A
C307   C250    1.400   1_655 S
C308   C310    1.423   .     A
C311   C329    1.491   .     S
C311   C235    1.414   1_655 S
C312   C332    1.491   .     S
Cu313  Cu314   2.714   .     S
Cu313  O328    1.951   .     S
Cu313  O324    1.955   .     S
Cu313  O325    1.953   .     S
Cu313  N320    2.039   .     S
Cu313  O321    1.962   .     S
Cu314  O322    1.962   .     S
Cu314  O323    1.955   .     S
Cu314  O327    1.951   .     S
Cu314  O326    1.953   .     S
Cu314  N319    2.039   .     S
N319   N1016   1.287   1_554 S
N319   Br1043  1.881   1_554 S
N320   N667    1.287   .     S
N320   Br696   1.881   .     S
C329   O331    1.219   .     D
C329   H330    1.084   .     S
C332   O334    1.219   .     D
C332   H333    1.084   .     S
C335   O337    1.220   .     D
H336   C103    1.081   1_565 S
C338   O340    1.220   .     D
C338   H107    1.081   1_565 S
C341   H342    1.086   .     S
C341   O343    1.222   .     D
C341   C63     1.495   1_565 S
C344   O346    1.222   .     D
C344   H345    1.086   .     S
Br347  N667    1.881   .     S
Br348  N1016   1.881   1_554 S
C349   O381    1.298   .     A
C349   C353    1.428   .     S
C349   O379    1.292   .     A
C350   O382    1.298   .     A
C350   O380    1.292   .     A
C350   C354    1.428   .     S
C351   C368    1.422   .     A
C351   C393    1.494   .     S
C351   C427    1.414   1_455 S
C352   C396    1.494   .     S
C352   C367    1.422   .     A
C352   C428    1.414   .     S
C353   C586    1.359   1_545 S
C353   C631    1.495   1_545 S
C354   C469    1.359   .     S
C354   C518    1.495   .     S
C355   O385    1.299   .     A
C355   C360    1.442   .     S
C355   O383    1.300   .     A
C356   O386    1.299   .     A
C356   C359    1.442   .     S
C356   O384    1.300   .     A
C357   C359    1.389   .     A
C357   H373    1.082   .     S
C357   C367    1.404   .     A
C358   H374    1.082   .     S
C358   C360    1.389   .     A
C358   C368    1.404   .     A
C359   C361    1.384   .     A
C360   C362    1.384   .     A
C361   C363    1.400   .     A
C361   H375    1.083   .     S
C362   C364    1.400   .     A
C362   H376    1.083   .     S
C363   C369    1.416   .     A
C363   C365    1.421   .     A
C364   C366    1.421   .     A
C364   C370    1.416   .     A
C365   C367    1.423   .     A
C365   C424    1.400   .     S
C366   C368    1.423   .     A
C366   C423    1.400   1_455 S
C369   C387    1.491   .     S
C369   C409    1.414   .     S
C370   C390    1.491   .     S
C370   C410    1.414   1_455 S
Cu371  Cu372   2.714   .     S
Cu371  O386    1.951   .     S
Cu371  O382    1.955   .     S
Cu371  O383    1.953   .     S
Cu371  N378    2.039   .     S
Cu371  O379    1.962   .     S
Cu372  O380    1.962   .     S
Cu372  O381    1.955   .     S
Cu372  O385    1.951   .     S
Cu372  O384    1.953   .     S
Cu372  N377    2.039   .     S
N378   N725    1.287   .     S
N378   Br754   1.881   .     S
C387   O389    1.219   .     D
C387   H388    1.084   .     S
C390   O392    1.219   .     D
C390   H391    1.084   .     S
C393   O395    1.220   .     D
C393   H626    1.081   1_545 S
H394   C509    1.081   .     S
C396   O398    1.220   .     D
C396   H513    1.081   .     S
H397   C628    1.081   1_545 S
C399   H400    1.086   .     S
C399   O401    1.222   .     D
C399   C469    1.495   .     S
C402   O404    1.222   .     D
C402   H403    1.086   .     S
C402   C586    1.495   1_545 S
Br405  N725    1.881   .     S
C407   O439    1.298   .     A
C407   C411    1.428   .     S
C407   O437    1.292   .     A
C408   O440    1.298   .     A
C408   O438    1.292   .     A
C408   C412    1.428   .     S
C409   C426    1.422   .     A
C409   C451    1.494   .     S
C410   C454    1.494   .     S
C410   C425    1.422   .     A
C410   C370    1.414   1_655 S
C411   C644    1.359   1_545 S
C411   C689    1.495   1_545 S
C412   C527    1.359   .     S
C412   C576    1.495   .     S
C413   O443    1.299   .     A
C413   C418    1.442   .     S
C413   O441    1.300   .     A
C414   O444    1.299   .     A
C414   C417    1.442   .     S
C414   O442    1.300   .     A
C415   C417    1.389   .     A
C415   H431    1.082   .     S
C415   C425    1.404   .     A
C416   H432    1.082   .     S
C416   C418    1.389   .     A
C416   C426    1.404   .     A
C417   C419    1.384   .     A
C418   C420    1.384   .     A
C419   C421    1.400   .     A
C419   H433    1.083   .     S
C420   C422    1.400   .     A
C420   H434    1.083   .     S
C421   C427    1.416   .     A
C421   C423    1.421   .     A
C422   C424    1.421   .     A
C422   C428    1.416   .     A
C423   C425    1.423   .     A
C423   C366    1.400   1_655 S
C424   C426    1.423   .     A
C427   C445    1.491   .     S
C427   C351    1.414   1_655 S
C428   C448    1.491   .     S
Cu429  Cu430   2.714   .     S
Cu429  O444    1.951   .     S
Cu429  O440    1.955   .     S
Cu429  O441    1.953   .     S
Cu429  N436    2.039   .     S
Cu429  O437    1.962   .     S
Cu430  O438    1.962   .     S
Cu430  O439    1.955   .     S
Cu430  O443    1.951   .     S
Cu430  O442    1.953   .     S
Cu430  N435    2.039   .     S
N436   N783    1.287   .     S
N436   Br812   1.881   .     S
C445   O447    1.219   .     D
C445   H446    1.084   .     S
C448   O450    1.219   .     D
C448   H449    1.084   .     S
C451   O453    1.220   .     D
C451   H684    1.081   1_545 S
H452   C567    1.081   .     S
C454   O456    1.220   .     D
C454   H571    1.081   .     S
H455   C686    1.081   1_545 S
C457   H458    1.086   .     S
C457   O459    1.222   .     D
C457   C527    1.495   .     S
C460   O462    1.222   .     D
C460   H461    1.086   .     S
C460   C644    1.495   1_545 S
Br463  N783    1.881   .     S
C465   O497    1.298   .     A
C465   C469    1.428   .     S
C465   O495    1.292   .     A
C466   O498    1.298   .     A
C466   O496    1.292   .     A
C466   C470    1.428   .     S
C467   C484    1.422   .     A
C467   C509    1.494   .     S
C467   C543    1.414   1_455 S
C468   C512    1.494   .     S
C468   C483    1.422   .     A
C468   C544    1.414   .     S
C470   C585    1.359   .     S
C470   C634    1.495   .     S
C471   O501    1.299   .     A
C471   C476    1.442   .     S
C471   O499    1.300   .     A
C472   O502    1.299   .     A
C472   C475    1.442   .     S
C472   O500    1.300   .     A
C473   C475    1.389   .     A
C473   H489    1.082   .     S
C473   C483    1.404   .     A
C474   H490    1.082   .     S
C474   C476    1.389   .     A
C474   C484    1.404   .     A
C475   C477    1.384   .     A
C476   C478    1.384   .     A
C477   C479    1.400   .     A
C477   H491    1.083   .     S
C478   C480    1.400   .     A
C478   H492    1.083   .     S
C479   C485    1.416   .     A
C479   C481    1.421   .     A
C480   C482    1.421   .     A
C480   C486    1.416   .     A
C481   C483    1.423   .     A
C481   C540    1.400   .     S
C482   C484    1.423   .     A
C482   C539    1.400   1_455 S
C485   C503    1.491   .     S
C485   C525    1.414   .     S
C486   C506    1.491   .     S
C486   C526    1.414   1_455 S
Cu487  Cu488   2.714   .     S
Cu487  O502    1.951   .     S
Cu487  O498    1.955   .     S
Cu487  O499    1.953   .     S
Cu487  N494    2.039   .     S
Cu487  O495    1.962   .     S
Cu488  O496    1.962   .     S
Cu488  O497    1.955   .     S
Cu488  O501    1.951   .     S
Cu488  O500    1.953   .     S
Cu488  N493    2.039   .     S
N494   N841    1.287   .     S
N494   Br870   1.881   .     S
C503   O505    1.219   .     D
C503   H504    1.084   .     S
C506   O508    1.219   .     D
C506   H507    1.084   .     S
C509   O511    1.220   .     D
H510   C625    1.081   .     S
C512   O514    1.220   .     D
C512   H629    1.081   .     S
C515   H516    1.086   .     S
C515   O517    1.222   .     D
C515   C585    1.495   .     S
C518   O520    1.222   .     D
C518   H519    1.086   .     S
Br521  N841    1.881   .     S
C523   O555    1.298   .     A
C523   C527    1.428   .     S
C523   O553    1.292   .     A
C524   O556    1.298   .     A
C524   O554    1.292   .     A
C524   C528    1.428   .     S
C525   C542    1.422   .     A
C525   C567    1.494   .     S
C526   C570    1.494   .     S
C526   C541    1.422   .     A
C526   C486    1.414   1_655 S
C528   C643    1.359   .     S
C528   C692    1.495   .     S
C529   O559    1.299   .     A
C529   C534    1.442   .     S
C529   O557    1.300   .     A
C530   O560    1.299   .     A
C530   C533    1.442   .     S
C530   O558    1.300   .     A
C531   C533    1.389   .     A
C531   H547    1.082   .     S
C531   C541    1.404   .     A
C532   H548    1.082   .     S
C532   C534    1.389   .     A
C532   C542    1.404   .     A
C533   C535    1.384   .     A
C534   C536    1.384   .     A
C535   C537    1.400   .     A
C535   H549    1.083   .     S
C536   C538    1.400   .     A
C536   H550    1.083   .     S
C537   C543    1.416   .     A
C537   C539    1.421   .     A
C538   C540    1.421   .     A
C538   C544    1.416   .     A
C539   C541    1.423   .     A
C539   C482    1.400   1_655 S
C540   C542    1.423   .     A
C543   C561    1.491   .     S
C543   C467    1.414   1_655 S
C544   C564    1.491   .     S
Cu545  Cu546   2.714   .     S
Cu545  O560    1.951   .     S
Cu545  O556    1.955   .     S
Cu545  O557    1.953   .     S
Cu545  N552    2.039   .     S
Cu545  O553    1.962   .     S
Cu546  O554    1.962   .     S
Cu546  O555    1.955   .     S
Cu546  O559    1.951   .     S
Cu546  O558    1.953   .     S
Cu546  N551    2.039   .     S
N552   N899    1.287   .     S
N552   Br928   1.881   .     S
C561   O563    1.219   .     D
C561   H562    1.084   .     S
C564   O566    1.219   .     D
C564   H565    1.084   .     S
C567   O569    1.220   .     D
H568   C683    1.081   .     S
C570   O572    1.220   .     D
C570   H687    1.081   .     S
C573   H574    1.086   .     S
C573   O575    1.222   .     D
C573   C643    1.495   .     S
C576   O578    1.222   .     D
C576   H577    1.086   .     S
Br579  N899    1.881   .     S
C581   O613    1.298   .     A
C581   C585    1.428   .     S
C581   O611    1.292   .     A
C582   O614    1.298   .     A
C582   O612    1.292   .     A
C582   C586    1.428   .     S
C583   C600    1.422   .     A
C583   C625    1.494   .     S
C583   C659    1.414   1_455 S
C584   C628    1.494   .     S
C584   C599    1.422   .     A
C584   C660    1.414   .     S
C586   C353    1.359   1_565 S
C586   C402    1.495   1_565 S
C587   O617    1.299   .     A
C587   C592    1.442   .     S
C587   O615    1.300   .     A
C588   O618    1.299   .     A
C588   C591    1.442   .     S
C588   O616    1.300   .     A
C589   C591    1.389   .     A
C589   H605    1.082   .     S
C589   C599    1.404   .     A
C590   H606    1.082   .     S
C590   C592    1.389   .     A
C590   C600    1.404   .     A
C591   C593    1.384   .     A
C592   C594    1.384   .     A
C593   C595    1.400   .     A
C593   H607    1.083   .     S
C594   C596    1.400   .     A
C594   H608    1.083   .     S
C595   C601    1.416   .     A
C595   C597    1.421   .     A
C596   C598    1.421   .     A
C596   C602    1.416   .     A
C597   C599    1.423   .     A
C597   C656    1.400   .     S
C598   C600    1.423   .     A
C598   C655    1.400   1_455 S
C601   C619    1.491   .     S
C601   C641    1.414   .     S
C602   C622    1.491   .     S
C602   C642    1.414   1_455 S
Cu603  Cu604   2.714   .     S
Cu603  O618    1.951   .     S
Cu603  O614    1.955   .     S
Cu603  O615    1.953   .     S
Cu603  N610    2.039   .     S
Cu603  O611    1.962   .     S
Cu604  O612    1.962   .     S
Cu604  O613    1.955   .     S
Cu604  O617    1.951   .     S
Cu604  O616    1.953   .     S
Cu604  N609    2.039   .     S
N610   N957    1.287   .     S
N610   Br986   1.881   .     S
C619   O621    1.219   .     D
C619   H620    1.084   .     S
C622   O624    1.219   .     D
C622   H623    1.084   .     S
C625   O627    1.220   .     D
H626   C393    1.081   1_565 S
C628   O630    1.220   .     D
C628   H397    1.081   1_565 S
C631   H632    1.086   .     S
C631   O633    1.222   .     D
C631   C353    1.495   1_565 S
C634   O636    1.222   .     D
C634   H635    1.086   .     S
Br637  N957    1.881   .     S
C639   O671    1.298   .     A
C639   C643    1.428   .     S
C639   O669    1.292   .     A
C640   O672    1.298   .     A
C640   O670    1.292   .     A
C640   C644    1.428   .     S
C641   C658    1.422   .     A
C641   C683    1.494   .     S
C642   C686    1.494   .     S
C642   C657    1.422   .     A
C642   C602    1.414   1_655 S
C644   C411    1.359   1_565 S
C644   C460    1.495   1_565 S
C645   O675    1.299   .     A
C645   C650    1.442   .     S
C645   O673    1.300   .     A
C646   O676    1.299   .     A
C646   C649    1.442   .     S
C646   O674    1.300   .     A
C647   C649    1.389   .     A
C647   H663    1.082   .     S
C647   C657    1.404   .     A
C648   H664    1.082   .     S
C648   C650    1.389   .     A
C648   C658    1.404   .     A
C649   C651    1.384   .     A
C650   C652    1.384   .     A
C651   C653    1.400   .     A
C651   H665    1.083   .     S
C652   C654    1.400   .     A
C652   H666    1.083   .     S
C653   C659    1.416   .     A
C653   C655    1.421   .     A
C654   C656    1.421   .     A
C654   C660    1.416   .     A
C655   C657    1.423   .     A
C655   C598    1.400   1_655 S
C656   C658    1.423   .     A
C659   C677    1.491   .     S
C659   C583    1.414   1_655 S
C660   C680    1.491   .     S
Cu661  Cu662   2.714   .     S
Cu661  O676    1.951   .     S
Cu661  O672    1.955   .     S
Cu661  O673    1.953   .     S
Cu661  N668    2.039   .     S
Cu661  O669    1.962   .     S
Cu662  O670    1.962   .     S
Cu662  O671    1.955   .     S
Cu662  O675    1.951   .     S
Cu662  O674    1.953   .     S
Cu662  N667    2.039   .     S
N668   N1015   1.287   .     S
N668   Br1044  1.881   .     S
C677   O679    1.219   .     D
C677   H678    1.084   .     S
C680   O682    1.219   .     D
C680   H681    1.084   .     S
C683   O685    1.220   .     D
H684   C451    1.081   1_565 S
C686   O688    1.220   .     D
C686   H455    1.081   1_565 S
C689   H690    1.086   .     S
C689   O691    1.222   .     D
C689   C411    1.495   1_565 S
C692   O694    1.222   .     D
C692   H693    1.086   .     S
Br695  N1015   1.881   .     S
C697   O729    1.298   .     A
C697   C701    1.428   .     S
C697   O727    1.292   .     A
C698   O730    1.298   .     A
C698   O728    1.292   .     A
C698   C702    1.428   .     S
C699   C716    1.422   .     A
C699   C741    1.494   .     S
C699   C775    1.414   1_455 S
C700   C744    1.494   .     S
C700   C715    1.422   .     A
C700   C776    1.414   .     S
C701   C934    1.359   1_545 S
C701   C979    1.495   1_545 S
C702   C817    1.359   .     S
C702   C866    1.495   .     S
C703   O733    1.299   .     A
C703   C708    1.442   .     S
C703   O731    1.300   .     A
C704   O734    1.299   .     A
C704   C707    1.442   .     S
C704   O732    1.300   .     A
C705   C707    1.389   .     A
C705   H721    1.082   .     S
C705   C715    1.404   .     A
C706   H722    1.082   .     S
C706   C708    1.389   .     A
C706   C716    1.404   .     A
C707   C709    1.384   .     A
C708   C710    1.384   .     A
C709   C711    1.400   .     A
C709   H723    1.083   .     S
C710   C712    1.400   .     A
C710   H724    1.083   .     S
C711   C717    1.416   .     A
C711   C713    1.421   .     A
C712   C714    1.421   .     A
C712   C718    1.416   .     A
C713   C715    1.423   .     A
C713   C772    1.400   .     S
C714   C716    1.423   .     A
C714   C771    1.400   1_455 S
C717   C735    1.491   .     S
C717   C757    1.414   .     S
C718   C738    1.491   .     S
C718   C758    1.414   1_455 S
Cu719  Cu720   2.714   .     S
Cu719  O734    1.951   .     S
Cu719  O730    1.955   .     S
Cu719  O731    1.953   .     S
Cu719  N726    2.039   .     S
Cu719  O727    1.962   .     S
Cu720  O728    1.962   .     S
Cu720  O729    1.955   .     S
Cu720  O733    1.951   .     S
Cu720  O732    1.953   .     S
Cu720  N725    2.039   .     S
N726   N29     1.287   1_556 S
N726   Br58    1.881   1_556 S
C735   O737    1.219   .     D
C735   H736    1.084   .     S
C738   O740    1.219   .     D
C738   H739    1.084   .     S
C741   O743    1.220   .     D
C741   H974    1.081   1_545 S
H742   C857    1.081   .     S
C744   O746    1.220   .     D
C744   H861    1.081   .     S
H745   C976    1.081   1_545 S
C747   H748    1.086   .     S
C747   O749    1.222   .     D
C747   C817    1.495   .     S
C750   O752    1.222   .     D
C750   H751    1.086   .     S
C750   C934    1.495   1_545 S
Br753  N29     1.881   1_556 S
C755   O787    1.298   .     A
C755   C759    1.428   .     S
C755   O785    1.292   .     A
C756   O788    1.298   .     A
C756   O786    1.292   .     A
C756   C760    1.428   .     S
C757   C774    1.422   .     A
C757   C799    1.494   .     S
C758   C802    1.494   .     S
C758   C773    1.422   .     A
C758   C718    1.414   1_655 S
C759   C992    1.359   1_545 S
C759   C1037   1.495   1_545 S
C760   C875    1.359   .     S
C760   C924    1.495   .     S
C761   O791    1.299   .     A
C761   C766    1.442   .     S
C761   O789    1.300   .     A
C762   O792    1.299   .     A
C762   C765    1.442   .     S
C762   O790    1.300   .     A
C763   C765    1.389   .     A
C763   H779    1.082   .     S
C763   C773    1.404   .     A
C764   H780    1.082   .     S
C764   C766    1.389   .     A
C764   C774    1.404   .     A
C765   C767    1.384   .     A
C766   C768    1.384   .     A
C767   C769    1.400   .     A
C767   H781    1.083   .     S
C768   C770    1.400   .     A
C768   H782    1.083   .     S
C769   C775    1.416   .     A
C769   C771    1.421   .     A
C770   C772    1.421   .     A
C770   C776    1.416   .     A
C771   C773    1.423   .     A
C771   C714    1.400   1_655 S
C772   C774    1.423   .     A
C775   C793    1.491   .     S
C775   C699    1.414   1_655 S
C776   C796    1.491   .     S
Cu777  Cu778   2.714   .     S
Cu777  O792    1.951   .     S
Cu777  O788    1.955   .     S
Cu777  O789    1.953   .     S
Cu777  N784    2.039   .     S
Cu777  O785    1.962   .     S
Cu778  O786    1.962   .     S
Cu778  O787    1.955   .     S
Cu778  O791    1.951   .     S
Cu778  O790    1.953   .     S
Cu778  N783    2.039   .     S
N784   N87     1.287   1_556 S
N784   Br116   1.881   1_556 S
C793   O795    1.219   .     D
C793   H794    1.084   .     S
C796   O798    1.219   .     D
C796   H797    1.084   .     S
C799   O801    1.220   .     D
C799   H1032   1.081   1_545 S
H800   C915    1.081   .     S
C802   O804    1.220   .     D
C802   H919    1.081   .     S
H803   C1034   1.081   1_545 S
C805   H806    1.086   .     S
C805   O807    1.222   .     D
C805   C875    1.495   .     S
C808   O810    1.222   .     D
C808   H809    1.086   .     S
C808   C992    1.495   1_545 S
Br811  N87     1.881   1_556 S
C813   O845    1.298   .     A
C813   C817    1.428   .     S
C813   O843    1.292   .     A
C814   O846    1.298   .     A
C814   O844    1.292   .     A
C814   C818    1.428   .     S
C815   C832    1.422   .     A
C815   C857    1.494   .     S
C815   C891    1.414   1_455 S
C816   C860    1.494   .     S
C816   C831    1.422   .     A
C816   C892    1.414   .     S
C818   C933    1.359   .     S
C818   C982    1.495   .     S
C819   O849    1.299   .     A
C819   C824    1.442   .     S
C819   O847    1.300   .     A
C820   O850    1.299   .     A
C820   C823    1.442   .     S
C820   O848    1.300   .     A
C821   C823    1.389   .     A
C821   H837    1.082   .     S
C821   C831    1.404   .     A
C822   H838    1.082   .     S
C822   C824    1.389   .     A
C822   C832    1.404   .     A
C823   C825    1.384   .     A
C824   C826    1.384   .     A
C825   C827    1.400   .     A
C825   H839    1.083   .     S
C826   C828    1.400   .     A
C826   H840    1.083   .     S
C827   C833    1.416   .     A
C827   C829    1.421   .     A
C828   C830    1.421   .     A
C828   C834    1.416   .     A
C829   C831    1.423   .     A
C829   C888    1.400   .     S
C830   C832    1.423   .     A
C830   C887    1.400   1_455 S
C833   C851    1.491   .     S
C833   C873    1.414   .     S
C834   C854    1.491   .     S
C834   C874    1.414   1_455 S
Cu835  Cu836   2.714   .     S
Cu835  O850    1.951   .     S
Cu835  O846    1.955   .     S
Cu835  O847    1.953   .     S
Cu835  N842    2.039   .     S
Cu835  O843    1.962   .     S
Cu836  O844    1.962   .     S
Cu836  O845    1.955   .     S
Cu836  O849    1.951   .     S
Cu836  O848    1.953   .     S
Cu836  N841    2.039   .     S
N842   N145    1.287   1_556 S
N842   Br174   1.881   1_556 S
C851   O853    1.219   .     D
C851   H852    1.084   .     S
C854   O856    1.219   .     D
C854   H855    1.084   .     S
C857   O859    1.220   .     D
H858   C973    1.081   .     S
C860   O862    1.220   .     D
C860   H977    1.081   .     S
C863   H864    1.086   .     S
C863   O865    1.222   .     D
C863   C933    1.495   .     S
C866   O868    1.222   .     D
C866   H867    1.086   .     S
Br869  N145    1.881   1_556 S
C871   O903    1.298   .     A
C871   C875    1.428   .     S
C871   O901    1.292   .     A
C872   O904    1.298   .     A
C872   O902    1.292   .     A
C872   C876    1.428   .     S
C873   C890    1.422   .     A
C873   C915    1.494   .     S
C874   C918    1.494   .     S
C874   C889    1.422   .     A
C874   C834    1.414   1_655 S
C876   C991    1.359   .     S
C876   C1040   1.495   .     S
C877   O907    1.299   .     A
C877   C882    1.442   .     S
C877   O905    1.300   .     A
C878   O908    1.299   .     A
C878   C881    1.442   .     S
C878   O906    1.300   .     A
C879   C881    1.389   .     A
C879   H895    1.082   .     S
C879   C889    1.404   .     A
C880   H896    1.082   .     S
C880   C882    1.389   .     A
C880   C890    1.404   .     A
C881   C883    1.384   .     A
C882   C884    1.384   .     A
C883   C885    1.400   .     A
C883   H897    1.083   .     S
C884   C886    1.400   .     A
C884   H898    1.083   .     S
C885   C891    1.416   .     A
C885   C887    1.421   .     A
C886   C888    1.421   .     A
C886   C892    1.416   .     A
C887   C889    1.423   .     A
C887   C830    1.400   1_655 S
C888   C890    1.423   .     A
C891   C909    1.491   .     S
C891   C815    1.414   1_655 S
C892   C912    1.491   .     S
Cu893  Cu894   2.714   .     S
Cu893  O908    1.951   .     S
Cu893  O904    1.955   .     S
Cu893  O905    1.953   .     S
Cu893  N900    2.039   .     S
Cu893  O901    1.962   .     S
Cu894  O902    1.962   .     S
Cu894  O903    1.955   .     S
Cu894  O907    1.951   .     S
Cu894  O906    1.953   .     S
Cu894  N899    2.039   .     S
N900   N203    1.287   1_556 S
N900   Br232   1.881   1_556 S
C909   O911    1.219   .     D
C909   H910    1.084   .     S
C912   O914    1.219   .     D
C912   H913    1.084   .     S
C915   O917    1.220   .     D
H916   C1031   1.081   .     S
C918   O920    1.220   .     D
C918   H1035   1.081   .     S
C921   H922    1.086   .     S
C921   O923    1.222   .     D
C921   C991    1.495   .     S
C924   O926    1.222   .     D
C924   H925    1.086   .     S
Br927  N203    1.881   1_556 S
C929   O961    1.298   .     A
C929   C933    1.428   .     S
C929   O959    1.292   .     A
C930   O962    1.298   .     A
C930   O960    1.292   .     A
C930   C934    1.428   .     S
C931   C948    1.422   .     A
C931   C973    1.494   .     S
C931   C1007   1.414   1_455 S
C932   C976    1.494   .     S
C932   C947    1.422   .     A
C932   C1008   1.414   .     S
C934   C701    1.359   1_565 S
C934   C750    1.495   1_565 S
C935   O965    1.299   .     A
C935   C940    1.442   .     S
C935   O963    1.300   .     A
C936   O966    1.299   .     A
C936   C939    1.442   .     S
C936   O964    1.300   .     A
C937   C939    1.389   .     A
C937   H953    1.082   .     S
C937   C947    1.404   .     A
C938   H954    1.082   .     S
C938   C940    1.389   .     A
C938   C948    1.404   .     A
C939   C941    1.384   .     A
C940   C942    1.384   .     A
C941   C943    1.400   .     A
C941   H955    1.083   .     S
C942   C944    1.400   .     A
C942   H956    1.083   .     S
C943   C949    1.416   .     A
C943   C945    1.421   .     A
C944   C946    1.421   .     A
C944   C950    1.416   .     A
C945   C947    1.423   .     A
C945   C1004   1.400   .     S
C946   C948    1.423   .     A
C946   C1003   1.400   1_455 S
C949   C967    1.491   .     S
C949   C989    1.414   .     S
C950   C970    1.491   .     S
C950   C990    1.414   1_455 S
Cu951  Cu952   2.714   .     S
Cu951  O966    1.951   .     S
Cu951  O962    1.955   .     S
Cu951  O963    1.953   .     S
Cu951  N958    2.039   .     S
Cu951  O959    1.962   .     S
Cu952  O960    1.962   .     S
Cu952  O961    1.955   .     S
Cu952  O965    1.951   .     S
Cu952  O964    1.953   .     S
Cu952  N957    2.039   .     S
N958   N261    1.287   1_556 S
N958   Br290   1.881   1_556 S
C967   O969    1.219   .     D
C967   H968    1.084   .     S
C970   O972    1.219   .     D
C970   H971    1.084   .     S
C973   O975    1.220   .     D
H974   C741    1.081   1_565 S
C976   O978    1.220   .     D
C976   H745    1.081   1_565 S
C979   H980    1.086   .     S
C979   O981    1.222   .     D
C979   C701    1.495   1_565 S
C982   O984    1.222   .     D
C982   H983    1.086   .     S
Br985  N261    1.881   1_556 S
C987   O1019   1.298   .     A
C987   C991    1.428   .     S
C987   O1017   1.292   .     A
C988   O1020   1.298   .     A
C988   O1018   1.292   .     A
C988   C992    1.428   .     S
C989   C1006   1.422   .     A
C989   C1031   1.494   .     S
C990   C1034   1.494   .     S
C990   C1005   1.422   .     A
C990   C950    1.414   1_655 S
C992   C759    1.359   1_565 S
C992   C808    1.495   1_565 S
C993   O1023   1.299   .     A
C993   C998    1.442   .     S
C993   O1021   1.300   .     A
C994   O1024   1.299   .     A
C994   C997    1.442   .     S
C994   O1022   1.300   .     A
C995   C997    1.389   .     A
C995   H1011   1.082   .     S
C995   C1005   1.404   .     A
C996   H1012   1.082   .     S
C996   C998    1.389   .     A
C996   C1006   1.404   .     A
C997   C999    1.384   .     A
C998   C1000   1.384   .     A
C999   C1001   1.400   .     A
C999   H1013   1.083   .     S
C1000  C1002   1.400   .     A
C1000  H1014   1.083   .     S
C1001  C1007   1.416   .     A
C1001  C1003   1.421   .     A
C1002  C1004   1.421   .     A
C1002  C1008   1.416   .     A
C1003  C1005   1.423   .     A
C1003  C946    1.400   1_655 S
C1004  C1006   1.423   .     A
C1007  C1025   1.491   .     S
C1007  C931    1.414   1_655 S
C1008  C1028   1.491   .     S
Cu1009 Cu1010  2.714   .     S
Cu1009 O1024   1.951   .     S
Cu1009 O1020   1.955   .     S
Cu1009 O1021   1.953   .     S
Cu1009 N1016   2.039   .     S
Cu1009 O1017   1.962   .     S
Cu1010 O1018   1.962   .     S
Cu1010 O1019   1.955   .     S
Cu1010 O1023   1.951   .     S
Cu1010 O1022   1.953   .     S
Cu1010 N1015   2.039   .     S
N1016  N319    1.287   1_556 S
N1016  Br348   1.881   1_556 S
C1025  O1027   1.219   .     D
C1025  H1026   1.084   .     S
C1028  O1030   1.219   .     D
C1028  H1029   1.084   .     S
C1031  O1033   1.220   .     D
H1032  C799    1.081   1_565 S
C1034  O1036   1.220   .     D
C1034  H803    1.081   1_565 S
C1037  H1038   1.086   .     S
C1037  O1039   1.222   .     D
C1037  C759    1.495   1_565 S
C1040  O1042   1.222   .     D
C1040  H1041   1.086   .     S
Br1043 N319    1.881   1_556 S
