data_str_m3_o1_o16_pcu_sym.107
_audit_creation_date              2020-01-03
_audit_creation_method            'Materials Studio'
_symmetry_space_group_name_H-M    'P1'
_symmetry_Int_Tables_number       1
_symmetry_cell_setting            triclinic
loop_
_symmetry_equiv_pos_as_xyz
  x,y,z
_cell_length_a                    29.5679
_cell_length_b                    32.1429
_cell_length_c                    26.1071
_cell_angle_alpha                 90.1661
_cell_angle_beta                  71.3491
_cell_angle_gamma                 89.9066
loop_
_atom_site_label
_atom_site_type_symbol
_atom_site_fract_x
_atom_site_fract_y
_atom_site_fract_z
_atom_site_U_iso_or_equiv
_atom_site_adp_type
_atom_site_occupancy
C1     C     0.16660   0.24669   0.25019   0.00000  Uiso   1.00
C2     C     0.14873   0.13214   0.48762   0.00000  Uiso   1.00
C3     C     0.16230   0.13319   0.43085   0.00000  Uiso   1.00
C4     C     0.18471   0.13816   0.01202   0.00000  Uiso   1.00
C5     C     0.23338   0.13885   0.47962   0.00000  Uiso   1.00
C6     C     0.24592   0.12856   0.42506   0.00000  Uiso   1.00
C7     C     0.21055   0.12468   0.40107   0.00000  Uiso   1.00
C8     C     0.17334   0.14773   0.06667   0.00000  Uiso   1.00
C9     C     0.25640   0.16266   0.05594   0.00000  Uiso   1.00
C10    C     0.12731   0.14392   0.40639   0.00000  Uiso   1.00
C11    C     0.20334   0.31200   0.26202   0.00000  Uiso   1.00
C12    C     0.14120   0.16015   0.35087   0.00000  Uiso   1.00
C13    C     0.20339   0.02130   0.26193   0.00000  Uiso   1.00
C14    C     0.16659   0.04249   0.25026   0.00000  Uiso   1.00
C15    C     0.12963   0.02134   0.23891   0.00000  Uiso   1.00
C16    C     0.12956   0.31205   0.23905   0.00000  Uiso   1.00
C17    C     0.16648   0.29085   0.25046   0.00000  Uiso   1.00
C18    C     0.31941   0.14217   0.21465   0.00000  Uiso   1.00
C19    C     0.03401   0.14217   0.21466   0.00000  Uiso   1.00
C20    C     0.01361   0.19118   0.28547   0.00000  Uiso   1.00
C21    C     0.29913   0.19107   0.28536   0.00000  Uiso   1.00
C22    C     0.16667   0.08664   0.25000   0.00000  Uiso   1.00
C23    C     0.19287   0.16633   0.14768   0.00000  Uiso   1.00
C24    C     0.26861   0.15117   0.00167   0.00000  Uiso   1.00
C25    C     0.20843   0.15963   0.08915   0.00000  Uiso   1.00
C26    C     0.07891   0.14005   0.43642   0.00000  Uiso   1.00
C27    C     0.06560   0.12916   0.49074   0.00000  Uiso   1.00
C28    C     0.09976   0.12723   0.01704   0.00000  Uiso   1.00
H29    H     0.23191   0.03754   0.27125   0.00000  Uiso   1.00
H30    H     0.10112   0.03759   0.22954   0.00000  Uiso   1.00
H31    H     0.30932   0.12260   0.18633   0.00000  Uiso   1.00
H32    H     0.06015   0.12256   0.18638   0.00000  Uiso   1.00
H33    H     0.13664   0.14761   0.09211   0.00000  Uiso   1.00
H34    H     0.08711   0.12085   0.05984   0.00000  Uiso   1.00
H35    H     0.02854   0.12378   0.01319   0.00000  Uiso   1.00
H36    H     0.22169   0.11547   0.35904   0.00000  Uiso   1.00
H37    H     0.23186   0.29574   0.27137   0.00000  Uiso   1.00
N38    N     0.04760   0.16668   0.25002   0.00000  Uiso   1.00
N39    N     0.28573   0.16665   0.25001   0.00000  Uiso   1.00
O40    O     0.12846   0.22775   0.25001   0.00000  Uiso   1.00
O41    O     0.20490   0.22774   0.25001   0.00000  Uiso   1.00
O42    O     0.10947   0.16666   0.32681   0.00000  Uiso   1.00
O43    O     0.18591   0.16665   0.32681   0.00000  Uiso   1.00
O44    O     0.12843   0.10559   0.25000   0.00000  Uiso   1.00
O45    O     0.20488   0.10558   0.25000   0.00000  Uiso   1.00
O46    O     0.14742   0.16668   0.17319   0.00000  Uiso   1.00
O47    O     0.22387   0.16667   0.17319   0.00000  Uiso   1.00
Zn48   Zn    0.11562   0.16667   0.25000   0.00000  Uiso   1.00
Zn49   Zn    0.21771   0.16666   0.25000   0.00000  Uiso   1.00
Cl50   Cl    0.30164   0.18310   0.07921   0.00000  Uiso   1.00
H51    H     0.10099   0.29583   0.22980   0.00000  Uiso   1.00
Cl52   Cl    0.02836   0.22352   0.33191   0.00000  Uiso   1.00
H53    H     0.27276   0.21056   0.31355   0.00000  Uiso   1.00
H54    H     0.28303   0.12553   0.40040   0.00000  Uiso   1.00
H55    H     0.30529   0.15372   0.47601   0.00000  Uiso   1.00
H56    H     0.05154   0.14513   0.41775   0.00000  Uiso   1.00
C57    C     0.49994   0.24669   0.25019   0.00000  Uiso   1.00
C58    C     0.48206   0.13214   0.48762   0.00000  Uiso   1.00
C59    C     0.49563   0.13319   0.43085   0.00000  Uiso   1.00
C60    C     0.51805   0.13816   0.01202   0.00000  Uiso   1.00
C61    C     0.56671   0.13885   0.47962   0.00000  Uiso   1.00
C62    C     0.57925   0.12856   0.42506   0.00000  Uiso   1.00
C63    C     0.54388   0.12468   0.40107   0.00000  Uiso   1.00
C64    C     0.50667   0.14773   0.06667   0.00000  Uiso   1.00
C65    C     0.58973   0.16266   0.05594   0.00000  Uiso   1.00
C66    C     0.46065   0.14392   0.40639   0.00000  Uiso   1.00
C67    C     0.53668   0.31200   0.26202   0.00000  Uiso   1.00
C68    C     0.47454   0.16015   0.35087   0.00000  Uiso   1.00
C69    C     0.53673   0.02130   0.26193   0.00000  Uiso   1.00
C70    C     0.49992   0.04249   0.25026   0.00000  Uiso   1.00
C71    C     0.46297   0.02134   0.23891   0.00000  Uiso   1.00
C72    C     0.46289   0.31205   0.23905   0.00000  Uiso   1.00
C73    C     0.49981   0.29085   0.25046   0.00000  Uiso   1.00
C74    C     0.65275   0.14217   0.21465   0.00000  Uiso   1.00
C75    C     0.36734   0.14217   0.21466   0.00000  Uiso   1.00
C76    C     0.34694   0.19118   0.28547   0.00000  Uiso   1.00
C77    C     0.63246   0.19107   0.28536   0.00000  Uiso   1.00
C78    C     0.50001   0.08664   0.25000   0.00000  Uiso   1.00
C79    C     0.52621   0.16633   0.14768   0.00000  Uiso   1.00
C80    C     0.60194   0.15117   0.00167   0.00000  Uiso   1.00
C81    C     0.54176   0.15963   0.08915   0.00000  Uiso   1.00
C82    C     0.41224   0.14005   0.43642   0.00000  Uiso   1.00
C83    C     0.39893   0.12916   0.49074   0.00000  Uiso   1.00
C84    C     0.43309   0.12723   0.01704   0.00000  Uiso   1.00
H85    H     0.56525   0.03754   0.27125   0.00000  Uiso   1.00
H86    H     0.43446   0.03759   0.22954   0.00000  Uiso   1.00
H87    H     0.64265   0.12260   0.18633   0.00000  Uiso   1.00
H88    H     0.39348   0.12256   0.18638   0.00000  Uiso   1.00
H89    H     0.46997   0.14761   0.09211   0.00000  Uiso   1.00
H90    H     0.42044   0.12085   0.05984   0.00000  Uiso   1.00
H91    H     0.36188   0.12378   0.01319   0.00000  Uiso   1.00
H92    H     0.55503   0.11547   0.35904   0.00000  Uiso   1.00
H93    H     0.56519   0.29574   0.27137   0.00000  Uiso   1.00
N94    N     0.38093   0.16668   0.25002   0.00000  Uiso   1.00
N95    N     0.61906   0.16665   0.25001   0.00000  Uiso   1.00
O96    O     0.46179   0.22775   0.25001   0.00000  Uiso   1.00
O97    O     0.53823   0.22774   0.25001   0.00000  Uiso   1.00
O98    O     0.44280   0.16666   0.32681   0.00000  Uiso   1.00
O99    O     0.51924   0.16665   0.32681   0.00000  Uiso   1.00
O100   O     0.46177   0.10559   0.25000   0.00000  Uiso   1.00
O101   O     0.53821   0.10558   0.25000   0.00000  Uiso   1.00
O102   O     0.48076   0.16668   0.17319   0.00000  Uiso   1.00
O103   O     0.55720   0.16667   0.17319   0.00000  Uiso   1.00
Zn104  Zn    0.44896   0.16667   0.25000   0.00000  Uiso   1.00
Zn105  Zn    0.55104   0.16666   0.25000   0.00000  Uiso   1.00
Cl106  Cl    0.63497   0.18310   0.07921   0.00000  Uiso   1.00
H107   H     0.43432   0.29583   0.22980   0.00000  Uiso   1.00
Cl108  Cl    0.36169   0.22352   0.33191   0.00000  Uiso   1.00
H109   H     0.60609   0.21056   0.31355   0.00000  Uiso   1.00
H110   H     0.61637   0.12553   0.40040   0.00000  Uiso   1.00
H111   H     0.63862   0.15372   0.47601   0.00000  Uiso   1.00
H112   H     0.38487   0.14513   0.41775   0.00000  Uiso   1.00
C113   C     0.83327   0.24669   0.25019   0.00000  Uiso   1.00
C114   C     0.81539   0.13214   0.48762   0.00000  Uiso   1.00
C115   C     0.82897   0.13319   0.43085   0.00000  Uiso   1.00
C116   C     0.85138   0.13816   0.01202   0.00000  Uiso   1.00
C117   C     0.90004   0.13885   0.47962   0.00000  Uiso   1.00
C118   C     0.91259   0.12856   0.42506   0.00000  Uiso   1.00
C119   C     0.87721   0.12468   0.40107   0.00000  Uiso   1.00
C120   C     0.84001   0.14773   0.06667   0.00000  Uiso   1.00
C121   C     0.92307   0.16266   0.05594   0.00000  Uiso   1.00
C122   C     0.79398   0.14392   0.40639   0.00000  Uiso   1.00
C123   C     0.87001   0.31200   0.26202   0.00000  Uiso   1.00
C124   C     0.80787   0.16015   0.35087   0.00000  Uiso   1.00
C125   C     0.87006   0.02130   0.26193   0.00000  Uiso   1.00
C126   C     0.83326   0.04249   0.25026   0.00000  Uiso   1.00
C127   C     0.79630   0.02134   0.23891   0.00000  Uiso   1.00
C128   C     0.79623   0.31205   0.23905   0.00000  Uiso   1.00
C129   C     0.83315   0.29085   0.25046   0.00000  Uiso   1.00
C130   C     0.98608   0.14217   0.21465   0.00000  Uiso   1.00
C131   C     0.70067   0.14217   0.21466   0.00000  Uiso   1.00
C132   C     0.68028   0.19118   0.28547   0.00000  Uiso   1.00
C133   C     0.96580   0.19107   0.28536   0.00000  Uiso   1.00
C134   C     0.83334   0.08664   0.25000   0.00000  Uiso   1.00
C135   C     0.85954   0.16633   0.14768   0.00000  Uiso   1.00
C136   C     0.93528   0.15117   0.00167   0.00000  Uiso   1.00
C137   C     0.87510   0.15963   0.08915   0.00000  Uiso   1.00
C138   C     0.74557   0.14005   0.43642   0.00000  Uiso   1.00
C139   C     0.73227   0.12916   0.49074   0.00000  Uiso   1.00
C140   C     0.76642   0.12723   0.01704   0.00000  Uiso   1.00
H141   H     0.89858   0.03754   0.27125   0.00000  Uiso   1.00
H142   H     0.76779   0.03759   0.22954   0.00000  Uiso   1.00
H143   H     0.97599   0.12260   0.18633   0.00000  Uiso   1.00
H144   H     0.72682   0.12256   0.18638   0.00000  Uiso   1.00
H145   H     0.80330   0.14761   0.09211   0.00000  Uiso   1.00
H146   H     0.75377   0.12085   0.05984   0.00000  Uiso   1.00
H147   H     0.69521   0.12378   0.01319   0.00000  Uiso   1.00
H148   H     0.88836   0.11547   0.35904   0.00000  Uiso   1.00
H149   H     0.89853   0.29574   0.27137   0.00000  Uiso   1.00
N150   N     0.71426   0.16668   0.25002   0.00000  Uiso   1.00
N151   N     0.95239   0.16665   0.25001   0.00000  Uiso   1.00
O152   O     0.79512   0.22775   0.25001   0.00000  Uiso   1.00
O153   O     0.87157   0.22774   0.25001   0.00000  Uiso   1.00
O154   O     0.77613   0.16666   0.32681   0.00000  Uiso   1.00
O155   O     0.85258   0.16665   0.32681   0.00000  Uiso   1.00
O156   O     0.79510   0.10559   0.25000   0.00000  Uiso   1.00
O157   O     0.87154   0.10558   0.25000   0.00000  Uiso   1.00
O158   O     0.81409   0.16668   0.17319   0.00000  Uiso   1.00
O159   O     0.89053   0.16667   0.17319   0.00000  Uiso   1.00
Zn160  Zn    0.78229   0.16667   0.25000   0.00000  Uiso   1.00
Zn161  Zn    0.88438   0.16666   0.25000   0.00000  Uiso   1.00
Cl162  Cl    0.96831   0.18310   0.07921   0.00000  Uiso   1.00
H163   H     0.76766   0.29583   0.22980   0.00000  Uiso   1.00
Cl164  Cl    0.69503   0.22352   0.33191   0.00000  Uiso   1.00
H165   H     0.93942   0.21056   0.31355   0.00000  Uiso   1.00
H166   H     0.94970   0.12553   0.40040   0.00000  Uiso   1.00
H167   H     0.97196   0.15372   0.47601   0.00000  Uiso   1.00
H168   H     0.71821   0.14513   0.41775   0.00000  Uiso   1.00
C169   C     0.16660   0.58003   0.25019   0.00000  Uiso   1.00
C170   C     0.14873   0.46547   0.48762   0.00000  Uiso   1.00
C171   C     0.16230   0.46652   0.43085   0.00000  Uiso   1.00
C172   C     0.18471   0.47149   0.01202   0.00000  Uiso   1.00
C173   C     0.23338   0.47218   0.47962   0.00000  Uiso   1.00
C174   C     0.24592   0.46190   0.42506   0.00000  Uiso   1.00
C175   C     0.21055   0.45801   0.40107   0.00000  Uiso   1.00
C176   C     0.17334   0.48106   0.06667   0.00000  Uiso   1.00
C177   C     0.25640   0.49599   0.05594   0.00000  Uiso   1.00
C178   C     0.12731   0.47725   0.40639   0.00000  Uiso   1.00
C179   C     0.20334   0.64534   0.26202   0.00000  Uiso   1.00
C180   C     0.14120   0.49348   0.35087   0.00000  Uiso   1.00
C181   C     0.20339   0.35464   0.26193   0.00000  Uiso   1.00
C182   C     0.16659   0.37582   0.25026   0.00000  Uiso   1.00
C183   C     0.12963   0.35467   0.23891   0.00000  Uiso   1.00
C184   C     0.12956   0.64538   0.23905   0.00000  Uiso   1.00
C185   C     0.16648   0.62418   0.25046   0.00000  Uiso   1.00
C186   C     0.31941   0.47550   0.21465   0.00000  Uiso   1.00
C187   C     0.03401   0.47550   0.21466   0.00000  Uiso   1.00
C188   C     0.01361   0.52451   0.28547   0.00000  Uiso   1.00
C189   C     0.29913   0.52440   0.28536   0.00000  Uiso   1.00
C190   C     0.16667   0.41997   0.25000   0.00000  Uiso   1.00
C191   C     0.19287   0.49966   0.14768   0.00000  Uiso   1.00
C192   C     0.26861   0.48450   0.00167   0.00000  Uiso   1.00
C193   C     0.20843   0.49297   0.08915   0.00000  Uiso   1.00
C194   C     0.07891   0.47339   0.43642   0.00000  Uiso   1.00
C195   C     0.06560   0.46249   0.49074   0.00000  Uiso   1.00
C196   C     0.09976   0.46056   0.01704   0.00000  Uiso   1.00
H197   H     0.23191   0.37087   0.27125   0.00000  Uiso   1.00
H198   H     0.10112   0.37092   0.22954   0.00000  Uiso   1.00
H199   H     0.30932   0.45593   0.18633   0.00000  Uiso   1.00
H200   H     0.06015   0.45589   0.18638   0.00000  Uiso   1.00
H201   H     0.13664   0.48095   0.09211   0.00000  Uiso   1.00
H202   H     0.08711   0.45418   0.05984   0.00000  Uiso   1.00
H203   H     0.02854   0.45711   0.01319   0.00000  Uiso   1.00
H204   H     0.22169   0.44880   0.35904   0.00000  Uiso   1.00
H205   H     0.23186   0.62907   0.27137   0.00000  Uiso   1.00
N206   N     0.04760   0.50001   0.25002   0.00000  Uiso   1.00
N207   N     0.28573   0.49998   0.25001   0.00000  Uiso   1.00
O208   O     0.12846   0.56108   0.25001   0.00000  Uiso   1.00
O209   O     0.20490   0.56107   0.25001   0.00000  Uiso   1.00
O210   O     0.10947   0.50000   0.32681   0.00000  Uiso   1.00
O211   O     0.18591   0.49999   0.32681   0.00000  Uiso   1.00
O212   O     0.12843   0.43893   0.25000   0.00000  Uiso   1.00
O213   O     0.20488   0.43892   0.25000   0.00000  Uiso   1.00
O214   O     0.14742   0.50001   0.17319   0.00000  Uiso   1.00
O215   O     0.22387   0.50000   0.17319   0.00000  Uiso   1.00
Zn216  Zn    0.11562   0.50001   0.25000   0.00000  Uiso   1.00
Zn217  Zn    0.21771   0.49999   0.25000   0.00000  Uiso   1.00
Cl218  Cl    0.30164   0.51644   0.07921   0.00000  Uiso   1.00
H219   H     0.10099   0.62917   0.22980   0.00000  Uiso   1.00
Cl220  Cl    0.02836   0.55686   0.33191   0.00000  Uiso   1.00
H221   H     0.27276   0.54389   0.31355   0.00000  Uiso   1.00
H222   H     0.28303   0.45887   0.40040   0.00000  Uiso   1.00
H223   H     0.30529   0.48705   0.47601   0.00000  Uiso   1.00
H224   H     0.05154   0.47847   0.41775   0.00000  Uiso   1.00
C225   C     0.49994   0.58003   0.25019   0.00000  Uiso   1.00
C226   C     0.48206   0.46547   0.48762   0.00000  Uiso   1.00
C227   C     0.49563   0.46652   0.43085   0.00000  Uiso   1.00
C228   C     0.51805   0.47149   0.01202   0.00000  Uiso   1.00
C229   C     0.56671   0.47218   0.47962   0.00000  Uiso   1.00
C230   C     0.57925   0.46190   0.42506   0.00000  Uiso   1.00
C231   C     0.54388   0.45801   0.40107   0.00000  Uiso   1.00
C232   C     0.50667   0.48106   0.06667   0.00000  Uiso   1.00
C233   C     0.58973   0.49599   0.05594   0.00000  Uiso   1.00
C234   C     0.46065   0.47725   0.40639   0.00000  Uiso   1.00
C235   C     0.53668   0.64534   0.26202   0.00000  Uiso   1.00
C236   C     0.47454   0.49348   0.35087   0.00000  Uiso   1.00
C237   C     0.53673   0.35464   0.26193   0.00000  Uiso   1.00
C238   C     0.49992   0.37582   0.25026   0.00000  Uiso   1.00
C239   C     0.46297   0.35467   0.23891   0.00000  Uiso   1.00
C240   C     0.46289   0.64538   0.23905   0.00000  Uiso   1.00
C241   C     0.49981   0.62418   0.25046   0.00000  Uiso   1.00
C242   C     0.65275   0.47550   0.21465   0.00000  Uiso   1.00
C243   C     0.36734   0.47550   0.21466   0.00000  Uiso   1.00
C244   C     0.34694   0.52451   0.28547   0.00000  Uiso   1.00
C245   C     0.63246   0.52440   0.28536   0.00000  Uiso   1.00
C246   C     0.50001   0.41997   0.25000   0.00000  Uiso   1.00
C247   C     0.52621   0.49966   0.14768   0.00000  Uiso   1.00
C248   C     0.60194   0.48450   0.00167   0.00000  Uiso   1.00
C249   C     0.54176   0.49297   0.08915   0.00000  Uiso   1.00
C250   C     0.41224   0.47339   0.43642   0.00000  Uiso   1.00
C251   C     0.39893   0.46249   0.49074   0.00000  Uiso   1.00
C252   C     0.43309   0.46056   0.01704   0.00000  Uiso   1.00
H253   H     0.56525   0.37087   0.27125   0.00000  Uiso   1.00
H254   H     0.43446   0.37092   0.22954   0.00000  Uiso   1.00
H255   H     0.64265   0.45593   0.18633   0.00000  Uiso   1.00
H256   H     0.39348   0.45589   0.18638   0.00000  Uiso   1.00
H257   H     0.46997   0.48095   0.09211   0.00000  Uiso   1.00
H258   H     0.42044   0.45418   0.05984   0.00000  Uiso   1.00
H259   H     0.36188   0.45711   0.01319   0.00000  Uiso   1.00
H260   H     0.55503   0.44880   0.35904   0.00000  Uiso   1.00
H261   H     0.56519   0.62907   0.27137   0.00000  Uiso   1.00
N262   N     0.38093   0.50001   0.25002   0.00000  Uiso   1.00
N263   N     0.61906   0.49998   0.25001   0.00000  Uiso   1.00
O264   O     0.46179   0.56108   0.25001   0.00000  Uiso   1.00
O265   O     0.53823   0.56107   0.25001   0.00000  Uiso   1.00
O266   O     0.44280   0.50000   0.32681   0.00000  Uiso   1.00
O267   O     0.51924   0.49999   0.32681   0.00000  Uiso   1.00
O268   O     0.46177   0.43893   0.25000   0.00000  Uiso   1.00
O269   O     0.53821   0.43892   0.25000   0.00000  Uiso   1.00
O270   O     0.48076   0.50001   0.17319   0.00000  Uiso   1.00
O271   O     0.55720   0.50000   0.17319   0.00000  Uiso   1.00
Zn272  Zn    0.44896   0.50001   0.25000   0.00000  Uiso   1.00
Zn273  Zn    0.55104   0.49999   0.25000   0.00000  Uiso   1.00
Cl274  Cl    0.63497   0.51644   0.07921   0.00000  Uiso   1.00
H275   H     0.43432   0.62917   0.22980   0.00000  Uiso   1.00
Cl276  Cl    0.36169   0.55686   0.33191   0.00000  Uiso   1.00
H277   H     0.60609   0.54389   0.31355   0.00000  Uiso   1.00
H278   H     0.61637   0.45887   0.40040   0.00000  Uiso   1.00
H279   H     0.63862   0.48705   0.47601   0.00000  Uiso   1.00
H280   H     0.38487   0.47847   0.41775   0.00000  Uiso   1.00
C281   C     0.83327   0.58003   0.25019   0.00000  Uiso   1.00
C282   C     0.81539   0.46547   0.48762   0.00000  Uiso   1.00
C283   C     0.82897   0.46652   0.43085   0.00000  Uiso   1.00
C284   C     0.85138   0.47149   0.01202   0.00000  Uiso   1.00
C285   C     0.90004   0.47218   0.47962   0.00000  Uiso   1.00
C286   C     0.91259   0.46190   0.42506   0.00000  Uiso   1.00
C287   C     0.87721   0.45801   0.40107   0.00000  Uiso   1.00
C288   C     0.84001   0.48106   0.06667   0.00000  Uiso   1.00
C289   C     0.92307   0.49599   0.05594   0.00000  Uiso   1.00
C290   C     0.79398   0.47725   0.40639   0.00000  Uiso   1.00
C291   C     0.87001   0.64534   0.26202   0.00000  Uiso   1.00
C292   C     0.80787   0.49348   0.35087   0.00000  Uiso   1.00
C293   C     0.87006   0.35464   0.26193   0.00000  Uiso   1.00
C294   C     0.83326   0.37582   0.25026   0.00000  Uiso   1.00
C295   C     0.79630   0.35467   0.23891   0.00000  Uiso   1.00
C296   C     0.79623   0.64538   0.23905   0.00000  Uiso   1.00
C297   C     0.83315   0.62418   0.25046   0.00000  Uiso   1.00
C298   C     0.98608   0.47550   0.21465   0.00000  Uiso   1.00
C299   C     0.70067   0.47550   0.21466   0.00000  Uiso   1.00
C300   C     0.68028   0.52451   0.28547   0.00000  Uiso   1.00
C301   C     0.96580   0.52440   0.28536   0.00000  Uiso   1.00
C302   C     0.83334   0.41997   0.25000   0.00000  Uiso   1.00
C303   C     0.85954   0.49966   0.14768   0.00000  Uiso   1.00
C304   C     0.93528   0.48450   0.00167   0.00000  Uiso   1.00
C305   C     0.87510   0.49297   0.08915   0.00000  Uiso   1.00
C306   C     0.74557   0.47339   0.43642   0.00000  Uiso   1.00
C307   C     0.73227   0.46249   0.49074   0.00000  Uiso   1.00
C308   C     0.76642   0.46056   0.01704   0.00000  Uiso   1.00
H309   H     0.89858   0.37087   0.27125   0.00000  Uiso   1.00
H310   H     0.76779   0.37092   0.22954   0.00000  Uiso   1.00
H311   H     0.97599   0.45593   0.18633   0.00000  Uiso   1.00
H312   H     0.72682   0.45589   0.18638   0.00000  Uiso   1.00
H313   H     0.80330   0.48095   0.09211   0.00000  Uiso   1.00
H314   H     0.75377   0.45418   0.05984   0.00000  Uiso   1.00
H315   H     0.69521   0.45711   0.01319   0.00000  Uiso   1.00
H316   H     0.88836   0.44880   0.35904   0.00000  Uiso   1.00
H317   H     0.89853   0.62907   0.27137   0.00000  Uiso   1.00
N318   N     0.71426   0.50001   0.25002   0.00000  Uiso   1.00
N319   N     0.95239   0.49998   0.25001   0.00000  Uiso   1.00
O320   O     0.79512   0.56108   0.25001   0.00000  Uiso   1.00
O321   O     0.87157   0.56107   0.25001   0.00000  Uiso   1.00
O322   O     0.77613   0.50000   0.32681   0.00000  Uiso   1.00
O323   O     0.85258   0.49999   0.32681   0.00000  Uiso   1.00
O324   O     0.79510   0.43893   0.25000   0.00000  Uiso   1.00
O325   O     0.87154   0.43892   0.25000   0.00000  Uiso   1.00
O326   O     0.81409   0.50001   0.17319   0.00000  Uiso   1.00
O327   O     0.89053   0.50000   0.17319   0.00000  Uiso   1.00
Zn328  Zn    0.78229   0.50001   0.25000   0.00000  Uiso   1.00
Zn329  Zn    0.88438   0.49999   0.25000   0.00000  Uiso   1.00
Cl330  Cl    0.96831   0.51644   0.07921   0.00000  Uiso   1.00
H331   H     0.76766   0.62917   0.22980   0.00000  Uiso   1.00
Cl332  Cl    0.69503   0.55686   0.33191   0.00000  Uiso   1.00
H333   H     0.93942   0.54389   0.31355   0.00000  Uiso   1.00
H334   H     0.94970   0.45887   0.40040   0.00000  Uiso   1.00
H335   H     0.97196   0.48705   0.47601   0.00000  Uiso   1.00
H336   H     0.71821   0.47847   0.41775   0.00000  Uiso   1.00
C337   C     0.16660   0.91336   0.25019   0.00000  Uiso   1.00
C338   C     0.14873   0.79881   0.48762   0.00000  Uiso   1.00
C339   C     0.16230   0.79986   0.43085   0.00000  Uiso   1.00
C340   C     0.18471   0.80482   0.01202   0.00000  Uiso   1.00
C341   C     0.23338   0.80552   0.47962   0.00000  Uiso   1.00
C342   C     0.24592   0.79523   0.42506   0.00000  Uiso   1.00
C343   C     0.21055   0.79134   0.40107   0.00000  Uiso   1.00
C344   C     0.17334   0.81440   0.06667   0.00000  Uiso   1.00
C345   C     0.25640   0.82932   0.05594   0.00000  Uiso   1.00
C346   C     0.12731   0.81058   0.40639   0.00000  Uiso   1.00
C347   C     0.20334   0.97867   0.26202   0.00000  Uiso   1.00
C348   C     0.14120   0.82681   0.35087   0.00000  Uiso   1.00
C349   C     0.20339   0.68797   0.26193   0.00000  Uiso   1.00
C350   C     0.16659   0.70916   0.25026   0.00000  Uiso   1.00
C351   C     0.12963   0.68800   0.23891   0.00000  Uiso   1.00
C352   C     0.12956   0.97872   0.23905   0.00000  Uiso   1.00
C353   C     0.16648   0.95752   0.25046   0.00000  Uiso   1.00
C354   C     0.31941   0.80884   0.21465   0.00000  Uiso   1.00
C355   C     0.03401   0.80883   0.21466   0.00000  Uiso   1.00
C356   C     0.01361   0.85785   0.28547   0.00000  Uiso   1.00
C357   C     0.29913   0.85774   0.28536   0.00000  Uiso   1.00
C358   C     0.16667   0.75330   0.25000   0.00000  Uiso   1.00
C359   C     0.19287   0.83299   0.14768   0.00000  Uiso   1.00
C360   C     0.26861   0.81783   0.00167   0.00000  Uiso   1.00
C361   C     0.20843   0.82630   0.08915   0.00000  Uiso   1.00
C362   C     0.07891   0.80672   0.43642   0.00000  Uiso   1.00
C363   C     0.06560   0.79583   0.49074   0.00000  Uiso   1.00
C364   C     0.09976   0.79390   0.01704   0.00000  Uiso   1.00
H365   H     0.23191   0.70421   0.27125   0.00000  Uiso   1.00
H366   H     0.10112   0.70425   0.22954   0.00000  Uiso   1.00
H367   H     0.30932   0.78926   0.18633   0.00000  Uiso   1.00
H368   H     0.06015   0.78923   0.18638   0.00000  Uiso   1.00
H369   H     0.13664   0.81428   0.09211   0.00000  Uiso   1.00
H370   H     0.08711   0.78751   0.05984   0.00000  Uiso   1.00
H371   H     0.02854   0.79045   0.01319   0.00000  Uiso   1.00
H372   H     0.22169   0.78213   0.35904   0.00000  Uiso   1.00
H373   H     0.23186   0.96241   0.27137   0.00000  Uiso   1.00
N374   N     0.04760   0.83334   0.25002   0.00000  Uiso   1.00
N375   N     0.28573   0.83331   0.25001   0.00000  Uiso   1.00
O376   O     0.12846   0.89442   0.25001   0.00000  Uiso   1.00
O377   O     0.20490   0.89441   0.25001   0.00000  Uiso   1.00
O378   O     0.10947   0.83333   0.32681   0.00000  Uiso   1.00
O379   O     0.18591   0.83332   0.32681   0.00000  Uiso   1.00
O380   O     0.12843   0.77226   0.25000   0.00000  Uiso   1.00
O381   O     0.20488   0.77225   0.25000   0.00000  Uiso   1.00
O382   O     0.14742   0.83335   0.17319   0.00000  Uiso   1.00
O383   O     0.22387   0.83334   0.17319   0.00000  Uiso   1.00
Zn384  Zn    0.11562   0.83334   0.25000   0.00000  Uiso   1.00
Zn385  Zn    0.21771   0.83333   0.25000   0.00000  Uiso   1.00
Cl386  Cl    0.30164   0.84977   0.07921   0.00000  Uiso   1.00
H387   H     0.10099   0.96250   0.22980   0.00000  Uiso   1.00
Cl388  Cl    0.02836   0.89019   0.33191   0.00000  Uiso   1.00
H389   H     0.27276   0.87722   0.31355   0.00000  Uiso   1.00
H390   H     0.28303   0.79220   0.40040   0.00000  Uiso   1.00
H391   H     0.30529   0.82038   0.47601   0.00000  Uiso   1.00
H392   H     0.05154   0.81180   0.41775   0.00000  Uiso   1.00
C393   C     0.49994   0.91336   0.25019   0.00000  Uiso   1.00
C394   C     0.48206   0.79881   0.48762   0.00000  Uiso   1.00
C395   C     0.49563   0.79986   0.43085   0.00000  Uiso   1.00
C396   C     0.51805   0.80482   0.01202   0.00000  Uiso   1.00
C397   C     0.56671   0.80552   0.47962   0.00000  Uiso   1.00
C398   C     0.57925   0.79523   0.42506   0.00000  Uiso   1.00
C399   C     0.54388   0.79134   0.40107   0.00000  Uiso   1.00
C400   C     0.50667   0.81440   0.06667   0.00000  Uiso   1.00
C401   C     0.58973   0.82932   0.05594   0.00000  Uiso   1.00
C402   C     0.46065   0.81058   0.40639   0.00000  Uiso   1.00
C403   C     0.53668   0.97867   0.26202   0.00000  Uiso   1.00
C404   C     0.47454   0.82681   0.35087   0.00000  Uiso   1.00
C405   C     0.53673   0.68797   0.26193   0.00000  Uiso   1.00
C406   C     0.49992   0.70916   0.25026   0.00000  Uiso   1.00
C407   C     0.46297   0.68800   0.23891   0.00000  Uiso   1.00
C408   C     0.46289   0.97872   0.23905   0.00000  Uiso   1.00
C409   C     0.49981   0.95752   0.25046   0.00000  Uiso   1.00
C410   C     0.65275   0.80884   0.21465   0.00000  Uiso   1.00
C411   C     0.36734   0.80883   0.21466   0.00000  Uiso   1.00
C412   C     0.34694   0.85785   0.28547   0.00000  Uiso   1.00
C413   C     0.63246   0.85774   0.28536   0.00000  Uiso   1.00
C414   C     0.50001   0.75330   0.25000   0.00000  Uiso   1.00
C415   C     0.52621   0.83299   0.14768   0.00000  Uiso   1.00
C416   C     0.60194   0.81783   0.00167   0.00000  Uiso   1.00
C417   C     0.54176   0.82630   0.08915   0.00000  Uiso   1.00
C418   C     0.41224   0.80672   0.43642   0.00000  Uiso   1.00
C419   C     0.39893   0.79583   0.49074   0.00000  Uiso   1.00
C420   C     0.43309   0.79390   0.01704   0.00000  Uiso   1.00
H421   H     0.56525   0.70421   0.27125   0.00000  Uiso   1.00
H422   H     0.43446   0.70425   0.22954   0.00000  Uiso   1.00
H423   H     0.64265   0.78926   0.18633   0.00000  Uiso   1.00
H424   H     0.39348   0.78923   0.18638   0.00000  Uiso   1.00
H425   H     0.46997   0.81428   0.09211   0.00000  Uiso   1.00
H426   H     0.42044   0.78751   0.05984   0.00000  Uiso   1.00
H427   H     0.36188   0.79045   0.01319   0.00000  Uiso   1.00
H428   H     0.55503   0.78213   0.35904   0.00000  Uiso   1.00
H429   H     0.56519   0.96241   0.27137   0.00000  Uiso   1.00
N430   N     0.38093   0.83334   0.25002   0.00000  Uiso   1.00
N431   N     0.61906   0.83331   0.25001   0.00000  Uiso   1.00
O432   O     0.46179   0.89442   0.25001   0.00000  Uiso   1.00
O433   O     0.53823   0.89441   0.25001   0.00000  Uiso   1.00
O434   O     0.44280   0.83333   0.32681   0.00000  Uiso   1.00
O435   O     0.51924   0.83332   0.32681   0.00000  Uiso   1.00
O436   O     0.46177   0.77226   0.25000   0.00000  Uiso   1.00
O437   O     0.53821   0.77225   0.25000   0.00000  Uiso   1.00
O438   O     0.48076   0.83335   0.17319   0.00000  Uiso   1.00
O439   O     0.55720   0.83334   0.17319   0.00000  Uiso   1.00
Zn440  Zn    0.44896   0.83334   0.25000   0.00000  Uiso   1.00
Zn441  Zn    0.55104   0.83333   0.25000   0.00000  Uiso   1.00
Cl442  Cl    0.63497   0.84977   0.07921   0.00000  Uiso   1.00
H443   H     0.43432   0.96250   0.22980   0.00000  Uiso   1.00
Cl444  Cl    0.36169   0.89019   0.33191   0.00000  Uiso   1.00
H445   H     0.60609   0.87722   0.31355   0.00000  Uiso   1.00
H446   H     0.61637   0.79220   0.40040   0.00000  Uiso   1.00
H447   H     0.63862   0.82038   0.47601   0.00000  Uiso   1.00
H448   H     0.38487   0.81180   0.41775   0.00000  Uiso   1.00
C449   C     0.83327   0.91336   0.25019   0.00000  Uiso   1.00
C450   C     0.81539   0.79881   0.48762   0.00000  Uiso   1.00
C451   C     0.82897   0.79986   0.43085   0.00000  Uiso   1.00
C452   C     0.85138   0.80482   0.01202   0.00000  Uiso   1.00
C453   C     0.90004   0.80552   0.47962   0.00000  Uiso   1.00
C454   C     0.91259   0.79523   0.42506   0.00000  Uiso   1.00
C455   C     0.87721   0.79134   0.40107   0.00000  Uiso   1.00
C456   C     0.84001   0.81440   0.06667   0.00000  Uiso   1.00
C457   C     0.92307   0.82932   0.05594   0.00000  Uiso   1.00
C458   C     0.79398   0.81058   0.40639   0.00000  Uiso   1.00
C459   C     0.87001   0.97867   0.26202   0.00000  Uiso   1.00
C460   C     0.80787   0.82681   0.35087   0.00000  Uiso   1.00
C461   C     0.87006   0.68797   0.26193   0.00000  Uiso   1.00
C462   C     0.83326   0.70916   0.25026   0.00000  Uiso   1.00
C463   C     0.79630   0.68800   0.23891   0.00000  Uiso   1.00
C464   C     0.79623   0.97872   0.23905   0.00000  Uiso   1.00
C465   C     0.83315   0.95752   0.25046   0.00000  Uiso   1.00
C466   C     0.98608   0.80884   0.21465   0.00000  Uiso   1.00
C467   C     0.70067   0.80883   0.21466   0.00000  Uiso   1.00
C468   C     0.68028   0.85785   0.28547   0.00000  Uiso   1.00
C469   C     0.96580   0.85774   0.28536   0.00000  Uiso   1.00
C470   C     0.83334   0.75330   0.25000   0.00000  Uiso   1.00
C471   C     0.85954   0.83299   0.14768   0.00000  Uiso   1.00
C472   C     0.93528   0.81783   0.00167   0.00000  Uiso   1.00
C473   C     0.87510   0.82630   0.08915   0.00000  Uiso   1.00
C474   C     0.74557   0.80672   0.43642   0.00000  Uiso   1.00
C475   C     0.73227   0.79583   0.49074   0.00000  Uiso   1.00
C476   C     0.76642   0.79390   0.01704   0.00000  Uiso   1.00
H477   H     0.89858   0.70421   0.27125   0.00000  Uiso   1.00
H478   H     0.76779   0.70425   0.22954   0.00000  Uiso   1.00
H479   H     0.97599   0.78926   0.18633   0.00000  Uiso   1.00
H480   H     0.72682   0.78923   0.18638   0.00000  Uiso   1.00
H481   H     0.80330   0.81428   0.09211   0.00000  Uiso   1.00
H482   H     0.75377   0.78751   0.05984   0.00000  Uiso   1.00
H483   H     0.69521   0.79045   0.01319   0.00000  Uiso   1.00
H484   H     0.88836   0.78213   0.35904   0.00000  Uiso   1.00
H485   H     0.89853   0.96241   0.27137   0.00000  Uiso   1.00
N486   N     0.71426   0.83334   0.25002   0.00000  Uiso   1.00
N487   N     0.95239   0.83331   0.25001   0.00000  Uiso   1.00
O488   O     0.79512   0.89442   0.25001   0.00000  Uiso   1.00
O489   O     0.87157   0.89441   0.25001   0.00000  Uiso   1.00
O490   O     0.77613   0.83333   0.32681   0.00000  Uiso   1.00
O491   O     0.85258   0.83332   0.32681   0.00000  Uiso   1.00
O492   O     0.79510   0.77226   0.25000   0.00000  Uiso   1.00
O493   O     0.87154   0.77225   0.25000   0.00000  Uiso   1.00
O494   O     0.81409   0.83335   0.17319   0.00000  Uiso   1.00
O495   O     0.89053   0.83334   0.17319   0.00000  Uiso   1.00
Zn496  Zn    0.78229   0.83334   0.25000   0.00000  Uiso   1.00
Zn497  Zn    0.88438   0.83333   0.25000   0.00000  Uiso   1.00
Cl498  Cl    0.96831   0.84977   0.07921   0.00000  Uiso   1.00
H499   H     0.76766   0.96250   0.22980   0.00000  Uiso   1.00
Cl500  Cl    0.69503   0.89019   0.33191   0.00000  Uiso   1.00
H501   H     0.93942   0.87722   0.31355   0.00000  Uiso   1.00
H502   H     0.94970   0.79220   0.40040   0.00000  Uiso   1.00
H503   H     0.97196   0.82038   0.47601   0.00000  Uiso   1.00
H504   H     0.71821   0.81180   0.41775   0.00000  Uiso   1.00
C505   C     0.16660   0.24669   0.75019   0.00000  Uiso   1.00
C506   C     0.14873   0.13214   0.98762   0.00000  Uiso   1.00
C507   C     0.16230   0.13319   0.93085   0.00000  Uiso   1.00
C508   C     0.18471   0.13816   0.51202   0.00000  Uiso   1.00
C509   C     0.23338   0.13885   0.97962   0.00000  Uiso   1.00
C510   C     0.24592   0.12856   0.92506   0.00000  Uiso   1.00
C511   C     0.21055   0.12468   0.90107   0.00000  Uiso   1.00
C512   C     0.17334   0.14773   0.56667   0.00000  Uiso   1.00
C513   C     0.25640   0.16266   0.55594   0.00000  Uiso   1.00
C514   C     0.12731   0.14392   0.90639   0.00000  Uiso   1.00
C515   C     0.20334   0.31200   0.76202   0.00000  Uiso   1.00
C516   C     0.14120   0.16015   0.85087   0.00000  Uiso   1.00
C517   C     0.20339   0.02130   0.76193   0.00000  Uiso   1.00
C518   C     0.16659   0.04249   0.75026   0.00000  Uiso   1.00
C519   C     0.12963   0.02134   0.73891   0.00000  Uiso   1.00
C520   C     0.12956   0.31205   0.73905   0.00000  Uiso   1.00
C521   C     0.16648   0.29085   0.75046   0.00000  Uiso   1.00
C522   C     0.31941   0.14217   0.71465   0.00000  Uiso   1.00
C523   C     0.03401   0.14217   0.71466   0.00000  Uiso   1.00
C524   C     0.01361   0.19118   0.78547   0.00000  Uiso   1.00
C525   C     0.29913   0.19107   0.78536   0.00000  Uiso   1.00
C526   C     0.16667   0.08664   0.75000   0.00000  Uiso   1.00
C527   C     0.19287   0.16633   0.64768   0.00000  Uiso   1.00
C528   C     0.26861   0.15117   0.50167   0.00000  Uiso   1.00
C529   C     0.20843   0.15963   0.58915   0.00000  Uiso   1.00
C530   C     0.07891   0.14005   0.93642   0.00000  Uiso   1.00
C531   C     0.06560   0.12916   0.99074   0.00000  Uiso   1.00
C532   C     0.09976   0.12723   0.51704   0.00000  Uiso   1.00
H533   H     0.23191   0.03754   0.77125   0.00000  Uiso   1.00
H534   H     0.10112   0.03759   0.72954   0.00000  Uiso   1.00
H535   H     0.30932   0.12260   0.68633   0.00000  Uiso   1.00
H536   H     0.06015   0.12256   0.68638   0.00000  Uiso   1.00
H537   H     0.13664   0.14761   0.59211   0.00000  Uiso   1.00
H538   H     0.08711   0.12085   0.55984   0.00000  Uiso   1.00
H539   H     0.02854   0.12378   0.51319   0.00000  Uiso   1.00
H540   H     0.22169   0.11547   0.85904   0.00000  Uiso   1.00
H541   H     0.23186   0.29574   0.77137   0.00000  Uiso   1.00
N542   N     0.04760   0.16668   0.75002   0.00000  Uiso   1.00
N543   N     0.28573   0.16665   0.75001   0.00000  Uiso   1.00
O544   O     0.12846   0.22775   0.75001   0.00000  Uiso   1.00
O545   O     0.20490   0.22774   0.75001   0.00000  Uiso   1.00
O546   O     0.10947   0.16666   0.82681   0.00000  Uiso   1.00
O547   O     0.18591   0.16665   0.82681   0.00000  Uiso   1.00
O548   O     0.12843   0.10559   0.75000   0.00000  Uiso   1.00
O549   O     0.20488   0.10558   0.75000   0.00000  Uiso   1.00
O550   O     0.14742   0.16668   0.67319   0.00000  Uiso   1.00
O551   O     0.22387   0.16667   0.67319   0.00000  Uiso   1.00
Zn552  Zn    0.11562   0.16667   0.75000   0.00000  Uiso   1.00
Zn553  Zn    0.21771   0.16666   0.75000   0.00000  Uiso   1.00
Cl554  Cl    0.30164   0.18310   0.57921   0.00000  Uiso   1.00
H555   H     0.10099   0.29583   0.72980   0.00000  Uiso   1.00
Cl556  Cl    0.02836   0.22352   0.83191   0.00000  Uiso   1.00
H557   H     0.27276   0.21056   0.81355   0.00000  Uiso   1.00
H558   H     0.28303   0.12553   0.90040   0.00000  Uiso   1.00
H559   H     0.30529   0.15372   0.97601   0.00000  Uiso   1.00
H560   H     0.05154   0.14513   0.91775   0.00000  Uiso   1.00
C561   C     0.49994   0.24669   0.75019   0.00000  Uiso   1.00
C562   C     0.48206   0.13214   0.98762   0.00000  Uiso   1.00
C563   C     0.49563   0.13319   0.93085   0.00000  Uiso   1.00
C564   C     0.51805   0.13816   0.51202   0.00000  Uiso   1.00
C565   C     0.56671   0.13885   0.97962   0.00000  Uiso   1.00
C566   C     0.57925   0.12856   0.92506   0.00000  Uiso   1.00
C567   C     0.54388   0.12468   0.90107   0.00000  Uiso   1.00
C568   C     0.50667   0.14773   0.56667   0.00000  Uiso   1.00
C569   C     0.58973   0.16266   0.55594   0.00000  Uiso   1.00
C570   C     0.46065   0.14392   0.90639   0.00000  Uiso   1.00
C571   C     0.53668   0.31200   0.76202   0.00000  Uiso   1.00
C572   C     0.47454   0.16015   0.85087   0.00000  Uiso   1.00
C573   C     0.53673   0.02130   0.76193   0.00000  Uiso   1.00
C574   C     0.49992   0.04249   0.75026   0.00000  Uiso   1.00
C575   C     0.46297   0.02134   0.73891   0.00000  Uiso   1.00
C576   C     0.46289   0.31205   0.73905   0.00000  Uiso   1.00
C577   C     0.49981   0.29085   0.75046   0.00000  Uiso   1.00
C578   C     0.65275   0.14217   0.71465   0.00000  Uiso   1.00
C579   C     0.36734   0.14217   0.71466   0.00000  Uiso   1.00
C580   C     0.34694   0.19118   0.78547   0.00000  Uiso   1.00
C581   C     0.63246   0.19107   0.78536   0.00000  Uiso   1.00
C582   C     0.50001   0.08664   0.75000   0.00000  Uiso   1.00
C583   C     0.52621   0.16633   0.64768   0.00000  Uiso   1.00
C584   C     0.60194   0.15117   0.50167   0.00000  Uiso   1.00
C585   C     0.54176   0.15963   0.58915   0.00000  Uiso   1.00
C586   C     0.41224   0.14005   0.93642   0.00000  Uiso   1.00
C587   C     0.39893   0.12916   0.99074   0.00000  Uiso   1.00
C588   C     0.43309   0.12723   0.51704   0.00000  Uiso   1.00
H589   H     0.56525   0.03754   0.77125   0.00000  Uiso   1.00
H590   H     0.43446   0.03759   0.72954   0.00000  Uiso   1.00
H591   H     0.64265   0.12260   0.68633   0.00000  Uiso   1.00
H592   H     0.39348   0.12256   0.68638   0.00000  Uiso   1.00
H593   H     0.46997   0.14761   0.59211   0.00000  Uiso   1.00
H594   H     0.42044   0.12085   0.55984   0.00000  Uiso   1.00
H595   H     0.36188   0.12378   0.51319   0.00000  Uiso   1.00
H596   H     0.55503   0.11547   0.85904   0.00000  Uiso   1.00
H597   H     0.56519   0.29574   0.77137   0.00000  Uiso   1.00
N598   N     0.38093   0.16668   0.75002   0.00000  Uiso   1.00
N599   N     0.61906   0.16665   0.75001   0.00000  Uiso   1.00
O600   O     0.46179   0.22775   0.75001   0.00000  Uiso   1.00
O601   O     0.53823   0.22774   0.75001   0.00000  Uiso   1.00
O602   O     0.44280   0.16666   0.82681   0.00000  Uiso   1.00
O603   O     0.51924   0.16665   0.82681   0.00000  Uiso   1.00
O604   O     0.46177   0.10559   0.75000   0.00000  Uiso   1.00
O605   O     0.53821   0.10558   0.75000   0.00000  Uiso   1.00
O606   O     0.48076   0.16668   0.67319   0.00000  Uiso   1.00
O607   O     0.55720   0.16667   0.67319   0.00000  Uiso   1.00
Zn608  Zn    0.44896   0.16667   0.75000   0.00000  Uiso   1.00
Zn609  Zn    0.55104   0.16666   0.75000   0.00000  Uiso   1.00
Cl610  Cl    0.63497   0.18310   0.57921   0.00000  Uiso   1.00
H611   H     0.43432   0.29583   0.72980   0.00000  Uiso   1.00
Cl612  Cl    0.36169   0.22352   0.83191   0.00000  Uiso   1.00
H613   H     0.60609   0.21056   0.81355   0.00000  Uiso   1.00
H614   H     0.61637   0.12553   0.90040   0.00000  Uiso   1.00
H615   H     0.63862   0.15372   0.97601   0.00000  Uiso   1.00
H616   H     0.38487   0.14513   0.91775   0.00000  Uiso   1.00
C617   C     0.83327   0.24669   0.75019   0.00000  Uiso   1.00
C618   C     0.81539   0.13214   0.98762   0.00000  Uiso   1.00
C619   C     0.82897   0.13319   0.93085   0.00000  Uiso   1.00
C620   C     0.85138   0.13816   0.51202   0.00000  Uiso   1.00
C621   C     0.90004   0.13885   0.97962   0.00000  Uiso   1.00
C622   C     0.91259   0.12856   0.92506   0.00000  Uiso   1.00
C623   C     0.87721   0.12468   0.90107   0.00000  Uiso   1.00
C624   C     0.84001   0.14773   0.56667   0.00000  Uiso   1.00
C625   C     0.92307   0.16266   0.55594   0.00000  Uiso   1.00
C626   C     0.79398   0.14392   0.90639   0.00000  Uiso   1.00
C627   C     0.87001   0.31200   0.76202   0.00000  Uiso   1.00
C628   C     0.80787   0.16015   0.85087   0.00000  Uiso   1.00
C629   C     0.87006   0.02130   0.76193   0.00000  Uiso   1.00
C630   C     0.83326   0.04249   0.75026   0.00000  Uiso   1.00
C631   C     0.79630   0.02134   0.73891   0.00000  Uiso   1.00
C632   C     0.79623   0.31205   0.73905   0.00000  Uiso   1.00
C633   C     0.83315   0.29085   0.75046   0.00000  Uiso   1.00
C634   C     0.98608   0.14217   0.71465   0.00000  Uiso   1.00
C635   C     0.70067   0.14217   0.71466   0.00000  Uiso   1.00
C636   C     0.68028   0.19118   0.78547   0.00000  Uiso   1.00
C637   C     0.96580   0.19107   0.78536   0.00000  Uiso   1.00
C638   C     0.83334   0.08664   0.75000   0.00000  Uiso   1.00
C639   C     0.85954   0.16633   0.64768   0.00000  Uiso   1.00
C640   C     0.93528   0.15117   0.50167   0.00000  Uiso   1.00
C641   C     0.87510   0.15963   0.58915   0.00000  Uiso   1.00
C642   C     0.74557   0.14005   0.93642   0.00000  Uiso   1.00
C643   C     0.73227   0.12916   0.99074   0.00000  Uiso   1.00
C644   C     0.76642   0.12723   0.51704   0.00000  Uiso   1.00
H645   H     0.89858   0.03754   0.77125   0.00000  Uiso   1.00
H646   H     0.76779   0.03759   0.72954   0.00000  Uiso   1.00
H647   H     0.97599   0.12260   0.68633   0.00000  Uiso   1.00
H648   H     0.72682   0.12256   0.68638   0.00000  Uiso   1.00
H649   H     0.80330   0.14761   0.59211   0.00000  Uiso   1.00
H650   H     0.75377   0.12085   0.55984   0.00000  Uiso   1.00
H651   H     0.69521   0.12378   0.51319   0.00000  Uiso   1.00
H652   H     0.88836   0.11547   0.85904   0.00000  Uiso   1.00
H653   H     0.89853   0.29574   0.77137   0.00000  Uiso   1.00
N654   N     0.71426   0.16668   0.75002   0.00000  Uiso   1.00
N655   N     0.95239   0.16665   0.75001   0.00000  Uiso   1.00
O656   O     0.79512   0.22775   0.75001   0.00000  Uiso   1.00
O657   O     0.87157   0.22774   0.75001   0.00000  Uiso   1.00
O658   O     0.77613   0.16666   0.82681   0.00000  Uiso   1.00
O659   O     0.85258   0.16665   0.82681   0.00000  Uiso   1.00
O660   O     0.79510   0.10559   0.75000   0.00000  Uiso   1.00
O661   O     0.87154   0.10558   0.75000   0.00000  Uiso   1.00
O662   O     0.81409   0.16668   0.67319   0.00000  Uiso   1.00
O663   O     0.89053   0.16667   0.67319   0.00000  Uiso   1.00
Zn664  Zn    0.78229   0.16667   0.75000   0.00000  Uiso   1.00
Zn665  Zn    0.88438   0.16666   0.75000   0.00000  Uiso   1.00
Cl666  Cl    0.96831   0.18310   0.57921   0.00000  Uiso   1.00
H667   H     0.76766   0.29583   0.72980   0.00000  Uiso   1.00
Cl668  Cl    0.69503   0.22352   0.83191   0.00000  Uiso   1.00
H669   H     0.93942   0.21056   0.81355   0.00000  Uiso   1.00
H670   H     0.94970   0.12553   0.90040   0.00000  Uiso   1.00
H671   H     0.97196   0.15372   0.97601   0.00000  Uiso   1.00
H672   H     0.71821   0.14513   0.91775   0.00000  Uiso   1.00
C673   C     0.16660   0.58003   0.75019   0.00000  Uiso   1.00
C674   C     0.14873   0.46547   0.98762   0.00000  Uiso   1.00
C675   C     0.16230   0.46652   0.93085   0.00000  Uiso   1.00
C676   C     0.18471   0.47149   0.51202   0.00000  Uiso   1.00
C677   C     0.23338   0.47218   0.97962   0.00000  Uiso   1.00
C678   C     0.24592   0.46190   0.92506   0.00000  Uiso   1.00
C679   C     0.21055   0.45801   0.90107   0.00000  Uiso   1.00
C680   C     0.17334   0.48106   0.56667   0.00000  Uiso   1.00
C681   C     0.25640   0.49599   0.55594   0.00000  Uiso   1.00
C682   C     0.12731   0.47725   0.90639   0.00000  Uiso   1.00
C683   C     0.20334   0.64534   0.76202   0.00000  Uiso   1.00
C684   C     0.14120   0.49348   0.85087   0.00000  Uiso   1.00
C685   C     0.20339   0.35464   0.76193   0.00000  Uiso   1.00
C686   C     0.16659   0.37582   0.75026   0.00000  Uiso   1.00
C687   C     0.12963   0.35467   0.73891   0.00000  Uiso   1.00
C688   C     0.12956   0.64538   0.73905   0.00000  Uiso   1.00
C689   C     0.16648   0.62418   0.75046   0.00000  Uiso   1.00
C690   C     0.31941   0.47550   0.71465   0.00000  Uiso   1.00
C691   C     0.03401   0.47550   0.71466   0.00000  Uiso   1.00
C692   C     0.01361   0.52451   0.78547   0.00000  Uiso   1.00
C693   C     0.29913   0.52440   0.78536   0.00000  Uiso   1.00
C694   C     0.16667   0.41997   0.75000   0.00000  Uiso   1.00
C695   C     0.19287   0.49966   0.64768   0.00000  Uiso   1.00
C696   C     0.26861   0.48450   0.50167   0.00000  Uiso   1.00
C697   C     0.20843   0.49297   0.58915   0.00000  Uiso   1.00
C698   C     0.07891   0.47339   0.93642   0.00000  Uiso   1.00
C699   C     0.06560   0.46249   0.99074   0.00000  Uiso   1.00
C700   C     0.09976   0.46056   0.51704   0.00000  Uiso   1.00
H701   H     0.23191   0.37087   0.77125   0.00000  Uiso   1.00
H702   H     0.10112   0.37092   0.72954   0.00000  Uiso   1.00
H703   H     0.30932   0.45593   0.68633   0.00000  Uiso   1.00
H704   H     0.06015   0.45589   0.68638   0.00000  Uiso   1.00
H705   H     0.13664   0.48095   0.59211   0.00000  Uiso   1.00
H706   H     0.08711   0.45418   0.55984   0.00000  Uiso   1.00
H707   H     0.02854   0.45711   0.51319   0.00000  Uiso   1.00
H708   H     0.22169   0.44880   0.85904   0.00000  Uiso   1.00
H709   H     0.23186   0.62907   0.77137   0.00000  Uiso   1.00
N710   N     0.04760   0.50001   0.75002   0.00000  Uiso   1.00
N711   N     0.28573   0.49998   0.75001   0.00000  Uiso   1.00
O712   O     0.12846   0.56108   0.75001   0.00000  Uiso   1.00
O713   O     0.20490   0.56107   0.75001   0.00000  Uiso   1.00
O714   O     0.10947   0.50000   0.82681   0.00000  Uiso   1.00
O715   O     0.18591   0.49999   0.82681   0.00000  Uiso   1.00
O716   O     0.12843   0.43893   0.75000   0.00000  Uiso   1.00
O717   O     0.20488   0.43892   0.75000   0.00000  Uiso   1.00
O718   O     0.14742   0.50001   0.67319   0.00000  Uiso   1.00
O719   O     0.22387   0.50000   0.67319   0.00000  Uiso   1.00
Zn720  Zn    0.11562   0.50001   0.75000   0.00000  Uiso   1.00
Zn721  Zn    0.21771   0.49999   0.75000   0.00000  Uiso   1.00
Cl722  Cl    0.30164   0.51644   0.57921   0.00000  Uiso   1.00
H723   H     0.10099   0.62917   0.72980   0.00000  Uiso   1.00
Cl724  Cl    0.02836   0.55686   0.83191   0.00000  Uiso   1.00
H725   H     0.27276   0.54389   0.81355   0.00000  Uiso   1.00
H726   H     0.28303   0.45887   0.90040   0.00000  Uiso   1.00
H727   H     0.30529   0.48705   0.97601   0.00000  Uiso   1.00
H728   H     0.05154   0.47847   0.91775   0.00000  Uiso   1.00
C729   C     0.49994   0.58003   0.75019   0.00000  Uiso   1.00
C730   C     0.48206   0.46547   0.98762   0.00000  Uiso   1.00
C731   C     0.49563   0.46652   0.93085   0.00000  Uiso   1.00
C732   C     0.51805   0.47149   0.51202   0.00000  Uiso   1.00
C733   C     0.56671   0.47218   0.97962   0.00000  Uiso   1.00
C734   C     0.57925   0.46190   0.92506   0.00000  Uiso   1.00
C735   C     0.54388   0.45801   0.90107   0.00000  Uiso   1.00
C736   C     0.50667   0.48106   0.56667   0.00000  Uiso   1.00
C737   C     0.58973   0.49599   0.55594   0.00000  Uiso   1.00
C738   C     0.46065   0.47725   0.90639   0.00000  Uiso   1.00
C739   C     0.53668   0.64534   0.76202   0.00000  Uiso   1.00
C740   C     0.47454   0.49348   0.85087   0.00000  Uiso   1.00
C741   C     0.53673   0.35464   0.76193   0.00000  Uiso   1.00
C742   C     0.49992   0.37582   0.75026   0.00000  Uiso   1.00
C743   C     0.46297   0.35467   0.73891   0.00000  Uiso   1.00
C744   C     0.46289   0.64538   0.73905   0.00000  Uiso   1.00
C745   C     0.49981   0.62418   0.75046   0.00000  Uiso   1.00
C746   C     0.65275   0.47550   0.71465   0.00000  Uiso   1.00
C747   C     0.36734   0.47550   0.71466   0.00000  Uiso   1.00
C748   C     0.34694   0.52451   0.78547   0.00000  Uiso   1.00
C749   C     0.63246   0.52440   0.78536   0.00000  Uiso   1.00
C750   C     0.50001   0.41997   0.75000   0.00000  Uiso   1.00
C751   C     0.52621   0.49966   0.64768   0.00000  Uiso   1.00
C752   C     0.60194   0.48450   0.50167   0.00000  Uiso   1.00
C753   C     0.54176   0.49297   0.58915   0.00000  Uiso   1.00
C754   C     0.41224   0.47339   0.93642   0.00000  Uiso   1.00
C755   C     0.39893   0.46249   0.99074   0.00000  Uiso   1.00
C756   C     0.43309   0.46056   0.51704   0.00000  Uiso   1.00
H757   H     0.56525   0.37087   0.77125   0.00000  Uiso   1.00
H758   H     0.43446   0.37092   0.72954   0.00000  Uiso   1.00
H759   H     0.64265   0.45593   0.68633   0.00000  Uiso   1.00
H760   H     0.39348   0.45589   0.68638   0.00000  Uiso   1.00
H761   H     0.46997   0.48095   0.59211   0.00000  Uiso   1.00
H762   H     0.42044   0.45418   0.55984   0.00000  Uiso   1.00
H763   H     0.36188   0.45711   0.51319   0.00000  Uiso   1.00
H764   H     0.55503   0.44880   0.85904   0.00000  Uiso   1.00
H765   H     0.56519   0.62907   0.77137   0.00000  Uiso   1.00
N766   N     0.38093   0.50001   0.75002   0.00000  Uiso   1.00
N767   N     0.61906   0.49998   0.75001   0.00000  Uiso   1.00
O768   O     0.46179   0.56108   0.75001   0.00000  Uiso   1.00
O769   O     0.53823   0.56107   0.75001   0.00000  Uiso   1.00
O770   O     0.44280   0.50000   0.82681   0.00000  Uiso   1.00
O771   O     0.51924   0.49999   0.82681   0.00000  Uiso   1.00
O772   O     0.46177   0.43893   0.75000   0.00000  Uiso   1.00
O773   O     0.53821   0.43892   0.75000   0.00000  Uiso   1.00
O774   O     0.48076   0.50001   0.67319   0.00000  Uiso   1.00
O775   O     0.55720   0.50000   0.67319   0.00000  Uiso   1.00
Zn776  Zn    0.44896   0.50001   0.75000   0.00000  Uiso   1.00
Zn777  Zn    0.55104   0.49999   0.75000   0.00000  Uiso   1.00
Cl778  Cl    0.63497   0.51644   0.57921   0.00000  Uiso   1.00
H779   H     0.43432   0.62917   0.72980   0.00000  Uiso   1.00
Cl780  Cl    0.36169   0.55686   0.83191   0.00000  Uiso   1.00
H781   H     0.60609   0.54389   0.81355   0.00000  Uiso   1.00
H782   H     0.61637   0.45887   0.90040   0.00000  Uiso   1.00
H783   H     0.63862   0.48705   0.97601   0.00000  Uiso   1.00
H784   H     0.38487   0.47847   0.91775   0.00000  Uiso   1.00
C785   C     0.83327   0.58003   0.75019   0.00000  Uiso   1.00
C786   C     0.81539   0.46547   0.98762   0.00000  Uiso   1.00
C787   C     0.82897   0.46652   0.93085   0.00000  Uiso   1.00
C788   C     0.85138   0.47149   0.51202   0.00000  Uiso   1.00
C789   C     0.90004   0.47218   0.97962   0.00000  Uiso   1.00
C790   C     0.91259   0.46190   0.92506   0.00000  Uiso   1.00
C791   C     0.87721   0.45801   0.90107   0.00000  Uiso   1.00
C792   C     0.84001   0.48106   0.56667   0.00000  Uiso   1.00
C793   C     0.92307   0.49599   0.55594   0.00000  Uiso   1.00
C794   C     0.79398   0.47725   0.90639   0.00000  Uiso   1.00
C795   C     0.87001   0.64534   0.76202   0.00000  Uiso   1.00
C796   C     0.80787   0.49348   0.85087   0.00000  Uiso   1.00
C797   C     0.87006   0.35464   0.76193   0.00000  Uiso   1.00
C798   C     0.83326   0.37582   0.75026   0.00000  Uiso   1.00
C799   C     0.79630   0.35467   0.73891   0.00000  Uiso   1.00
C800   C     0.79623   0.64538   0.73905   0.00000  Uiso   1.00
C801   C     0.83315   0.62418   0.75046   0.00000  Uiso   1.00
C802   C     0.98608   0.47550   0.71465   0.00000  Uiso   1.00
C803   C     0.70067   0.47550   0.71466   0.00000  Uiso   1.00
C804   C     0.68028   0.52451   0.78547   0.00000  Uiso   1.00
C805   C     0.96580   0.52440   0.78536   0.00000  Uiso   1.00
C806   C     0.83334   0.41997   0.75000   0.00000  Uiso   1.00
C807   C     0.85954   0.49966   0.64768   0.00000  Uiso   1.00
C808   C     0.93528   0.48450   0.50167   0.00000  Uiso   1.00
C809   C     0.87510   0.49297   0.58915   0.00000  Uiso   1.00
C810   C     0.74557   0.47339   0.93642   0.00000  Uiso   1.00
C811   C     0.73227   0.46249   0.99074   0.00000  Uiso   1.00
C812   C     0.76642   0.46056   0.51704   0.00000  Uiso   1.00
H813   H     0.89858   0.37087   0.77125   0.00000  Uiso   1.00
H814   H     0.76779   0.37092   0.72954   0.00000  Uiso   1.00
H815   H     0.97599   0.45593   0.68633   0.00000  Uiso   1.00
H816   H     0.72682   0.45589   0.68638   0.00000  Uiso   1.00
H817   H     0.80330   0.48095   0.59211   0.00000  Uiso   1.00
H818   H     0.75377   0.45418   0.55984   0.00000  Uiso   1.00
H819   H     0.69521   0.45711   0.51319   0.00000  Uiso   1.00
H820   H     0.88836   0.44880   0.85904   0.00000  Uiso   1.00
H821   H     0.89853   0.62907   0.77137   0.00000  Uiso   1.00
N822   N     0.71426   0.50001   0.75002   0.00000  Uiso   1.00
N823   N     0.95239   0.49998   0.75001   0.00000  Uiso   1.00
O824   O     0.79512   0.56108   0.75001   0.00000  Uiso   1.00
O825   O     0.87157   0.56107   0.75001   0.00000  Uiso   1.00
O826   O     0.77613   0.50000   0.82681   0.00000  Uiso   1.00
O827   O     0.85258   0.49999   0.82681   0.00000  Uiso   1.00
O828   O     0.79510   0.43893   0.75000   0.00000  Uiso   1.00
O829   O     0.87154   0.43892   0.75000   0.00000  Uiso   1.00
O830   O     0.81409   0.50001   0.67319   0.00000  Uiso   1.00
O831   O     0.89053   0.50000   0.67319   0.00000  Uiso   1.00
Zn832  Zn    0.78229   0.50001   0.75000   0.00000  Uiso   1.00
Zn833  Zn    0.88438   0.49999   0.75000   0.00000  Uiso   1.00
Cl834  Cl    0.96831   0.51644   0.57921   0.00000  Uiso   1.00
H835   H     0.76766   0.62917   0.72980   0.00000  Uiso   1.00
Cl836  Cl    0.69503   0.55686   0.83191   0.00000  Uiso   1.00
H837   H     0.93942   0.54389   0.81355   0.00000  Uiso   1.00
H838   H     0.94970   0.45887   0.90040   0.00000  Uiso   1.00
H839   H     0.97196   0.48705   0.97601   0.00000  Uiso   1.00
H840   H     0.71821   0.47847   0.91775   0.00000  Uiso   1.00
C841   C     0.16660   0.91336   0.75019   0.00000  Uiso   1.00
C842   C     0.14873   0.79881   0.98762   0.00000  Uiso   1.00
C843   C     0.16230   0.79986   0.93085   0.00000  Uiso   1.00
C844   C     0.18471   0.80482   0.51202   0.00000  Uiso   1.00
C845   C     0.23338   0.80552   0.97962   0.00000  Uiso   1.00
C846   C     0.24592   0.79523   0.92506   0.00000  Uiso   1.00
C847   C     0.21055   0.79134   0.90107   0.00000  Uiso   1.00
C848   C     0.17334   0.81440   0.56667   0.00000  Uiso   1.00
C849   C     0.25640   0.82932   0.55594   0.00000  Uiso   1.00
C850   C     0.12731   0.81058   0.90639   0.00000  Uiso   1.00
C851   C     0.20334   0.97867   0.76202   0.00000  Uiso   1.00
C852   C     0.14120   0.82681   0.85087   0.00000  Uiso   1.00
C853   C     0.20339   0.68797   0.76193   0.00000  Uiso   1.00
C854   C     0.16659   0.70916   0.75026   0.00000  Uiso   1.00
C855   C     0.12963   0.68800   0.73891   0.00000  Uiso   1.00
C856   C     0.12956   0.97872   0.73905   0.00000  Uiso   1.00
C857   C     0.16648   0.95752   0.75046   0.00000  Uiso   1.00
C858   C     0.31941   0.80884   0.71465   0.00000  Uiso   1.00
C859   C     0.03401   0.80883   0.71466   0.00000  Uiso   1.00
C860   C     0.01361   0.85785   0.78547   0.00000  Uiso   1.00
C861   C     0.29913   0.85774   0.78536   0.00000  Uiso   1.00
C862   C     0.16667   0.75330   0.75000   0.00000  Uiso   1.00
C863   C     0.19287   0.83299   0.64768   0.00000  Uiso   1.00
C864   C     0.26861   0.81783   0.50167   0.00000  Uiso   1.00
C865   C     0.20843   0.82630   0.58915   0.00000  Uiso   1.00
C866   C     0.07891   0.80672   0.93642   0.00000  Uiso   1.00
C867   C     0.06560   0.79583   0.99074   0.00000  Uiso   1.00
C868   C     0.09976   0.79390   0.51704   0.00000  Uiso   1.00
H869   H     0.23191   0.70421   0.77125   0.00000  Uiso   1.00
H870   H     0.10112   0.70425   0.72954   0.00000  Uiso   1.00
H871   H     0.30932   0.78926   0.68633   0.00000  Uiso   1.00
H872   H     0.06015   0.78923   0.68638   0.00000  Uiso   1.00
H873   H     0.13664   0.81428   0.59211   0.00000  Uiso   1.00
H874   H     0.08711   0.78751   0.55984   0.00000  Uiso   1.00
H875   H     0.02854   0.79045   0.51319   0.00000  Uiso   1.00
H876   H     0.22169   0.78213   0.85904   0.00000  Uiso   1.00
H877   H     0.23186   0.96241   0.77137   0.00000  Uiso   1.00
N878   N     0.04760   0.83334   0.75002   0.00000  Uiso   1.00
N879   N     0.28573   0.83331   0.75001   0.00000  Uiso   1.00
O880   O     0.12846   0.89442   0.75001   0.00000  Uiso   1.00
O881   O     0.20490   0.89441   0.75001   0.00000  Uiso   1.00
O882   O     0.10947   0.83333   0.82681   0.00000  Uiso   1.00
O883   O     0.18591   0.83332   0.82681   0.00000  Uiso   1.00
O884   O     0.12843   0.77226   0.75000   0.00000  Uiso   1.00
O885   O     0.20488   0.77225   0.75000   0.00000  Uiso   1.00
O886   O     0.14742   0.83335   0.67319   0.00000  Uiso   1.00
O887   O     0.22387   0.83334   0.67319   0.00000  Uiso   1.00
Zn888  Zn    0.11562   0.83334   0.75000   0.00000  Uiso   1.00
Zn889  Zn    0.21771   0.83333   0.75000   0.00000  Uiso   1.00
Cl890  Cl    0.30164   0.84977   0.57921   0.00000  Uiso   1.00
H891   H     0.10099   0.96250   0.72980   0.00000  Uiso   1.00
Cl892  Cl    0.02836   0.89019   0.83191   0.00000  Uiso   1.00
H893   H     0.27276   0.87722   0.81355   0.00000  Uiso   1.00
H894   H     0.28303   0.79220   0.90040   0.00000  Uiso   1.00
H895   H     0.30529   0.82038   0.97601   0.00000  Uiso   1.00
H896   H     0.05154   0.81180   0.91775   0.00000  Uiso   1.00
C897   C     0.49994   0.91336   0.75019   0.00000  Uiso   1.00
C898   C     0.48206   0.79881   0.98762   0.00000  Uiso   1.00
C899   C     0.49563   0.79986   0.93085   0.00000  Uiso   1.00
C900   C     0.51805   0.80482   0.51202   0.00000  Uiso   1.00
C901   C     0.56671   0.80552   0.97962   0.00000  Uiso   1.00
C902   C     0.57925   0.79523   0.92506   0.00000  Uiso   1.00
C903   C     0.54388   0.79134   0.90107   0.00000  Uiso   1.00
C904   C     0.50667   0.81440   0.56667   0.00000  Uiso   1.00
C905   C     0.58973   0.82932   0.55594   0.00000  Uiso   1.00
C906   C     0.46065   0.81058   0.90639   0.00000  Uiso   1.00
C907   C     0.53668   0.97867   0.76202   0.00000  Uiso   1.00
C908   C     0.47454   0.82681   0.85087   0.00000  Uiso   1.00
C909   C     0.53673   0.68797   0.76193   0.00000  Uiso   1.00
C910   C     0.49992   0.70916   0.75026   0.00000  Uiso   1.00
C911   C     0.46297   0.68800   0.73891   0.00000  Uiso   1.00
C912   C     0.46289   0.97872   0.73905   0.00000  Uiso   1.00
C913   C     0.49981   0.95752   0.75046   0.00000  Uiso   1.00
C914   C     0.65275   0.80884   0.71465   0.00000  Uiso   1.00
C915   C     0.36734   0.80883   0.71466   0.00000  Uiso   1.00
C916   C     0.34694   0.85785   0.78547   0.00000  Uiso   1.00
C917   C     0.63246   0.85774   0.78536   0.00000  Uiso   1.00
C918   C     0.50001   0.75330   0.75000   0.00000  Uiso   1.00
C919   C     0.52621   0.83299   0.64768   0.00000  Uiso   1.00
C920   C     0.60194   0.81783   0.50167   0.00000  Uiso   1.00
C921   C     0.54176   0.82630   0.58915   0.00000  Uiso   1.00
C922   C     0.41224   0.80672   0.93642   0.00000  Uiso   1.00
C923   C     0.39893   0.79583   0.99074   0.00000  Uiso   1.00
C924   C     0.43309   0.79390   0.51704   0.00000  Uiso   1.00
H925   H     0.56525   0.70421   0.77125   0.00000  Uiso   1.00
H926   H     0.43446   0.70425   0.72954   0.00000  Uiso   1.00
H927   H     0.64265   0.78926   0.68633   0.00000  Uiso   1.00
H928   H     0.39348   0.78923   0.68638   0.00000  Uiso   1.00
H929   H     0.46997   0.81428   0.59211   0.00000  Uiso   1.00
H930   H     0.42044   0.78751   0.55984   0.00000  Uiso   1.00
H931   H     0.36188   0.79045   0.51319   0.00000  Uiso   1.00
H932   H     0.55503   0.78213   0.85904   0.00000  Uiso   1.00
H933   H     0.56519   0.96241   0.77137   0.00000  Uiso   1.00
N934   N     0.38093   0.83334   0.75002   0.00000  Uiso   1.00
N935   N     0.61906   0.83331   0.75001   0.00000  Uiso   1.00
O936   O     0.46179   0.89442   0.75001   0.00000  Uiso   1.00
O937   O     0.53823   0.89441   0.75001   0.00000  Uiso   1.00
O938   O     0.44280   0.83333   0.82681   0.00000  Uiso   1.00
O939   O     0.51924   0.83332   0.82681   0.00000  Uiso   1.00
O940   O     0.46177   0.77226   0.75000   0.00000  Uiso   1.00
O941   O     0.53821   0.77225   0.75000   0.00000  Uiso   1.00
O942   O     0.48076   0.83335   0.67319   0.00000  Uiso   1.00
O943   O     0.55720   0.83334   0.67319   0.00000  Uiso   1.00
Zn944  Zn    0.44896   0.83334   0.75000   0.00000  Uiso   1.00
Zn945  Zn    0.55104   0.83333   0.75000   0.00000  Uiso   1.00
Cl946  Cl    0.63497   0.84977   0.57921   0.00000  Uiso   1.00
H947   H     0.43432   0.96250   0.72980   0.00000  Uiso   1.00
Cl948  Cl    0.36169   0.89019   0.83191   0.00000  Uiso   1.00
H949   H     0.60609   0.87722   0.81355   0.00000  Uiso   1.00
H950   H     0.61637   0.79220   0.90040   0.00000  Uiso   1.00
H951   H     0.63862   0.82038   0.97601   0.00000  Uiso   1.00
H952   H     0.38487   0.81180   0.91775   0.00000  Uiso   1.00
C953   C     0.83327   0.91336   0.75019   0.00000  Uiso   1.00
C954   C     0.81539   0.79881   0.98762   0.00000  Uiso   1.00
C955   C     0.82897   0.79986   0.93085   0.00000  Uiso   1.00
C956   C     0.85138   0.80482   0.51202   0.00000  Uiso   1.00
C957   C     0.90004   0.80552   0.97962   0.00000  Uiso   1.00
C958   C     0.91259   0.79523   0.92506   0.00000  Uiso   1.00
C959   C     0.87721   0.79134   0.90107   0.00000  Uiso   1.00
C960   C     0.84001   0.81440   0.56667   0.00000  Uiso   1.00
C961   C     0.92307   0.82932   0.55594   0.00000  Uiso   1.00
C962   C     0.79398   0.81058   0.90639   0.00000  Uiso   1.00
C963   C     0.87001   0.97867   0.76202   0.00000  Uiso   1.00
C964   C     0.80787   0.82681   0.85087   0.00000  Uiso   1.00
C965   C     0.87006   0.68797   0.76193   0.00000  Uiso   1.00
C966   C     0.83326   0.70916   0.75026   0.00000  Uiso   1.00
C967   C     0.79630   0.68800   0.73891   0.00000  Uiso   1.00
C968   C     0.79623   0.97872   0.73905   0.00000  Uiso   1.00
C969   C     0.83315   0.95752   0.75046   0.00000  Uiso   1.00
C970   C     0.98608   0.80884   0.71465   0.00000  Uiso   1.00
C971   C     0.70067   0.80883   0.71466   0.00000  Uiso   1.00
C972   C     0.68028   0.85785   0.78547   0.00000  Uiso   1.00
C973   C     0.96580   0.85774   0.78536   0.00000  Uiso   1.00
C974   C     0.83334   0.75330   0.75000   0.00000  Uiso   1.00
C975   C     0.85954   0.83299   0.64768   0.00000  Uiso   1.00
C976   C     0.93528   0.81783   0.50167   0.00000  Uiso   1.00
C977   C     0.87510   0.82630   0.58915   0.00000  Uiso   1.00
C978   C     0.74557   0.80672   0.93642   0.00000  Uiso   1.00
C979   C     0.73227   0.79583   0.99074   0.00000  Uiso   1.00
C980   C     0.76642   0.79390   0.51704   0.00000  Uiso   1.00
H981   H     0.89858   0.70421   0.77125   0.00000  Uiso   1.00
H982   H     0.76779   0.70425   0.72954   0.00000  Uiso   1.00
H983   H     0.97599   0.78926   0.68633   0.00000  Uiso   1.00
H984   H     0.72682   0.78923   0.68638   0.00000  Uiso   1.00
H985   H     0.80330   0.81428   0.59211   0.00000  Uiso   1.00
H986   H     0.75377   0.78751   0.55984   0.00000  Uiso   1.00
H987   H     0.69521   0.79045   0.51319   0.00000  Uiso   1.00
H988   H     0.88836   0.78213   0.85904   0.00000  Uiso   1.00
H989   H     0.89853   0.96241   0.77137   0.00000  Uiso   1.00
N990   N     0.71426   0.83334   0.75002   0.00000  Uiso   1.00
N991   N     0.95239   0.83331   0.75001   0.00000  Uiso   1.00
O992   O     0.79512   0.89442   0.75001   0.00000  Uiso   1.00
O993   O     0.87157   0.89441   0.75001   0.00000  Uiso   1.00
O994   O     0.77613   0.83333   0.82681   0.00000  Uiso   1.00
O995   O     0.85258   0.83332   0.82681   0.00000  Uiso   1.00
O996   O     0.79510   0.77226   0.75000   0.00000  Uiso   1.00
O997   O     0.87154   0.77225   0.75000   0.00000  Uiso   1.00
O998   O     0.81409   0.83335   0.67319   0.00000  Uiso   1.00
O999   O     0.89053   0.83334   0.67319   0.00000  Uiso   1.00
Zn1000 Zn    0.78229   0.83334   0.75000   0.00000  Uiso   1.00
Zn1001 Zn    0.88438   0.83333   0.75000   0.00000  Uiso   1.00
Cl1002 Cl    0.96831   0.84977   0.57921   0.00000  Uiso   1.00
H1003  H     0.76766   0.96250   0.72980   0.00000  Uiso   1.00
Cl1004 Cl    0.69503   0.89019   0.83191   0.00000  Uiso   1.00
H1005  H     0.93942   0.87722   0.81355   0.00000  Uiso   1.00
H1006  H     0.94970   0.79220   0.90040   0.00000  Uiso   1.00
H1007  H     0.97196   0.82038   0.97601   0.00000  Uiso   1.00
H1008  H     0.71821   0.81180   0.91775   0.00000  Uiso   1.00
loop_
_geom_bond_atom_site_label_1
_geom_bond_atom_site_label_2
_geom_bond_distance
_geom_bond_site_symmetry_2
_ccdc_geom_bond_type
C1     C17     1.419   .     S
C1     O40     1.284   .     A
C1     O41     1.284   .     A
C2     C3      1.407   .     A
C2     C508    1.417   .     S
C2     C532    1.415   .     S
C3     C10     1.421   .     A
C3     C7      1.415   .     A
C4     C8      1.391   .     A
C4     C506    1.417   1_554 S
C4     C509    1.417   1_554 S
C5     C6      1.391   .     A
C5     C508    1.417   .     S
C5     C528    1.399   .     S
C6     C7      1.386   .     A
C6     H54     1.084   .     S
C7     H36     1.080   .     S
C8     C25     1.399   .     A
C8     H33     1.076   .     S
C9     C24     1.394   .     A
C9     C25     1.410   .     A
C9     Cl50    1.764   .     S
C10    C26     1.401   .     A
C10    C12     1.472   .     S
C11    H37     1.084   .     S
C11    C17     1.397   .     A
C11    C181    1.370   .     S
C12    O43     1.287   .     A
C12    O42     1.302   .     A
C13    C14     1.397   .     A
C13    H29     1.084   .     S
C13    C347    1.370   1_545 S
C14    C22     1.419   .     S
C14    C15     1.397   .     A
C15    H30     1.084   .     S
C15    C352    1.370   1_545 S
C16    H51     1.084   .     S
C16    C17     1.397   .     A
C16    C183    1.370   .     S
C18    N39     1.367   .     A
C18    H31     1.082   .     S
C18    C75     1.417   .     S
C19    N38     1.367   .     A
C19    H32     1.082   .     S
C19    C130    1.417   1_455 S
C20    N38     1.373   .     A
C20    Cl52    1.753   .     S
C20    C133    1.415   1_455 S
C21    N39     1.362   .     A
C21    H53     1.082   .     S
C21    C76     1.415   .     S
C22    O44     1.284   .     A
C22    O45     1.284   .     A
C23    C25     1.463   .     S
C23    O47     1.294   .     A
C23    O46     1.295   .     A
C24    C509    1.399   1_554 S
C24    H559    1.081   1_554 S
C26    C27     1.391   .     A
C26    H56     1.082   .     S
C27    C532    1.392   .     S
C27    H539    1.079   .     S
C28    H34     1.079   .     S
C28    C506    1.415   1_554 S
C28    C531    1.392   1_554 S
H35    C531    1.079   1_554 S
N38    Zn48    2.011   .     S
N39    Zn49    2.011   .     S
O40    Zn48    2.000   .     S
O41    Zn49    1.999   .     S
O42    Zn48    1.955   .     S
O43    Zn49    1.923   .     S
O44    Zn48    1.999   .     S
O45    Zn49    2.000   .     S
O46    Zn48    1.923   .     S
O47    Zn49    1.955   .     S
H55    C528    1.081   .     S
C57    C73     1.419   .     S
C57    O96     1.284   .     A
C57    O97     1.284   .     A
C58    C59     1.407   .     A
C58    C564    1.417   .     S
C58    C588    1.415   .     S
C59    C66     1.421   .     A
C59    C63     1.415   .     A
C60    C64     1.391   .     A
C60    C562    1.417   1_554 S
C60    C565    1.417   1_554 S
C61    C62     1.391   .     A
C61    C564    1.417   .     S
C61    C584    1.399   .     S
C62    C63     1.386   .     A
C62    H110    1.084   .     S
C63    H92     1.080   .     S
C64    C81     1.399   .     A
C64    H89     1.076   .     S
C65    C80     1.394   .     A
C65    C81     1.410   .     A
C65    Cl106   1.764   .     S
C66    C82     1.401   .     A
C66    C68     1.472   .     S
C67    H93     1.084   .     S
C67    C73     1.397   .     A
C67    C237    1.370   .     S
C68    O99     1.287   .     A
C68    O98     1.302   .     A
C69    C70     1.397   .     A
C69    H85     1.084   .     S
C69    C403    1.370   1_545 S
C70    C78     1.419   .     S
C70    C71     1.397   .     A
C71    H86     1.084   .     S
C71    C408    1.370   1_545 S
C72    H107    1.084   .     S
C72    C73     1.397   .     A
C72    C239    1.370   .     S
C74    N95     1.367   .     A
C74    H87     1.082   .     S
C74    C131    1.417   .     S
C75    N94     1.367   .     A
C75    H88     1.082   .     S
C76    N94     1.373   .     A
C76    Cl108   1.753   .     S
C77    N95     1.362   .     A
C77    H109    1.082   .     S
C77    C132    1.415   .     S
C78    O100    1.284   .     A
C78    O101    1.284   .     A
C79    C81     1.463   .     S
C79    O103    1.294   .     A
C79    O102    1.295   .     A
C80    C565    1.399   1_554 S
C80    H615    1.081   1_554 S
C82    C83     1.391   .     A
C82    H112    1.082   .     S
C83    C588    1.392   .     S
C83    H595    1.079   .     S
C84    H90     1.079   .     S
C84    C562    1.415   1_554 S
C84    C587    1.392   1_554 S
H91    C587    1.079   1_554 S
N94    Zn104   2.011   .     S
N95    Zn105   2.011   .     S
O96    Zn104   2.000   .     S
O97    Zn105   1.999   .     S
O98    Zn104   1.955   .     S
O99    Zn105   1.923   .     S
O100   Zn104   1.999   .     S
O101   Zn105   2.000   .     S
O102   Zn104   1.923   .     S
O103   Zn105   1.955   .     S
H111   C584    1.081   .     S
C113   C129    1.419   .     S
C113   O152    1.284   .     A
C113   O153    1.284   .     A
C114   C115    1.407   .     A
C114   C620    1.417   .     S
C114   C644    1.415   .     S
C115   C122    1.421   .     A
C115   C119    1.415   .     A
C116   C120    1.391   .     A
C116   C618    1.417   1_554 S
C116   C621    1.417   1_554 S
C117   C118    1.391   .     A
C117   C620    1.417   .     S
C117   C640    1.399   .     S
C118   C119    1.386   .     A
C118   H166    1.084   .     S
C119   H148    1.080   .     S
C120   C137    1.399   .     A
C120   H145    1.076   .     S
C121   C136    1.394   .     A
C121   C137    1.410   .     A
C121   Cl162   1.764   .     S
C122   C138    1.401   .     A
C122   C124    1.472   .     S
C123   H149    1.084   .     S
C123   C129    1.397   .     A
C123   C293    1.370   .     S
C124   O155    1.287   .     A
C124   O154    1.302   .     A
C125   C126    1.397   .     A
C125   H141    1.084   .     S
C125   C459    1.370   1_545 S
C126   C134    1.419   .     S
C126   C127    1.397   .     A
C127   H142    1.084   .     S
C127   C464    1.370   1_545 S
C128   H163    1.084   .     S
C128   C129    1.397   .     A
C128   C295    1.370   .     S
C130   N151    1.367   .     A
C130   H143    1.082   .     S
C130   C19     1.417   1_655 S
C131   N150    1.367   .     A
C131   H144    1.082   .     S
C132   N150    1.373   .     A
C132   Cl164   1.753   .     S
C133   N151    1.362   .     A
C133   H165    1.082   .     S
C133   C20     1.415   1_655 S
C134   O156    1.284   .     A
C134   O157    1.284   .     A
C135   C137    1.463   .     S
C135   O159    1.294   .     A
C135   O158    1.295   .     A
C136   C621    1.399   1_554 S
C136   H671    1.081   1_554 S
C138   C139    1.391   .     A
C138   H168    1.082   .     S
C139   C644    1.392   .     S
C139   H651    1.079   .     S
C140   H146    1.079   .     S
C140   C618    1.415   1_554 S
C140   C643    1.392   1_554 S
H147   C643    1.079   1_554 S
N150   Zn160   2.011   .     S
N151   Zn161   2.011   .     S
O152   Zn160   2.000   .     S
O153   Zn161   1.999   .     S
O154   Zn160   1.955   .     S
O155   Zn161   1.923   .     S
O156   Zn160   1.999   .     S
O157   Zn161   2.000   .     S
O158   Zn160   1.923   .     S
O159   Zn161   1.955   .     S
H167   C640    1.081   .     S
C169   C185    1.419   .     S
C169   O208    1.284   .     A
C169   O209    1.284   .     A
C170   C171    1.407   .     A
C170   C676    1.417   .     S
C170   C700    1.415   .     S
C171   C178    1.421   .     A
C171   C175    1.415   .     A
C172   C176    1.391   .     A
C172   C674    1.417   1_554 S
C172   C677    1.417   1_554 S
C173   C174    1.391   .     A
C173   C676    1.417   .     S
C173   C696    1.399   .     S
C174   C175    1.386   .     A
C174   H222    1.084   .     S
C175   H204    1.080   .     S
C176   C193    1.399   .     A
C176   H201    1.076   .     S
C177   C192    1.394   .     A
C177   C193    1.410   .     A
C177   Cl218   1.764   .     S
C178   C194    1.401   .     A
C178   C180    1.472   .     S
C179   H205    1.084   .     S
C179   C185    1.397   .     A
C179   C349    1.370   .     S
C180   O211    1.287   .     A
C180   O210    1.302   .     A
C181   C182    1.397   .     A
C181   H197    1.084   .     S
C182   C190    1.419   .     S
C182   C183    1.397   .     A
C183   H198    1.084   .     S
C184   H219    1.084   .     S
C184   C185    1.397   .     A
C184   C351    1.370   .     S
C186   N207    1.367   .     A
C186   H199    1.082   .     S
C186   C243    1.417   .     S
C187   N206    1.367   .     A
C187   H200    1.082   .     S
C187   C298    1.417   1_455 S
C188   N206    1.373   .     A
C188   Cl220   1.753   .     S
C188   C301    1.415   1_455 S
C189   N207    1.362   .     A
C189   H221    1.082   .     S
C189   C244    1.415   .     S
C190   O212    1.284   .     A
C190   O213    1.284   .     A
C191   C193    1.463   .     S
C191   O215    1.294   .     A
C191   O214    1.295   .     A
C192   C677    1.399   1_554 S
C192   H727    1.081   1_554 S
C194   C195    1.391   .     A
C194   H224    1.082   .     S
C195   C700    1.392   .     S
C195   H707    1.079   .     S
C196   H202    1.079   .     S
C196   C674    1.415   1_554 S
C196   C699    1.392   1_554 S
H203   C699    1.079   1_554 S
N206   Zn216   2.011   .     S
N207   Zn217   2.011   .     S
O208   Zn216   2.000   .     S
O209   Zn217   1.999   .     S
O210   Zn216   1.955   .     S
O211   Zn217   1.923   .     S
O212   Zn216   1.999   .     S
O213   Zn217   2.000   .     S
O214   Zn216   1.923   .     S
O215   Zn217   1.955   .     S
H223   C696    1.081   .     S
C225   C241    1.419   .     S
C225   O264    1.284   .     A
C225   O265    1.284   .     A
C226   C227    1.407   .     A
C226   C732    1.417   .     S
C226   C756    1.415   .     S
C227   C234    1.421   .     A
C227   C231    1.415   .     A
C228   C232    1.391   .     A
C228   C730    1.417   1_554 S
C228   C733    1.417   1_554 S
C229   C230    1.391   .     A
C229   C732    1.417   .     S
C229   C752    1.399   .     S
C230   C231    1.386   .     A
C230   H278    1.084   .     S
C231   H260    1.080   .     S
C232   C249    1.399   .     A
C232   H257    1.076   .     S
C233   C248    1.394   .     A
C233   C249    1.410   .     A
C233   Cl274   1.764   .     S
C234   C250    1.401   .     A
C234   C236    1.472   .     S
C235   H261    1.084   .     S
C235   C241    1.397   .     A
C235   C405    1.370   .     S
C236   O267    1.287   .     A
C236   O266    1.302   .     A
C237   C238    1.397   .     A
C237   H253    1.084   .     S
C238   C246    1.419   .     S
C238   C239    1.397   .     A
C239   H254    1.084   .     S
C240   H275    1.084   .     S
C240   C241    1.397   .     A
C240   C407    1.370   .     S
C242   N263    1.367   .     A
C242   H255    1.082   .     S
C242   C299    1.417   .     S
C243   N262    1.367   .     A
C243   H256    1.082   .     S
C244   N262    1.373   .     A
C244   Cl276   1.753   .     S
C245   N263    1.362   .     A
C245   H277    1.082   .     S
C245   C300    1.415   .     S
C246   O268    1.284   .     A
C246   O269    1.284   .     A
C247   C249    1.463   .     S
C247   O271    1.294   .     A
C247   O270    1.295   .     A
C248   C733    1.399   1_554 S
C248   H783    1.081   1_554 S
C250   C251    1.391   .     A
C250   H280    1.082   .     S
C251   C756    1.392   .     S
C251   H763    1.079   .     S
C252   H258    1.079   .     S
C252   C730    1.415   1_554 S
C252   C755    1.392   1_554 S
H259   C755    1.079   1_554 S
N262   Zn272   2.011   .     S
N263   Zn273   2.011   .     S
O264   Zn272   2.000   .     S
O265   Zn273   1.999   .     S
O266   Zn272   1.955   .     S
O267   Zn273   1.923   .     S
O268   Zn272   1.999   .     S
O269   Zn273   2.000   .     S
O270   Zn272   1.923   .     S
O271   Zn273   1.955   .     S
H279   C752    1.081   .     S
C281   C297    1.419   .     S
C281   O320    1.284   .     A
C281   O321    1.284   .     A
C282   C283    1.407   .     A
C282   C788    1.417   .     S
C282   C812    1.415   .     S
C283   C290    1.421   .     A
C283   C287    1.415   .     A
C284   C288    1.391   .     A
C284   C786    1.417   1_554 S
C284   C789    1.417   1_554 S
C285   C286    1.391   .     A
C285   C788    1.417   .     S
C285   C808    1.399   .     S
C286   C287    1.386   .     A
C286   H334    1.084   .     S
C287   H316    1.080   .     S
C288   C305    1.399   .     A
C288   H313    1.076   .     S
C289   C304    1.394   .     A
C289   C305    1.410   .     A
C289   Cl330   1.764   .     S
C290   C306    1.401   .     A
C290   C292    1.472   .     S
C291   H317    1.084   .     S
C291   C297    1.397   .     A
C291   C461    1.370   .     S
C292   O323    1.287   .     A
C292   O322    1.302   .     A
C293   C294    1.397   .     A
C293   H309    1.084   .     S
C294   C302    1.419   .     S
C294   C295    1.397   .     A
C295   H310    1.084   .     S
C296   H331    1.084   .     S
C296   C297    1.397   .     A
C296   C463    1.370   .     S
C298   N319    1.367   .     A
C298   H311    1.082   .     S
C298   C187    1.417   1_655 S
C299   N318    1.367   .     A
C299   H312    1.082   .     S
C300   N318    1.373   .     A
C300   Cl332   1.753   .     S
C301   N319    1.362   .     A
C301   H333    1.082   .     S
C301   C188    1.415   1_655 S
C302   O324    1.284   .     A
C302   O325    1.284   .     A
C303   C305    1.463   .     S
C303   O327    1.294   .     A
C303   O326    1.295   .     A
C304   C789    1.399   1_554 S
C304   H839    1.081   1_554 S
C306   C307    1.391   .     A
C306   H336    1.082   .     S
C307   C812    1.392   .     S
C307   H819    1.079   .     S
C308   H314    1.079   .     S
C308   C786    1.415   1_554 S
C308   C811    1.392   1_554 S
H315   C811    1.079   1_554 S
N318   Zn328   2.011   .     S
N319   Zn329   2.011   .     S
O320   Zn328   2.000   .     S
O321   Zn329   1.999   .     S
O322   Zn328   1.955   .     S
O323   Zn329   1.923   .     S
O324   Zn328   1.999   .     S
O325   Zn329   2.000   .     S
O326   Zn328   1.923   .     S
O327   Zn329   1.955   .     S
H335   C808    1.081   .     S
C337   C353    1.419   .     S
C337   O376    1.284   .     A
C337   O377    1.284   .     A
C338   C339    1.407   .     A
C338   C844    1.417   .     S
C338   C868    1.415   .     S
C339   C346    1.421   .     A
C339   C343    1.415   .     A
C340   C344    1.391   .     A
C340   C842    1.417   1_554 S
C340   C845    1.417   1_554 S
C341   C342    1.391   .     A
C341   C844    1.417   .     S
C341   C864    1.399   .     S
C342   C343    1.386   .     A
C342   H390    1.084   .     S
C343   H372    1.080   .     S
C344   C361    1.399   .     A
C344   H369    1.076   .     S
C345   C360    1.394   .     A
C345   C361    1.410   .     A
C345   Cl386   1.764   .     S
C346   C362    1.401   .     A
C346   C348    1.472   .     S
C347   H373    1.084   .     S
C347   C353    1.397   .     A
C347   C13     1.370   1_565 S
C348   O379    1.287   .     A
C348   O378    1.302   .     A
C349   C350    1.397   .     A
C349   H365    1.084   .     S
C350   C358    1.419   .     S
C350   C351    1.397   .     A
C351   H366    1.084   .     S
C352   H387    1.084   .     S
C352   C353    1.397   .     A
C352   C15     1.370   1_565 S
C354   N375    1.367   .     A
C354   H367    1.082   .     S
C354   C411    1.417   .     S
C355   N374    1.367   .     A
C355   H368    1.082   .     S
C355   C466    1.417   1_455 S
C356   N374    1.373   .     A
C356   Cl388   1.753   .     S
C356   C469    1.415   1_455 S
C357   N375    1.362   .     A
C357   H389    1.082   .     S
C357   C412    1.415   .     S
C358   O380    1.284   .     A
C358   O381    1.284   .     A
C359   C361    1.463   .     S
C359   O383    1.294   .     A
C359   O382    1.295   .     A
C360   C845    1.399   1_554 S
C360   H895    1.081   1_554 S
C362   C363    1.391   .     A
C362   H392    1.082   .     S
C363   C868    1.392   .     S
C363   H875    1.079   .     S
C364   H370    1.079   .     S
C364   C842    1.415   1_554 S
C364   C867    1.392   1_554 S
H371   C867    1.079   1_554 S
N374   Zn384   2.011   .     S
N375   Zn385   2.011   .     S
O376   Zn384   2.000   .     S
O377   Zn385   1.999   .     S
O378   Zn384   1.955   .     S
O379   Zn385   1.923   .     S
O380   Zn384   1.999   .     S
O381   Zn385   2.000   .     S
O382   Zn384   1.923   .     S
O383   Zn385   1.955   .     S
H391   C864    1.081   .     S
C393   C409    1.419   .     S
C393   O432    1.284   .     A
C393   O433    1.284   .     A
C394   C395    1.407   .     A
C394   C900    1.417   .     S
C394   C924    1.415   .     S
C395   C402    1.421   .     A
C395   C399    1.415   .     A
C396   C400    1.391   .     A
C396   C898    1.417   1_554 S
C396   C901    1.417   1_554 S
C397   C398    1.391   .     A
C397   C900    1.417   .     S
C397   C920    1.399   .     S
C398   C399    1.386   .     A
C398   H446    1.084   .     S
C399   H428    1.080   .     S
C400   C417    1.399   .     A
C400   H425    1.076   .     S
C401   C416    1.394   .     A
C401   C417    1.410   .     A
C401   Cl442   1.764   .     S
C402   C418    1.401   .     A
C402   C404    1.472   .     S
C403   H429    1.084   .     S
C403   C409    1.397   .     A
C403   C69     1.370   1_565 S
C404   O435    1.287   .     A
C404   O434    1.302   .     A
C405   C406    1.397   .     A
C405   H421    1.084   .     S
C406   C414    1.419   .     S
C406   C407    1.397   .     A
C407   H422    1.084   .     S
C408   H443    1.084   .     S
C408   C409    1.397   .     A
C408   C71     1.370   1_565 S
C410   N431    1.367   .     A
C410   H423    1.082   .     S
C410   C467    1.417   .     S
C411   N430    1.367   .     A
C411   H424    1.082   .     S
C412   N430    1.373   .     A
C412   Cl444   1.753   .     S
C413   N431    1.362   .     A
C413   H445    1.082   .     S
C413   C468    1.415   .     S
C414   O436    1.284   .     A
C414   O437    1.284   .     A
C415   C417    1.463   .     S
C415   O439    1.294   .     A
C415   O438    1.295   .     A
C416   C901    1.399   1_554 S
C416   H951    1.081   1_554 S
C418   C419    1.391   .     A
C418   H448    1.082   .     S
C419   C924    1.392   .     S
C419   H931    1.079   .     S
C420   H426    1.079   .     S
C420   C898    1.415   1_554 S
C420   C923    1.392   1_554 S
H427   C923    1.079   1_554 S
N430   Zn440   2.011   .     S
N431   Zn441   2.011   .     S
O432   Zn440   2.000   .     S
O433   Zn441   1.999   .     S
O434   Zn440   1.955   .     S
O435   Zn441   1.923   .     S
O436   Zn440   1.999   .     S
O437   Zn441   2.000   .     S
O438   Zn440   1.923   .     S
O439   Zn441   1.955   .     S
H447   C920    1.081   .     S
C449   C465    1.419   .     S
C449   O488    1.284   .     A
C449   O489    1.284   .     A
C450   C451    1.407   .     A
C450   C956    1.417   .     S
C450   C980    1.415   .     S
C451   C458    1.421   .     A
C451   C455    1.415   .     A
C452   C456    1.391   .     A
C452   C954    1.417   1_554 S
C452   C957    1.417   1_554 S
C453   C454    1.391   .     A
C453   C956    1.417   .     S
C453   C976    1.399   .     S
C454   C455    1.386   .     A
C454   H502    1.084   .     S
C455   H484    1.080   .     S
C456   C473    1.399   .     A
C456   H481    1.076   .     S
C457   C472    1.394   .     A
C457   C473    1.410   .     A
C457   Cl498   1.764   .     S
C458   C474    1.401   .     A
C458   C460    1.472   .     S
C459   H485    1.084   .     S
C459   C465    1.397   .     A
C459   C125    1.370   1_565 S
C460   O491    1.287   .     A
C460   O490    1.302   .     A
C461   C462    1.397   .     A
C461   H477    1.084   .     S
C462   C470    1.419   .     S
C462   C463    1.397   .     A
C463   H478    1.084   .     S
C464   H499    1.084   .     S
C464   C465    1.397   .     A
C464   C127    1.370   1_565 S
C466   N487    1.367   .     A
C466   H479    1.082   .     S
C466   C355    1.417   1_655 S
C467   N486    1.367   .     A
C467   H480    1.082   .     S
C468   N486    1.373   .     A
C468   Cl500   1.753   .     S
C469   N487    1.362   .     A
C469   H501    1.082   .     S
C469   C356    1.415   1_655 S
C470   O492    1.284   .     A
C470   O493    1.284   .     A
C471   C473    1.463   .     S
C471   O495    1.294   .     A
C471   O494    1.295   .     A
C472   C957    1.399   1_554 S
C472   H1007   1.081   1_554 S
C474   C475    1.391   .     A
C474   H504    1.082   .     S
C475   C980    1.392   .     S
C475   H987    1.079   .     S
C476   H482    1.079   .     S
C476   C954    1.415   1_554 S
C476   C979    1.392   1_554 S
H483   C979    1.079   1_554 S
N486   Zn496   2.011   .     S
N487   Zn497   2.011   .     S
O488   Zn496   2.000   .     S
O489   Zn497   1.999   .     S
O490   Zn496   1.955   .     S
O491   Zn497   1.923   .     S
O492   Zn496   1.999   .     S
O493   Zn497   2.000   .     S
O494   Zn496   1.923   .     S
O495   Zn497   1.955   .     S
H503   C976    1.081   .     S
C505   C521    1.419   .     S
C505   O544    1.284   .     A
C505   O545    1.284   .     A
C506   C507    1.407   .     A
C506   C4      1.417   1_556 S
C506   C28     1.415   1_556 S
C507   C514    1.421   .     A
C507   C511    1.415   .     A
C508   C512    1.391   .     A
C509   C510    1.391   .     A
C509   C4      1.417   1_556 S
C509   C24     1.399   1_556 S
C510   C511    1.386   .     A
C510   H558    1.084   .     S
C511   H540    1.080   .     S
C512   C529    1.399   .     A
C512   H537    1.076   .     S
C513   C528    1.394   .     A
C513   C529    1.410   .     A
C513   Cl554   1.764   .     S
C514   C530    1.401   .     A
C514   C516    1.472   .     S
C515   H541    1.084   .     S
C515   C521    1.397   .     A
C515   C685    1.370   .     S
C516   O547    1.287   .     A
C516   O546    1.302   .     A
C517   C518    1.397   .     A
C517   H533    1.084   .     S
C517   C851    1.370   1_545 S
C518   C526    1.419   .     S
C518   C519    1.397   .     A
C519   H534    1.084   .     S
C519   C856    1.370   1_545 S
C520   H555    1.084   .     S
C520   C521    1.397   .     A
C520   C687    1.370   .     S
C522   N543    1.367   .     A
C522   H535    1.082   .     S
C522   C579    1.417   .     S
C523   N542    1.367   .     A
C523   H536    1.082   .     S
C523   C634    1.417   1_455 S
C524   N542    1.373   .     A
C524   Cl556   1.753   .     S
C524   C637    1.415   1_455 S
C525   N543    1.362   .     A
C525   H557    1.082   .     S
C525   C580    1.415   .     S
C526   O548    1.284   .     A
C526   O549    1.284   .     A
C527   C529    1.463   .     S
C527   O551    1.294   .     A
C527   O550    1.295   .     A
C530   C531    1.391   .     A
C530   H560    1.082   .     S
C531   C28     1.392   1_556 S
C531   H35     1.079   1_556 S
C532   H538    1.079   .     S
N542   Zn552   2.011   .     S
N543   Zn553   2.011   .     S
O544   Zn552   2.000   .     S
O545   Zn553   1.999   .     S
O546   Zn552   1.955   .     S
O547   Zn553   1.923   .     S
O548   Zn552   1.999   .     S
O549   Zn553   2.000   .     S
O550   Zn552   1.923   .     S
O551   Zn553   1.955   .     S
H559   C24     1.081   1_556 S
C561   C577    1.419   .     S
C561   O600    1.284   .     A
C561   O601    1.284   .     A
C562   C563    1.407   .     A
C562   C60     1.417   1_556 S
C562   C84     1.415   1_556 S
C563   C570    1.421   .     A
C563   C567    1.415   .     A
C564   C568    1.391   .     A
C565   C566    1.391   .     A
C565   C60     1.417   1_556 S
C565   C80     1.399   1_556 S
C566   C567    1.386   .     A
C566   H614    1.084   .     S
C567   H596    1.080   .     S
C568   C585    1.399   .     A
C568   H593    1.076   .     S
C569   C584    1.394   .     A
C569   C585    1.410   .     A
C569   Cl610   1.764   .     S
C570   C586    1.401   .     A
C570   C572    1.472   .     S
C571   H597    1.084   .     S
C571   C577    1.397   .     A
C571   C741    1.370   .     S
C572   O603    1.287   .     A
C572   O602    1.302   .     A
C573   C574    1.397   .     A
C573   H589    1.084   .     S
C573   C907    1.370   1_545 S
C574   C582    1.419   .     S
C574   C575    1.397   .     A
C575   H590    1.084   .     S
C575   C912    1.370   1_545 S
C576   H611    1.084   .     S
C576   C577    1.397   .     A
C576   C743    1.370   .     S
C578   N599    1.367   .     A
C578   H591    1.082   .     S
C578   C635    1.417   .     S
C579   N598    1.367   .     A
C579   H592    1.082   .     S
C580   N598    1.373   .     A
C580   Cl612   1.753   .     S
C581   N599    1.362   .     A
C581   H613    1.082   .     S
C581   C636    1.415   .     S
C582   O604    1.284   .     A
C582   O605    1.284   .     A
C583   C585    1.463   .     S
C583   O607    1.294   .     A
C583   O606    1.295   .     A
C586   C587    1.391   .     A
C586   H616    1.082   .     S
C587   C84     1.392   1_556 S
C587   H91     1.079   1_556 S
C588   H594    1.079   .     S
N598   Zn608   2.011   .     S
N599   Zn609   2.011   .     S
O600   Zn608   2.000   .     S
O601   Zn609   1.999   .     S
O602   Zn608   1.955   .     S
O603   Zn609   1.923   .     S
O604   Zn608   1.999   .     S
O605   Zn609   2.000   .     S
O606   Zn608   1.923   .     S
O607   Zn609   1.955   .     S
H615   C80     1.081   1_556 S
C617   C633    1.419   .     S
C617   O656    1.284   .     A
C617   O657    1.284   .     A
C618   C619    1.407   .     A
C618   C116    1.417   1_556 S
C618   C140    1.415   1_556 S
C619   C626    1.421   .     A
C619   C623    1.415   .     A
C620   C624    1.391   .     A
C621   C622    1.391   .     A
C621   C116    1.417   1_556 S
C621   C136    1.399   1_556 S
C622   C623    1.386   .     A
C622   H670    1.084   .     S
C623   H652    1.080   .     S
C624   C641    1.399   .     A
C624   H649    1.076   .     S
C625   C640    1.394   .     A
C625   C641    1.410   .     A
C625   Cl666   1.764   .     S
C626   C642    1.401   .     A
C626   C628    1.472   .     S
C627   H653    1.084   .     S
C627   C633    1.397   .     A
C627   C797    1.370   .     S
C628   O659    1.287   .     A
C628   O658    1.302   .     A
C629   C630    1.397   .     A
C629   H645    1.084   .     S
C629   C963    1.370   1_545 S
C630   C638    1.419   .     S
C630   C631    1.397   .     A
C631   H646    1.084   .     S
C631   C968    1.370   1_545 S
C632   H667    1.084   .     S
C632   C633    1.397   .     A
C632   C799    1.370   .     S
C634   N655    1.367   .     A
C634   H647    1.082   .     S
C634   C523    1.417   1_655 S
C635   N654    1.367   .     A
C635   H648    1.082   .     S
C636   N654    1.373   .     A
C636   Cl668   1.753   .     S
C637   N655    1.362   .     A
C637   H669    1.082   .     S
C637   C524    1.415   1_655 S
C638   O660    1.284   .     A
C638   O661    1.284   .     A
C639   C641    1.463   .     S
C639   O663    1.294   .     A
C639   O662    1.295   .     A
C642   C643    1.391   .     A
C642   H672    1.082   .     S
C643   C140    1.392   1_556 S
C643   H147    1.079   1_556 S
C644   H650    1.079   .     S
N654   Zn664   2.011   .     S
N655   Zn665   2.011   .     S
O656   Zn664   2.000   .     S
O657   Zn665   1.999   .     S
O658   Zn664   1.955   .     S
O659   Zn665   1.923   .     S
O660   Zn664   1.999   .     S
O661   Zn665   2.000   .     S
O662   Zn664   1.923   .     S
O663   Zn665   1.955   .     S
H671   C136    1.081   1_556 S
C673   C689    1.419   .     S
C673   O712    1.284   .     A
C673   O713    1.284   .     A
C674   C675    1.407   .     A
C674   C172    1.417   1_556 S
C674   C196    1.415   1_556 S
C675   C682    1.421   .     A
C675   C679    1.415   .     A
C676   C680    1.391   .     A
C677   C678    1.391   .     A
C677   C172    1.417   1_556 S
C677   C192    1.399   1_556 S
C678   C679    1.386   .     A
C678   H726    1.084   .     S
C679   H708    1.080   .     S
C680   C697    1.399   .     A
C680   H705    1.076   .     S
C681   C696    1.394   .     A
C681   C697    1.410   .     A
C681   Cl722   1.764   .     S
C682   C698    1.401   .     A
C682   C684    1.472   .     S
C683   H709    1.084   .     S
C683   C689    1.397   .     A
C683   C853    1.370   .     S
C684   O715    1.287   .     A
C684   O714    1.302   .     A
C685   C686    1.397   .     A
C685   H701    1.084   .     S
C686   C694    1.419   .     S
C686   C687    1.397   .     A
C687   H702    1.084   .     S
C688   H723    1.084   .     S
C688   C689    1.397   .     A
C688   C855    1.370   .     S
C690   N711    1.367   .     A
C690   H703    1.082   .     S
C690   C747    1.417   .     S
C691   N710    1.367   .     A
C691   H704    1.082   .     S
C691   C802    1.417   1_455 S
C692   N710    1.373   .     A
C692   Cl724   1.753   .     S
C692   C805    1.415   1_455 S
C693   N711    1.362   .     A
C693   H725    1.082   .     S
C693   C748    1.415   .     S
C694   O716    1.284   .     A
C694   O717    1.284   .     A
C695   C697    1.463   .     S
C695   O719    1.294   .     A
C695   O718    1.295   .     A
C698   C699    1.391   .     A
C698   H728    1.082   .     S
C699   C196    1.392   1_556 S
C699   H203    1.079   1_556 S
C700   H706    1.079   .     S
N710   Zn720   2.011   .     S
N711   Zn721   2.011   .     S
O712   Zn720   2.000   .     S
O713   Zn721   1.999   .     S
O714   Zn720   1.955   .     S
O715   Zn721   1.923   .     S
O716   Zn720   1.999   .     S
O717   Zn721   2.000   .     S
O718   Zn720   1.923   .     S
O719   Zn721   1.955   .     S
H727   C192    1.081   1_556 S
C729   C745    1.419   .     S
C729   O768    1.284   .     A
C729   O769    1.284   .     A
C730   C731    1.407   .     A
C730   C228    1.417   1_556 S
C730   C252    1.415   1_556 S
C731   C738    1.421   .     A
C731   C735    1.415   .     A
C732   C736    1.391   .     A
C733   C734    1.391   .     A
C733   C228    1.417   1_556 S
C733   C248    1.399   1_556 S
C734   C735    1.386   .     A
C734   H782    1.084   .     S
C735   H764    1.080   .     S
C736   C753    1.399   .     A
C736   H761    1.076   .     S
C737   C752    1.394   .     A
C737   C753    1.410   .     A
C737   Cl778   1.764   .     S
C738   C754    1.401   .     A
C738   C740    1.472   .     S
C739   H765    1.084   .     S
C739   C745    1.397   .     A
C739   C909    1.370   .     S
C740   O771    1.287   .     A
C740   O770    1.302   .     A
C741   C742    1.397   .     A
C741   H757    1.084   .     S
C742   C750    1.419   .     S
C742   C743    1.397   .     A
C743   H758    1.084   .     S
C744   H779    1.084   .     S
C744   C745    1.397   .     A
C744   C911    1.370   .     S
C746   N767    1.367   .     A
C746   H759    1.082   .     S
C746   C803    1.417   .     S
C747   N766    1.367   .     A
C747   H760    1.082   .     S
C748   N766    1.373   .     A
C748   Cl780   1.753   .     S
C749   N767    1.362   .     A
C749   H781    1.082   .     S
C749   C804    1.415   .     S
C750   O772    1.284   .     A
C750   O773    1.284   .     A
C751   C753    1.463   .     S
C751   O775    1.294   .     A
C751   O774    1.295   .     A
C754   C755    1.391   .     A
C754   H784    1.082   .     S
C755   C252    1.392   1_556 S
C755   H259    1.079   1_556 S
C756   H762    1.079   .     S
N766   Zn776   2.011   .     S
N767   Zn777   2.011   .     S
O768   Zn776   2.000   .     S
O769   Zn777   1.999   .     S
O770   Zn776   1.955   .     S
O771   Zn777   1.923   .     S
O772   Zn776   1.999   .     S
O773   Zn777   2.000   .     S
O774   Zn776   1.923   .     S
O775   Zn777   1.955   .     S
H783   C248    1.081   1_556 S
C785   C801    1.419   .     S
C785   O824    1.284   .     A
C785   O825    1.284   .     A
C786   C787    1.407   .     A
C786   C284    1.417   1_556 S
C786   C308    1.415   1_556 S
C787   C794    1.421   .     A
C787   C791    1.415   .     A
C788   C792    1.391   .     A
C789   C790    1.391   .     A
C789   C284    1.417   1_556 S
C789   C304    1.399   1_556 S
C790   C791    1.386   .     A
C790   H838    1.084   .     S
C791   H820    1.080   .     S
C792   C809    1.399   .     A
C792   H817    1.076   .     S
C793   C808    1.394   .     A
C793   C809    1.410   .     A
C793   Cl834   1.764   .     S
C794   C810    1.401   .     A
C794   C796    1.472   .     S
C795   H821    1.084   .     S
C795   C801    1.397   .     A
C795   C965    1.370   .     S
C796   O827    1.287   .     A
C796   O826    1.302   .     A
C797   C798    1.397   .     A
C797   H813    1.084   .     S
C798   C806    1.419   .     S
C798   C799    1.397   .     A
C799   H814    1.084   .     S
C800   H835    1.084   .     S
C800   C801    1.397   .     A
C800   C967    1.370   .     S
C802   N823    1.367   .     A
C802   H815    1.082   .     S
C802   C691    1.417   1_655 S
C803   N822    1.367   .     A
C803   H816    1.082   .     S
C804   N822    1.373   .     A
C804   Cl836   1.753   .     S
C805   N823    1.362   .     A
C805   H837    1.082   .     S
C805   C692    1.415   1_655 S
C806   O828    1.284   .     A
C806   O829    1.284   .     A
C807   C809    1.463   .     S
C807   O831    1.294   .     A
C807   O830    1.295   .     A
C810   C811    1.391   .     A
C810   H840    1.082   .     S
C811   C308    1.392   1_556 S
C811   H315    1.079   1_556 S
C812   H818    1.079   .     S
N822   Zn832   2.011   .     S
N823   Zn833   2.011   .     S
O824   Zn832   2.000   .     S
O825   Zn833   1.999   .     S
O826   Zn832   1.955   .     S
O827   Zn833   1.923   .     S
O828   Zn832   1.999   .     S
O829   Zn833   2.000   .     S
O830   Zn832   1.923   .     S
O831   Zn833   1.955   .     S
H839   C304    1.081   1_556 S
C841   C857    1.419   .     S
C841   O880    1.284   .     A
C841   O881    1.284   .     A
C842   C843    1.407   .     A
C842   C340    1.417   1_556 S
C842   C364    1.415   1_556 S
C843   C850    1.421   .     A
C843   C847    1.415   .     A
C844   C848    1.391   .     A
C845   C846    1.391   .     A
C845   C340    1.417   1_556 S
C845   C360    1.399   1_556 S
C846   C847    1.386   .     A
C846   H894    1.084   .     S
C847   H876    1.080   .     S
C848   C865    1.399   .     A
C848   H873    1.076   .     S
C849   C864    1.394   .     A
C849   C865    1.410   .     A
C849   Cl890   1.764   .     S
C850   C866    1.401   .     A
C850   C852    1.472   .     S
C851   H877    1.084   .     S
C851   C857    1.397   .     A
C851   C517    1.370   1_565 S
C852   O883    1.287   .     A
C852   O882    1.302   .     A
C853   C854    1.397   .     A
C853   H869    1.084   .     S
C854   C862    1.419   .     S
C854   C855    1.397   .     A
C855   H870    1.084   .     S
C856   H891    1.084   .     S
C856   C857    1.397   .     A
C856   C519    1.370   1_565 S
C858   N879    1.367   .     A
C858   H871    1.082   .     S
C858   C915    1.417   .     S
C859   N878    1.367   .     A
C859   H872    1.082   .     S
C859   C970    1.417   1_455 S
C860   N878    1.373   .     A
C860   Cl892   1.753   .     S
C860   C973    1.415   1_455 S
C861   N879    1.362   .     A
C861   H893    1.082   .     S
C861   C916    1.415   .     S
C862   O884    1.284   .     A
C862   O885    1.284   .     A
C863   C865    1.463   .     S
C863   O887    1.294   .     A
C863   O886    1.295   .     A
C866   C867    1.391   .     A
C866   H896    1.082   .     S
C867   C364    1.392   1_556 S
C867   H371    1.079   1_556 S
C868   H874    1.079   .     S
N878   Zn888   2.011   .     S
N879   Zn889   2.011   .     S
O880   Zn888   2.000   .     S
O881   Zn889   1.999   .     S
O882   Zn888   1.955   .     S
O883   Zn889   1.923   .     S
O884   Zn888   1.999   .     S
O885   Zn889   2.000   .     S
O886   Zn888   1.923   .     S
O887   Zn889   1.955   .     S
H895   C360    1.081   1_556 S
C897   C913    1.419   .     S
C897   O936    1.284   .     A
C897   O937    1.284   .     A
C898   C899    1.407   .     A
C898   C396    1.417   1_556 S
C898   C420    1.415   1_556 S
C899   C906    1.421   .     A
C899   C903    1.415   .     A
C900   C904    1.391   .     A
C901   C902    1.391   .     A
C901   C396    1.417   1_556 S
C901   C416    1.399   1_556 S
C902   C903    1.386   .     A
C902   H950    1.084   .     S
C903   H932    1.080   .     S
C904   C921    1.399   .     A
C904   H929    1.076   .     S
C905   C920    1.394   .     A
C905   C921    1.410   .     A
C905   Cl946   1.764   .     S
C906   C922    1.401   .     A
C906   C908    1.472   .     S
C907   H933    1.084   .     S
C907   C913    1.397   .     A
C907   C573    1.370   1_565 S
C908   O939    1.287   .     A
C908   O938    1.302   .     A
C909   C910    1.397   .     A
C909   H925    1.084   .     S
C910   C918    1.419   .     S
C910   C911    1.397   .     A
C911   H926    1.084   .     S
C912   H947    1.084   .     S
C912   C913    1.397   .     A
C912   C575    1.370   1_565 S
C914   N935    1.367   .     A
C914   H927    1.082   .     S
C914   C971    1.417   .     S
C915   N934    1.367   .     A
C915   H928    1.082   .     S
C916   N934    1.373   .     A
C916   Cl948   1.753   .     S
C917   N935    1.362   .     A
C917   H949    1.082   .     S
C917   C972    1.415   .     S
C918   O940    1.284   .     A
C918   O941    1.284   .     A
C919   C921    1.463   .     S
C919   O943    1.294   .     A
C919   O942    1.295   .     A
C922   C923    1.391   .     A
C922   H952    1.082   .     S
C923   C420    1.392   1_556 S
C923   H427    1.079   1_556 S
C924   H930    1.079   .     S
N934   Zn944   2.011   .     S
N935   Zn945   2.011   .     S
O936   Zn944   2.000   .     S
O937   Zn945   1.999   .     S
O938   Zn944   1.955   .     S
O939   Zn945   1.923   .     S
O940   Zn944   1.999   .     S
O941   Zn945   2.000   .     S
O942   Zn944   1.923   .     S
O943   Zn945   1.955   .     S
H951   C416    1.081   1_556 S
C953   C969    1.419   .     S
C953   O992    1.284   .     A
C953   O993    1.284   .     A
C954   C955    1.407   .     A
C954   C452    1.417   1_556 S
C954   C476    1.415   1_556 S
C955   C962    1.421   .     A
C955   C959    1.415   .     A
C956   C960    1.391   .     A
C957   C958    1.391   .     A
C957   C452    1.417   1_556 S
C957   C472    1.399   1_556 S
C958   C959    1.386   .     A
C958   H1006   1.084   .     S
C959   H988    1.080   .     S
C960   C977    1.399   .     A
C960   H985    1.076   .     S
C961   C976    1.394   .     A
C961   C977    1.410   .     A
C961   Cl1002  1.764   .     S
C962   C978    1.401   .     A
C962   C964    1.472   .     S
C963   H989    1.084   .     S
C963   C969    1.397   .     A
C963   C629    1.370   1_565 S
C964   O995    1.287   .     A
C964   O994    1.302   .     A
C965   C966    1.397   .     A
C965   H981    1.084   .     S
C966   C974    1.419   .     S
C966   C967    1.397   .     A
C967   H982    1.084   .     S
C968   H1003   1.084   .     S
C968   C969    1.397   .     A
C968   C631    1.370   1_565 S
C970   N991    1.367   .     A
C970   H983    1.082   .     S
C970   C859    1.417   1_655 S
C971   N990    1.367   .     A
C971   H984    1.082   .     S
C972   N990    1.373   .     A
C972   Cl1004  1.753   .     S
C973   N991    1.362   .     A
C973   H1005   1.082   .     S
C973   C860    1.415   1_655 S
C974   O996    1.284   .     A
C974   O997    1.284   .     A
C975   C977    1.463   .     S
C975   O999    1.294   .     A
C975   O998    1.295   .     A
C978   C979    1.391   .     A
C978   H1008   1.082   .     S
C979   C476    1.392   1_556 S
C979   H483    1.079   1_556 S
C980   H986    1.079   .     S
N990   Zn1000  2.011   .     S
N991   Zn1001  2.011   .     S
O992   Zn1000  2.000   .     S
O993   Zn1001  1.999   .     S
O994   Zn1000  1.955   .     S
O995   Zn1001  1.923   .     S
O996   Zn1000  1.999   .     S
O997   Zn1001  2.000   .     S
O998   Zn1000  1.923   .     S
O999   Zn1001  1.955   .     S
H1007  C472    1.081   1_556 S
