data_str_m1_o10_o16_pcu_sym.10
_audit_creation_date              2020-01-03
_audit_creation_method            'Materials Studio'
_symmetry_space_group_name_H-M    'P1'
_symmetry_Int_Tables_number       1
_symmetry_cell_setting            triclinic
loop_
_symmetry_equiv_pos_as_xyz
  x,y,z
_cell_length_a                    32.4329
_cell_length_b                    32.6267
_cell_length_c                    31.0729
_cell_angle_alpha                 96.8635
_cell_angle_beta                  74.4013
_cell_angle_gamma                 98.8242
loop_
_atom_site_label
_atom_site_type_symbol
_atom_site_fract_x
_atom_site_fract_y
_atom_site_fract_z
_atom_site_U_iso_or_equiv
_atom_site_adp_type
_atom_site_occupancy
Zn1    Zn    0.19338   0.13994   0.28734   0.00000  Uiso   1.00
Zn2    Zn    0.13379   0.12458   0.21876   0.00000  Uiso   1.00
Zn3    Zn    0.21056   0.19775   0.20657   0.00000  Uiso   1.00
Zn4    Zn    0.12893   0.20439   0.28734   0.00000  Uiso   1.00
O5     O     0.16667   0.16667   0.25000   0.00000  Uiso   1.00
O6     O     0.07071   0.18878   0.28213   0.00000  Uiso   1.00
O7     O     0.25491   0.15226   0.27014   0.00000  Uiso   1.00
O8     O     0.13760   0.06944   0.23413   0.00000  Uiso   1.00
O9     O     0.20345   0.25620   0.21361   0.00000  Uiso   1.00
O10    O     0.15451   0.12637   0.15459   0.00000  Uiso   1.00
O11    O     0.12940   0.20391   0.34968   0.00000  Uiso   1.00
O12    O     0.20824   0.17759   0.14606   0.00000  Uiso   1.00
O13    O     0.17451   0.15880   0.34968   0.00000  Uiso   1.00
O14    O     0.17930   0.08019   0.28214   0.00000  Uiso   1.00
O15    O     0.14632   0.26085   0.27014   0.00000  Uiso   1.00
O16    O     0.07412   0.13291   0.23413   0.00000  Uiso   1.00
O17    O     0.26693   0.19272   0.21361   0.00000  Uiso   1.00
C18    C     0.05270   0.15975   0.25991   0.00000  Uiso   1.00
C19    C     0.28083   0.17372   0.23976   0.00000  Uiso   1.00
C20    C     0.15547   0.05605   0.26022   0.00000  Uiso   1.00
C21    C     0.17714   0.27806   0.24099   0.00000  Uiso   1.00
C22    C     0.18548   0.14817   0.12935   0.00000  Uiso   1.00
C23    C     0.14961   0.18565   0.37082   0.00000  Uiso   1.00
C24    C     0.24341   0.12669   0.00996   0.00000  Uiso   1.00
H25    H     0.25121   0.11298   0.07278   0.00000  Uiso   1.00
H26    H     0.27284   0.11415   0.49190   0.00000  Uiso   1.00
C27    C     0.19382   0.14187   0.08104   0.00000  Uiso   1.00
C28    C     0.10229   0.20684   0.44416   0.00000  Uiso   1.00
C29    C     0.08836   0.20632   0.49090   0.00000  Uiso   1.00
C30    C     0.11323   0.18990   0.01325   0.00000  Uiso   1.00
C31    C     0.15395   0.17712   0.49067   0.00000  Uiso   1.00
C32    C     0.16888   0.18036   0.44377   0.00000  Uiso   1.00
C33    C     0.17986   0.16039   0.01311   0.00000  Uiso   1.00
C34    C     0.21926   0.14548   0.48802   0.00000  Uiso   1.00
C35    C     0.23430   0.15076   0.44190   0.00000  Uiso   1.00
C36    C     0.21059   0.17059   0.42140   0.00000  Uiso   1.00
C37    C     0.16812   0.15842   0.05998   0.00000  Uiso   1.00
C38    C     0.23100   0.12545   0.05618   0.00000  Uiso   1.00
C39    C     0.14136   0.19261   0.42018   0.00000  Uiso   1.00
H40    H     0.14064   0.17168   0.08160   0.00000  Uiso   1.00
H41    H     0.08139   0.21595   0.42611   0.00000  Uiso   1.00
H42    H     0.09915   0.18730   0.04851   0.00000  Uiso   1.00
H43    H     0.22583   0.17829   0.38744   0.00000  Uiso   1.00
C44    C     0.32691   0.17576   0.23493   0.00000  Uiso   1.00
H45    H     0.01632   0.19196   0.20790   0.00000  Uiso   1.00
C46    C     0.00736   0.15760   0.26380   0.00000  Uiso   1.00
H47    H     0.31855   0.14190   0.29145   0.00000  Uiso   1.00
C48    C     0.18337   0.32330   0.24146   0.00000  Uiso   1.00
C49    C     0.14975   0.01163   0.26119   0.00000  Uiso   1.00
C50    C     0.22791   0.01118   0.22398   0.00000  Uiso   1.00
C51    C     0.26051   0.00769   0.24486   0.00000  Uiso   1.00
C52    C     0.30179   0.02932   0.23017   0.00000  Uiso   1.00
C53    C     0.31087   0.05433   0.19443   0.00000  Uiso   1.00
C54    C     0.27881   0.05750   0.17306   0.00000  Uiso   1.00
C55    C     0.23750   0.03592   0.18761   0.00000  Uiso   1.00
H56    H     0.25373   0.32219   0.27299   0.00000  Uiso   1.00
H57    H     0.32665   0.02696   0.24669   0.00000  Uiso   1.00
H58    H     0.00942   0.07125   0.18330   0.00000  Uiso   1.00
H59    H     0.28590   0.07684   0.14534   0.00000  Uiso   1.00
H60    H     0.21289   0.03878   0.17089   0.00000  Uiso   1.00
C61    C     0.10377   0.32586   0.27366   0.00000  Uiso   1.00
C62    C     0.07825   0.33330   0.31746   0.00000  Uiso   1.00
C63    C     0.03454   0.31720   0.32882   0.00000  Uiso   1.00
C64    C     0.01592   0.29397   0.29647   0.00000  Uiso   1.00
C65    C     0.04092   0.28698   0.25264   0.00000  Uiso   1.00
C66    C     0.08464   0.30294   0.24115   0.00000  Uiso   1.00
H67    H     0.09222   0.01827   0.34271   0.00000  Uiso   1.00
H68    H     0.01505   0.32296   0.36264   0.00000  Uiso   1.00
H69    H     0.31538   0.28171   0.30524   0.00000  Uiso   1.00
H70    H     0.02630   0.26957   0.22746   0.00000  Uiso   1.00
H71    H     0.10353   0.29779   0.20692   0.00000  Uiso   1.00
C72    C     0.27388   0.13453   0.41335   0.00000  Uiso   1.00
C73    C     0.27021   0.09948   0.38294   0.00000  Uiso   1.00
C74    C     0.30718   0.08338   0.35627   0.00000  Uiso   1.00
C75    C     0.01469   0.10244   0.35936   0.00000  Uiso   1.00
C76    C     0.01860   0.13762   0.38913   0.00000  Uiso   1.00
C77    C     0.31502   0.15373   0.41611   0.00000  Uiso   1.00
H78    H     0.23872   0.08448   0.38021   0.00000  Uiso   1.00
H79    H     0.30418   0.05623   0.33309   0.00000  Uiso   1.00
H80    H     0.04331   0.09007   0.33855   0.00000  Uiso   1.00
H81    H     0.05026   0.15227   0.39130   0.00000  Uiso   1.00
H82    H     0.31840   0.18089   0.43919   0.00000  Uiso   1.00
O83    O     0.04808   0.21636   0.01558   0.00000  Uiso   1.00
C84    C     0.03853   0.25329   0.00284   0.00000  Uiso   1.00
H85    H     0.02622   0.24648   0.47230   0.00000  Uiso   1.00
H86    H     0.06720   0.27761   0.49680   0.00000  Uiso   1.00
C87    C     0.00318   0.27062   0.04033   0.00000  Uiso   1.00
H88    H     0.01435   0.27812   0.07150   0.00000  Uiso   1.00
H89    H     0.32832   0.29944   0.03060   0.00000  Uiso   1.00
H90    H     0.30712   0.24740   0.04679   0.00000  Uiso   1.00
Zn91   Zn    0.52672   0.13994   0.28734   0.00000  Uiso   1.00
Zn92   Zn    0.46713   0.12458   0.21876   0.00000  Uiso   1.00
Zn93   Zn    0.54389   0.19775   0.20657   0.00000  Uiso   1.00
Zn94   Zn    0.46226   0.20439   0.28734   0.00000  Uiso   1.00
O95    O     0.50000   0.16667   0.25000   0.00000  Uiso   1.00
O96    O     0.40405   0.18878   0.28213   0.00000  Uiso   1.00
O97    O     0.58824   0.15226   0.27014   0.00000  Uiso   1.00
O98    O     0.47093   0.06944   0.23413   0.00000  Uiso   1.00
O99    O     0.53678   0.25620   0.21361   0.00000  Uiso   1.00
O100   O     0.48784   0.12637   0.15459   0.00000  Uiso   1.00
O101   O     0.46274   0.20391   0.34968   0.00000  Uiso   1.00
O102   O     0.54157   0.17759   0.14606   0.00000  Uiso   1.00
O103   O     0.50785   0.15880   0.34968   0.00000  Uiso   1.00
O104   O     0.51264   0.08019   0.28214   0.00000  Uiso   1.00
O105   O     0.47965   0.26085   0.27014   0.00000  Uiso   1.00
O106   O     0.40745   0.13291   0.23413   0.00000  Uiso   1.00
O107   O     0.60026   0.19272   0.21361   0.00000  Uiso   1.00
C108   C     0.38604   0.15975   0.25991   0.00000  Uiso   1.00
C109   C     0.61417   0.17372   0.23976   0.00000  Uiso   1.00
C110   C     0.48880   0.05605   0.26022   0.00000  Uiso   1.00
C111   C     0.51047   0.27806   0.24099   0.00000  Uiso   1.00
C112   C     0.51881   0.14817   0.12935   0.00000  Uiso   1.00
C113   C     0.48294   0.18565   0.37082   0.00000  Uiso   1.00
C114   C     0.57674   0.12669   0.00996   0.00000  Uiso   1.00
H115   H     0.58454   0.11298   0.07278   0.00000  Uiso   1.00
H116   H     0.60617   0.11415   0.49190   0.00000  Uiso   1.00
C117   C     0.52716   0.14187   0.08104   0.00000  Uiso   1.00
C118   C     0.43563   0.20684   0.44416   0.00000  Uiso   1.00
C119   C     0.42169   0.20632   0.49090   0.00000  Uiso   1.00
C120   C     0.44656   0.18990   0.01325   0.00000  Uiso   1.00
C121   C     0.48729   0.17712   0.49067   0.00000  Uiso   1.00
C122   C     0.50221   0.18036   0.44377   0.00000  Uiso   1.00
C123   C     0.51319   0.16039   0.01311   0.00000  Uiso   1.00
C124   C     0.55260   0.14548   0.48802   0.00000  Uiso   1.00
C125   C     0.56763   0.15076   0.44190   0.00000  Uiso   1.00
C126   C     0.54393   0.17059   0.42140   0.00000  Uiso   1.00
C127   C     0.50146   0.15842   0.05998   0.00000  Uiso   1.00
C128   C     0.56433   0.12545   0.05618   0.00000  Uiso   1.00
C129   C     0.47470   0.19261   0.42018   0.00000  Uiso   1.00
H130   H     0.47397   0.17168   0.08160   0.00000  Uiso   1.00
H131   H     0.41473   0.21595   0.42611   0.00000  Uiso   1.00
H132   H     0.43248   0.18730   0.04851   0.00000  Uiso   1.00
H133   H     0.55916   0.17829   0.38744   0.00000  Uiso   1.00
C134   C     0.66025   0.17576   0.23493   0.00000  Uiso   1.00
H135   H     0.34965   0.19196   0.20790   0.00000  Uiso   1.00
C136   C     0.34069   0.15760   0.26380   0.00000  Uiso   1.00
H137   H     0.65188   0.14190   0.29145   0.00000  Uiso   1.00
C138   C     0.51671   0.32330   0.24146   0.00000  Uiso   1.00
C139   C     0.48308   0.01163   0.26119   0.00000  Uiso   1.00
C140   C     0.56125   0.01118   0.22398   0.00000  Uiso   1.00
C141   C     0.59385   0.00769   0.24486   0.00000  Uiso   1.00
C142   C     0.63512   0.02932   0.23017   0.00000  Uiso   1.00
C143   C     0.64421   0.05433   0.19443   0.00000  Uiso   1.00
C144   C     0.61214   0.05750   0.17306   0.00000  Uiso   1.00
C145   C     0.57083   0.03592   0.18761   0.00000  Uiso   1.00
H146   H     0.58707   0.32219   0.27299   0.00000  Uiso   1.00
H147   H     0.65999   0.02696   0.24669   0.00000  Uiso   1.00
H148   H     0.34276   0.07125   0.18330   0.00000  Uiso   1.00
H149   H     0.61923   0.07684   0.14534   0.00000  Uiso   1.00
H150   H     0.54623   0.03878   0.17089   0.00000  Uiso   1.00
C151   C     0.43710   0.32586   0.27366   0.00000  Uiso   1.00
C152   C     0.41158   0.33330   0.31746   0.00000  Uiso   1.00
C153   C     0.36788   0.31720   0.32882   0.00000  Uiso   1.00
C154   C     0.34925   0.29397   0.29647   0.00000  Uiso   1.00
C155   C     0.37425   0.28698   0.25264   0.00000  Uiso   1.00
C156   C     0.41798   0.30294   0.24115   0.00000  Uiso   1.00
H157   H     0.42555   0.01827   0.34271   0.00000  Uiso   1.00
H158   H     0.34838   0.32296   0.36264   0.00000  Uiso   1.00
H159   H     0.64871   0.28171   0.30524   0.00000  Uiso   1.00
H160   H     0.35964   0.26957   0.22746   0.00000  Uiso   1.00
H161   H     0.43686   0.29779   0.20692   0.00000  Uiso   1.00
C162   C     0.60722   0.13453   0.41335   0.00000  Uiso   1.00
C163   C     0.60355   0.09948   0.38294   0.00000  Uiso   1.00
C164   C     0.64052   0.08338   0.35627   0.00000  Uiso   1.00
C165   C     0.34803   0.10244   0.35936   0.00000  Uiso   1.00
C166   C     0.35193   0.13762   0.38913   0.00000  Uiso   1.00
C167   C     0.64835   0.15373   0.41611   0.00000  Uiso   1.00
H168   H     0.57205   0.08448   0.38021   0.00000  Uiso   1.00
H169   H     0.63751   0.05623   0.33309   0.00000  Uiso   1.00
H170   H     0.37664   0.09007   0.33855   0.00000  Uiso   1.00
H171   H     0.38360   0.15227   0.39130   0.00000  Uiso   1.00
H172   H     0.65174   0.18089   0.43919   0.00000  Uiso   1.00
O173   O     0.38142   0.21636   0.01558   0.00000  Uiso   1.00
C174   C     0.37186   0.25329   0.00284   0.00000  Uiso   1.00
H175   H     0.35955   0.24648   0.47230   0.00000  Uiso   1.00
H176   H     0.40053   0.27761   0.49680   0.00000  Uiso   1.00
C177   C     0.33651   0.27062   0.04033   0.00000  Uiso   1.00
H178   H     0.34768   0.27812   0.07150   0.00000  Uiso   1.00
H179   H     0.66165   0.29944   0.03060   0.00000  Uiso   1.00
H180   H     0.64046   0.24740   0.04679   0.00000  Uiso   1.00
Zn181  Zn    0.86005   0.13994   0.28734   0.00000  Uiso   1.00
Zn182  Zn    0.80046   0.12458   0.21876   0.00000  Uiso   1.00
Zn183  Zn    0.87723   0.19775   0.20657   0.00000  Uiso   1.00
Zn184  Zn    0.79560   0.20439   0.28734   0.00000  Uiso   1.00
O185   O     0.83333   0.16667   0.25000   0.00000  Uiso   1.00
O186   O     0.73738   0.18878   0.28213   0.00000  Uiso   1.00
O187   O     0.92158   0.15226   0.27014   0.00000  Uiso   1.00
O188   O     0.80426   0.06944   0.23413   0.00000  Uiso   1.00
O189   O     0.87012   0.25620   0.21361   0.00000  Uiso   1.00
O190   O     0.82118   0.12637   0.15459   0.00000  Uiso   1.00
O191   O     0.79607   0.20391   0.34968   0.00000  Uiso   1.00
O192   O     0.87491   0.17759   0.14606   0.00000  Uiso   1.00
O193   O     0.84118   0.15880   0.34968   0.00000  Uiso   1.00
O194   O     0.84597   0.08019   0.28214   0.00000  Uiso   1.00
O195   O     0.81298   0.26085   0.27014   0.00000  Uiso   1.00
O196   O     0.74078   0.13291   0.23413   0.00000  Uiso   1.00
O197   O     0.93360   0.19272   0.21361   0.00000  Uiso   1.00
C198   C     0.71937   0.15975   0.25991   0.00000  Uiso   1.00
C199   C     0.94750   0.17372   0.23976   0.00000  Uiso   1.00
C200   C     0.82213   0.05605   0.26022   0.00000  Uiso   1.00
C201   C     0.84381   0.27806   0.24099   0.00000  Uiso   1.00
C202   C     0.85214   0.14817   0.12935   0.00000  Uiso   1.00
C203   C     0.81627   0.18565   0.37082   0.00000  Uiso   1.00
C204   C     0.91008   0.12669   0.00996   0.00000  Uiso   1.00
H205   H     0.91788   0.11298   0.07278   0.00000  Uiso   1.00
H206   H     0.93951   0.11415   0.49190   0.00000  Uiso   1.00
C207   C     0.86049   0.14187   0.08104   0.00000  Uiso   1.00
C208   C     0.76896   0.20684   0.44416   0.00000  Uiso   1.00
C209   C     0.75503   0.20632   0.49090   0.00000  Uiso   1.00
C210   C     0.77990   0.18990   0.01325   0.00000  Uiso   1.00
C211   C     0.82062   0.17712   0.49067   0.00000  Uiso   1.00
C212   C     0.83554   0.18036   0.44377   0.00000  Uiso   1.00
C213   C     0.84653   0.16039   0.01311   0.00000  Uiso   1.00
C214   C     0.88593   0.14548   0.48802   0.00000  Uiso   1.00
C215   C     0.90097   0.15076   0.44190   0.00000  Uiso   1.00
C216   C     0.87726   0.17059   0.42140   0.00000  Uiso   1.00
C217   C     0.83479   0.15842   0.05998   0.00000  Uiso   1.00
C218   C     0.89767   0.12545   0.05618   0.00000  Uiso   1.00
C219   C     0.80803   0.19261   0.42018   0.00000  Uiso   1.00
H220   H     0.80731   0.17168   0.08160   0.00000  Uiso   1.00
H221   H     0.74806   0.21595   0.42611   0.00000  Uiso   1.00
H222   H     0.76581   0.18730   0.04851   0.00000  Uiso   1.00
H223   H     0.89249   0.17829   0.38744   0.00000  Uiso   1.00
C224   C     0.99358   0.17576   0.23493   0.00000  Uiso   1.00
H225   H     0.68298   0.19196   0.20790   0.00000  Uiso   1.00
C226   C     0.67402   0.15760   0.26380   0.00000  Uiso   1.00
H227   H     0.98521   0.14190   0.29145   0.00000  Uiso   1.00
C228   C     0.85004   0.32330   0.24146   0.00000  Uiso   1.00
C229   C     0.81642   0.01163   0.26119   0.00000  Uiso   1.00
C230   C     0.89458   0.01118   0.22398   0.00000  Uiso   1.00
C231   C     0.92718   0.00769   0.24486   0.00000  Uiso   1.00
C232   C     0.96845   0.02932   0.23017   0.00000  Uiso   1.00
C233   C     0.97754   0.05433   0.19443   0.00000  Uiso   1.00
C234   C     0.94547   0.05750   0.17306   0.00000  Uiso   1.00
C235   C     0.90417   0.03592   0.18761   0.00000  Uiso   1.00
H236   H     0.92040   0.32219   0.27299   0.00000  Uiso   1.00
H237   H     0.99332   0.02696   0.24669   0.00000  Uiso   1.00
H238   H     0.67609   0.07125   0.18330   0.00000  Uiso   1.00
H239   H     0.95256   0.07684   0.14534   0.00000  Uiso   1.00
H240   H     0.87956   0.03878   0.17089   0.00000  Uiso   1.00
C241   C     0.77043   0.32586   0.27366   0.00000  Uiso   1.00
C242   C     0.74492   0.33330   0.31746   0.00000  Uiso   1.00
C243   C     0.70121   0.31720   0.32882   0.00000  Uiso   1.00
C244   C     0.68259   0.29397   0.29647   0.00000  Uiso   1.00
C245   C     0.70758   0.28698   0.25264   0.00000  Uiso   1.00
C246   C     0.75131   0.30294   0.24115   0.00000  Uiso   1.00
H247   H     0.75888   0.01827   0.34271   0.00000  Uiso   1.00
H248   H     0.68171   0.32296   0.36264   0.00000  Uiso   1.00
H249   H     0.98204   0.28171   0.30524   0.00000  Uiso   1.00
H250   H     0.69297   0.26957   0.22746   0.00000  Uiso   1.00
H251   H     0.77019   0.29779   0.20692   0.00000  Uiso   1.00
C252   C     0.94055   0.13453   0.41335   0.00000  Uiso   1.00
C253   C     0.93688   0.09948   0.38294   0.00000  Uiso   1.00
C254   C     0.97385   0.08338   0.35627   0.00000  Uiso   1.00
C255   C     0.68136   0.10244   0.35936   0.00000  Uiso   1.00
C256   C     0.68526   0.13762   0.38913   0.00000  Uiso   1.00
C257   C     0.98168   0.15373   0.41611   0.00000  Uiso   1.00
H258   H     0.90539   0.08448   0.38021   0.00000  Uiso   1.00
H259   H     0.97084   0.05623   0.33309   0.00000  Uiso   1.00
H260   H     0.70998   0.09007   0.33855   0.00000  Uiso   1.00
H261   H     0.71693   0.15227   0.39130   0.00000  Uiso   1.00
H262   H     0.98507   0.18089   0.43919   0.00000  Uiso   1.00
O263   O     0.71475   0.21636   0.01558   0.00000  Uiso   1.00
C264   C     0.70519   0.25329   0.00284   0.00000  Uiso   1.00
H265   H     0.69289   0.24648   0.47230   0.00000  Uiso   1.00
H266   H     0.73386   0.27761   0.49680   0.00000  Uiso   1.00
C267   C     0.66985   0.27062   0.04033   0.00000  Uiso   1.00
H268   H     0.68101   0.27812   0.07150   0.00000  Uiso   1.00
H269   H     0.99498   0.29944   0.03060   0.00000  Uiso   1.00
H270   H     0.97379   0.24740   0.04679   0.00000  Uiso   1.00
Zn271  Zn    0.19338   0.47327   0.28734   0.00000  Uiso   1.00
Zn272  Zn    0.13379   0.45791   0.21876   0.00000  Uiso   1.00
Zn273  Zn    0.21056   0.53109   0.20657   0.00000  Uiso   1.00
Zn274  Zn    0.12893   0.53773   0.28734   0.00000  Uiso   1.00
O275   O     0.16667   0.50000   0.25000   0.00000  Uiso   1.00
O276   O     0.07071   0.52211   0.28213   0.00000  Uiso   1.00
O277   O     0.25491   0.48559   0.27014   0.00000  Uiso   1.00
O278   O     0.13760   0.40277   0.23413   0.00000  Uiso   1.00
O279   O     0.20345   0.58953   0.21361   0.00000  Uiso   1.00
O280   O     0.15451   0.45970   0.15459   0.00000  Uiso   1.00
O281   O     0.12940   0.53724   0.34968   0.00000  Uiso   1.00
O282   O     0.20824   0.51092   0.14606   0.00000  Uiso   1.00
O283   O     0.17451   0.49213   0.34968   0.00000  Uiso   1.00
O284   O     0.17930   0.41352   0.28214   0.00000  Uiso   1.00
O285   O     0.14632   0.59418   0.27014   0.00000  Uiso   1.00
O286   O     0.07412   0.46625   0.23413   0.00000  Uiso   1.00
O287   O     0.26693   0.52605   0.21361   0.00000  Uiso   1.00
C288   C     0.05270   0.49308   0.25991   0.00000  Uiso   1.00
C289   C     0.28083   0.50705   0.23976   0.00000  Uiso   1.00
C290   C     0.15547   0.38938   0.26022   0.00000  Uiso   1.00
C291   C     0.17714   0.61139   0.24099   0.00000  Uiso   1.00
C292   C     0.18548   0.48150   0.12935   0.00000  Uiso   1.00
C293   C     0.14961   0.51899   0.37082   0.00000  Uiso   1.00
C294   C     0.24341   0.46002   0.00996   0.00000  Uiso   1.00
H295   H     0.25121   0.44631   0.07278   0.00000  Uiso   1.00
H296   H     0.27284   0.44748   0.49190   0.00000  Uiso   1.00
C297   C     0.19382   0.47521   0.08104   0.00000  Uiso   1.00
C298   C     0.10229   0.54017   0.44416   0.00000  Uiso   1.00
C299   C     0.08836   0.53965   0.49090   0.00000  Uiso   1.00
C300   C     0.11323   0.52323   0.01325   0.00000  Uiso   1.00
C301   C     0.15395   0.51045   0.49067   0.00000  Uiso   1.00
C302   C     0.16888   0.51369   0.44377   0.00000  Uiso   1.00
C303   C     0.17986   0.49372   0.01311   0.00000  Uiso   1.00
C304   C     0.21926   0.47881   0.48802   0.00000  Uiso   1.00
C305   C     0.23430   0.48409   0.44190   0.00000  Uiso   1.00
C306   C     0.21059   0.50393   0.42140   0.00000  Uiso   1.00
C307   C     0.16812   0.49175   0.05998   0.00000  Uiso   1.00
C308   C     0.23100   0.45878   0.05618   0.00000  Uiso   1.00
C309   C     0.14136   0.52595   0.42018   0.00000  Uiso   1.00
H310   H     0.14064   0.50501   0.08160   0.00000  Uiso   1.00
H311   H     0.08139   0.54928   0.42611   0.00000  Uiso   1.00
H312   H     0.09915   0.52063   0.04851   0.00000  Uiso   1.00
H313   H     0.22583   0.51162   0.38744   0.00000  Uiso   1.00
C314   C     0.32691   0.50910   0.23493   0.00000  Uiso   1.00
H315   H     0.01632   0.52529   0.20790   0.00000  Uiso   1.00
C316   C     0.00736   0.49093   0.26380   0.00000  Uiso   1.00
H317   H     0.31855   0.47523   0.29145   0.00000  Uiso   1.00
C318   C     0.18337   0.65663   0.24146   0.00000  Uiso   1.00
C319   C     0.14975   0.34496   0.26119   0.00000  Uiso   1.00
C320   C     0.22791   0.34452   0.22398   0.00000  Uiso   1.00
C321   C     0.26051   0.34102   0.24486   0.00000  Uiso   1.00
C322   C     0.30179   0.36266   0.23017   0.00000  Uiso   1.00
C323   C     0.31087   0.38766   0.19443   0.00000  Uiso   1.00
C324   C     0.27881   0.39084   0.17306   0.00000  Uiso   1.00
C325   C     0.23750   0.36925   0.18761   0.00000  Uiso   1.00
H326   H     0.25373   0.65552   0.27299   0.00000  Uiso   1.00
H327   H     0.32665   0.36029   0.24669   0.00000  Uiso   1.00
H328   H     0.00942   0.40458   0.18330   0.00000  Uiso   1.00
H329   H     0.28590   0.41018   0.14534   0.00000  Uiso   1.00
H330   H     0.21289   0.37212   0.17089   0.00000  Uiso   1.00
C331   C     0.10377   0.65919   0.27366   0.00000  Uiso   1.00
C332   C     0.07825   0.66663   0.31746   0.00000  Uiso   1.00
C333   C     0.03454   0.65053   0.32882   0.00000  Uiso   1.00
C334   C     0.01592   0.62730   0.29647   0.00000  Uiso   1.00
C335   C     0.04092   0.62031   0.25264   0.00000  Uiso   1.00
C336   C     0.08464   0.63627   0.24115   0.00000  Uiso   1.00
H337   H     0.09222   0.35160   0.34271   0.00000  Uiso   1.00
H338   H     0.01505   0.65630   0.36264   0.00000  Uiso   1.00
H339   H     0.31538   0.61504   0.30524   0.00000  Uiso   1.00
H340   H     0.02630   0.60290   0.22746   0.00000  Uiso   1.00
H341   H     0.10353   0.63113   0.20692   0.00000  Uiso   1.00
C342   C     0.27388   0.46786   0.41335   0.00000  Uiso   1.00
C343   C     0.27021   0.43282   0.38294   0.00000  Uiso   1.00
C344   C     0.30718   0.41671   0.35627   0.00000  Uiso   1.00
C345   C     0.01469   0.43577   0.35936   0.00000  Uiso   1.00
C346   C     0.01860   0.47096   0.38913   0.00000  Uiso   1.00
C347   C     0.31502   0.48706   0.41611   0.00000  Uiso   1.00
H348   H     0.23872   0.41781   0.38021   0.00000  Uiso   1.00
H349   H     0.30418   0.38956   0.33309   0.00000  Uiso   1.00
H350   H     0.04331   0.42341   0.33855   0.00000  Uiso   1.00
H351   H     0.05026   0.48560   0.39130   0.00000  Uiso   1.00
H352   H     0.31840   0.51423   0.43919   0.00000  Uiso   1.00
O353   O     0.04808   0.54970   0.01558   0.00000  Uiso   1.00
C354   C     0.03853   0.58662   0.00284   0.00000  Uiso   1.00
H355   H     0.02622   0.57981   0.47230   0.00000  Uiso   1.00
H356   H     0.06720   0.61094   0.49680   0.00000  Uiso   1.00
C357   C     0.00318   0.60396   0.04033   0.00000  Uiso   1.00
H358   H     0.01435   0.61145   0.07150   0.00000  Uiso   1.00
H359   H     0.32832   0.63277   0.03060   0.00000  Uiso   1.00
H360   H     0.30712   0.58073   0.04679   0.00000  Uiso   1.00
Zn361  Zn    0.52672   0.47327   0.28734   0.00000  Uiso   1.00
Zn362  Zn    0.46713   0.45791   0.21876   0.00000  Uiso   1.00
Zn363  Zn    0.54389   0.53109   0.20657   0.00000  Uiso   1.00
Zn364  Zn    0.46226   0.53773   0.28734   0.00000  Uiso   1.00
O365   O     0.50000   0.50000   0.25000   0.00000  Uiso   1.00
O366   O     0.40405   0.52211   0.28213   0.00000  Uiso   1.00
O367   O     0.58824   0.48559   0.27014   0.00000  Uiso   1.00
O368   O     0.47093   0.40277   0.23413   0.00000  Uiso   1.00
O369   O     0.53678   0.58953   0.21361   0.00000  Uiso   1.00
O370   O     0.48784   0.45970   0.15459   0.00000  Uiso   1.00
O371   O     0.46274   0.53724   0.34968   0.00000  Uiso   1.00
O372   O     0.54157   0.51092   0.14606   0.00000  Uiso   1.00
O373   O     0.50785   0.49213   0.34968   0.00000  Uiso   1.00
O374   O     0.51264   0.41352   0.28214   0.00000  Uiso   1.00
O375   O     0.47965   0.59418   0.27014   0.00000  Uiso   1.00
O376   O     0.40745   0.46625   0.23413   0.00000  Uiso   1.00
O377   O     0.60026   0.52605   0.21361   0.00000  Uiso   1.00
C378   C     0.38604   0.49308   0.25991   0.00000  Uiso   1.00
C379   C     0.61417   0.50705   0.23976   0.00000  Uiso   1.00
C380   C     0.48880   0.38938   0.26022   0.00000  Uiso   1.00
C381   C     0.51047   0.61139   0.24099   0.00000  Uiso   1.00
C382   C     0.51881   0.48150   0.12935   0.00000  Uiso   1.00
C383   C     0.48294   0.51899   0.37082   0.00000  Uiso   1.00
C384   C     0.57674   0.46002   0.00996   0.00000  Uiso   1.00
H385   H     0.58454   0.44631   0.07278   0.00000  Uiso   1.00
H386   H     0.60617   0.44748   0.49190   0.00000  Uiso   1.00
C387   C     0.52716   0.47521   0.08104   0.00000  Uiso   1.00
C388   C     0.43563   0.54017   0.44416   0.00000  Uiso   1.00
C389   C     0.42169   0.53965   0.49090   0.00000  Uiso   1.00
C390   C     0.44656   0.52323   0.01325   0.00000  Uiso   1.00
C391   C     0.48729   0.51045   0.49067   0.00000  Uiso   1.00
C392   C     0.50221   0.51369   0.44377   0.00000  Uiso   1.00
C393   C     0.51319   0.49372   0.01311   0.00000  Uiso   1.00
C394   C     0.55260   0.47881   0.48802   0.00000  Uiso   1.00
C395   C     0.56763   0.48409   0.44190   0.00000  Uiso   1.00
C396   C     0.54393   0.50393   0.42140   0.00000  Uiso   1.00
C397   C     0.50146   0.49175   0.05998   0.00000  Uiso   1.00
C398   C     0.56433   0.45878   0.05618   0.00000  Uiso   1.00
C399   C     0.47470   0.52595   0.42018   0.00000  Uiso   1.00
H400   H     0.47397   0.50501   0.08160   0.00000  Uiso   1.00
H401   H     0.41473   0.54928   0.42611   0.00000  Uiso   1.00
H402   H     0.43248   0.52063   0.04851   0.00000  Uiso   1.00
H403   H     0.55916   0.51162   0.38744   0.00000  Uiso   1.00
C404   C     0.66025   0.50910   0.23493   0.00000  Uiso   1.00
H405   H     0.34965   0.52529   0.20790   0.00000  Uiso   1.00
C406   C     0.34069   0.49093   0.26380   0.00000  Uiso   1.00
H407   H     0.65188   0.47523   0.29145   0.00000  Uiso   1.00
C408   C     0.51671   0.65663   0.24146   0.00000  Uiso   1.00
C409   C     0.48308   0.34496   0.26119   0.00000  Uiso   1.00
C410   C     0.56125   0.34452   0.22398   0.00000  Uiso   1.00
C411   C     0.59385   0.34102   0.24486   0.00000  Uiso   1.00
C412   C     0.63512   0.36266   0.23017   0.00000  Uiso   1.00
C413   C     0.64421   0.38766   0.19443   0.00000  Uiso   1.00
C414   C     0.61214   0.39084   0.17306   0.00000  Uiso   1.00
C415   C     0.57083   0.36925   0.18761   0.00000  Uiso   1.00
H416   H     0.58707   0.65552   0.27299   0.00000  Uiso   1.00
H417   H     0.65999   0.36029   0.24669   0.00000  Uiso   1.00
H418   H     0.34276   0.40458   0.18330   0.00000  Uiso   1.00
H419   H     0.61923   0.41018   0.14534   0.00000  Uiso   1.00
H420   H     0.54623   0.37212   0.17089   0.00000  Uiso   1.00
C421   C     0.43710   0.65919   0.27366   0.00000  Uiso   1.00
C422   C     0.41158   0.66663   0.31746   0.00000  Uiso   1.00
C423   C     0.36788   0.65053   0.32882   0.00000  Uiso   1.00
C424   C     0.34925   0.62730   0.29647   0.00000  Uiso   1.00
C425   C     0.37425   0.62031   0.25264   0.00000  Uiso   1.00
C426   C     0.41798   0.63627   0.24115   0.00000  Uiso   1.00
H427   H     0.42555   0.35160   0.34271   0.00000  Uiso   1.00
H428   H     0.34838   0.65630   0.36264   0.00000  Uiso   1.00
H429   H     0.64871   0.61504   0.30524   0.00000  Uiso   1.00
H430   H     0.35964   0.60290   0.22746   0.00000  Uiso   1.00
H431   H     0.43686   0.63113   0.20692   0.00000  Uiso   1.00
C432   C     0.60722   0.46786   0.41335   0.00000  Uiso   1.00
C433   C     0.60355   0.43282   0.38294   0.00000  Uiso   1.00
C434   C     0.64052   0.41671   0.35627   0.00000  Uiso   1.00
C435   C     0.34803   0.43577   0.35936   0.00000  Uiso   1.00
C436   C     0.35193   0.47096   0.38913   0.00000  Uiso   1.00
C437   C     0.64835   0.48706   0.41611   0.00000  Uiso   1.00
H438   H     0.57205   0.41781   0.38021   0.00000  Uiso   1.00
H439   H     0.63751   0.38956   0.33309   0.00000  Uiso   1.00
H440   H     0.37664   0.42341   0.33855   0.00000  Uiso   1.00
H441   H     0.38360   0.48560   0.39130   0.00000  Uiso   1.00
H442   H     0.65174   0.51423   0.43919   0.00000  Uiso   1.00
O443   O     0.38142   0.54970   0.01558   0.00000  Uiso   1.00
C444   C     0.37186   0.58662   0.00284   0.00000  Uiso   1.00
H445   H     0.35955   0.57981   0.47230   0.00000  Uiso   1.00
H446   H     0.40053   0.61094   0.49680   0.00000  Uiso   1.00
C447   C     0.33651   0.60396   0.04033   0.00000  Uiso   1.00
H448   H     0.34768   0.61145   0.07150   0.00000  Uiso   1.00
H449   H     0.66165   0.63277   0.03060   0.00000  Uiso   1.00
H450   H     0.64046   0.58073   0.04679   0.00000  Uiso   1.00
Zn451  Zn    0.86005   0.47327   0.28734   0.00000  Uiso   1.00
Zn452  Zn    0.80046   0.45791   0.21876   0.00000  Uiso   1.00
Zn453  Zn    0.87723   0.53109   0.20657   0.00000  Uiso   1.00
Zn454  Zn    0.79560   0.53773   0.28734   0.00000  Uiso   1.00
O455   O     0.83333   0.50000   0.25000   0.00000  Uiso   1.00
O456   O     0.73738   0.52211   0.28213   0.00000  Uiso   1.00
O457   O     0.92158   0.48559   0.27014   0.00000  Uiso   1.00
O458   O     0.80426   0.40277   0.23413   0.00000  Uiso   1.00
O459   O     0.87012   0.58953   0.21361   0.00000  Uiso   1.00
O460   O     0.82118   0.45970   0.15459   0.00000  Uiso   1.00
O461   O     0.79607   0.53724   0.34968   0.00000  Uiso   1.00
O462   O     0.87491   0.51092   0.14606   0.00000  Uiso   1.00
O463   O     0.84118   0.49213   0.34968   0.00000  Uiso   1.00
O464   O     0.84597   0.41352   0.28214   0.00000  Uiso   1.00
O465   O     0.81298   0.59418   0.27014   0.00000  Uiso   1.00
O466   O     0.74078   0.46625   0.23413   0.00000  Uiso   1.00
O467   O     0.93360   0.52605   0.21361   0.00000  Uiso   1.00
C468   C     0.71937   0.49308   0.25991   0.00000  Uiso   1.00
C469   C     0.94750   0.50705   0.23976   0.00000  Uiso   1.00
C470   C     0.82213   0.38938   0.26022   0.00000  Uiso   1.00
C471   C     0.84381   0.61139   0.24099   0.00000  Uiso   1.00
C472   C     0.85214   0.48150   0.12935   0.00000  Uiso   1.00
C473   C     0.81627   0.51899   0.37082   0.00000  Uiso   1.00
C474   C     0.91008   0.46002   0.00996   0.00000  Uiso   1.00
H475   H     0.91788   0.44631   0.07278   0.00000  Uiso   1.00
H476   H     0.93951   0.44748   0.49190   0.00000  Uiso   1.00
C477   C     0.86049   0.47521   0.08104   0.00000  Uiso   1.00
C478   C     0.76896   0.54017   0.44416   0.00000  Uiso   1.00
C479   C     0.75503   0.53965   0.49090   0.00000  Uiso   1.00
C480   C     0.77990   0.52323   0.01325   0.00000  Uiso   1.00
C481   C     0.82062   0.51045   0.49067   0.00000  Uiso   1.00
C482   C     0.83554   0.51369   0.44377   0.00000  Uiso   1.00
C483   C     0.84653   0.49372   0.01311   0.00000  Uiso   1.00
C484   C     0.88593   0.47881   0.48802   0.00000  Uiso   1.00
C485   C     0.90097   0.48409   0.44190   0.00000  Uiso   1.00
C486   C     0.87726   0.50393   0.42140   0.00000  Uiso   1.00
C487   C     0.83479   0.49175   0.05998   0.00000  Uiso   1.00
C488   C     0.89767   0.45878   0.05618   0.00000  Uiso   1.00
C489   C     0.80803   0.52595   0.42018   0.00000  Uiso   1.00
H490   H     0.80731   0.50501   0.08160   0.00000  Uiso   1.00
H491   H     0.74806   0.54928   0.42611   0.00000  Uiso   1.00
H492   H     0.76581   0.52063   0.04851   0.00000  Uiso   1.00
H493   H     0.89249   0.51162   0.38744   0.00000  Uiso   1.00
C494   C     0.99358   0.50910   0.23493   0.00000  Uiso   1.00
H495   H     0.68298   0.52529   0.20790   0.00000  Uiso   1.00
C496   C     0.67402   0.49093   0.26380   0.00000  Uiso   1.00
H497   H     0.98521   0.47523   0.29145   0.00000  Uiso   1.00
C498   C     0.85004   0.65663   0.24146   0.00000  Uiso   1.00
C499   C     0.81642   0.34496   0.26119   0.00000  Uiso   1.00
C500   C     0.89458   0.34452   0.22398   0.00000  Uiso   1.00
C501   C     0.92718   0.34102   0.24486   0.00000  Uiso   1.00
C502   C     0.96845   0.36266   0.23017   0.00000  Uiso   1.00
C503   C     0.97754   0.38766   0.19443   0.00000  Uiso   1.00
C504   C     0.94547   0.39084   0.17306   0.00000  Uiso   1.00
C505   C     0.90417   0.36925   0.18761   0.00000  Uiso   1.00
H506   H     0.92040   0.65552   0.27299   0.00000  Uiso   1.00
H507   H     0.99332   0.36029   0.24669   0.00000  Uiso   1.00
H508   H     0.67609   0.40458   0.18330   0.00000  Uiso   1.00
H509   H     0.95256   0.41018   0.14534   0.00000  Uiso   1.00
H510   H     0.87956   0.37212   0.17089   0.00000  Uiso   1.00
C511   C     0.77043   0.65919   0.27366   0.00000  Uiso   1.00
C512   C     0.74492   0.66663   0.31746   0.00000  Uiso   1.00
C513   C     0.70121   0.65053   0.32882   0.00000  Uiso   1.00
C514   C     0.68259   0.62730   0.29647   0.00000  Uiso   1.00
C515   C     0.70758   0.62031   0.25264   0.00000  Uiso   1.00
C516   C     0.75131   0.63627   0.24115   0.00000  Uiso   1.00
H517   H     0.75888   0.35160   0.34271   0.00000  Uiso   1.00
H518   H     0.68171   0.65630   0.36264   0.00000  Uiso   1.00
H519   H     0.98204   0.61504   0.30524   0.00000  Uiso   1.00
H520   H     0.69297   0.60290   0.22746   0.00000  Uiso   1.00
H521   H     0.77019   0.63113   0.20692   0.00000  Uiso   1.00
C522   C     0.94055   0.46786   0.41335   0.00000  Uiso   1.00
C523   C     0.93688   0.43282   0.38294   0.00000  Uiso   1.00
C524   C     0.97385   0.41671   0.35627   0.00000  Uiso   1.00
C525   C     0.68136   0.43577   0.35936   0.00000  Uiso   1.00
C526   C     0.68526   0.47096   0.38913   0.00000  Uiso   1.00
C527   C     0.98168   0.48706   0.41611   0.00000  Uiso   1.00
H528   H     0.90539   0.41781   0.38021   0.00000  Uiso   1.00
H529   H     0.97084   0.38956   0.33309   0.00000  Uiso   1.00
H530   H     0.70998   0.42341   0.33855   0.00000  Uiso   1.00
H531   H     0.71693   0.48560   0.39130   0.00000  Uiso   1.00
H532   H     0.98507   0.51423   0.43919   0.00000  Uiso   1.00
O533   O     0.71475   0.54970   0.01558   0.00000  Uiso   1.00
C534   C     0.70519   0.58662   0.00284   0.00000  Uiso   1.00
H535   H     0.69289   0.57981   0.47230   0.00000  Uiso   1.00
H536   H     0.73386   0.61094   0.49680   0.00000  Uiso   1.00
C537   C     0.66985   0.60396   0.04033   0.00000  Uiso   1.00
H538   H     0.68101   0.61145   0.07150   0.00000  Uiso   1.00
H539   H     0.99498   0.63277   0.03060   0.00000  Uiso   1.00
H540   H     0.97379   0.58073   0.04679   0.00000  Uiso   1.00
Zn541  Zn    0.19338   0.80661   0.28734   0.00000  Uiso   1.00
Zn542  Zn    0.13379   0.79124   0.21876   0.00000  Uiso   1.00
Zn543  Zn    0.21056   0.86442   0.20657   0.00000  Uiso   1.00
Zn544  Zn    0.12893   0.87106   0.28734   0.00000  Uiso   1.00
O545   O     0.16667   0.83333   0.25000   0.00000  Uiso   1.00
O546   O     0.07071   0.85544   0.28213   0.00000  Uiso   1.00
O547   O     0.25491   0.81892   0.27014   0.00000  Uiso   1.00
O548   O     0.13760   0.73610   0.23413   0.00000  Uiso   1.00
O549   O     0.20345   0.92286   0.21361   0.00000  Uiso   1.00
O550   O     0.15451   0.79304   0.15459   0.00000  Uiso   1.00
O551   O     0.12940   0.87058   0.34968   0.00000  Uiso   1.00
O552   O     0.20824   0.84425   0.14606   0.00000  Uiso   1.00
O553   O     0.17451   0.82546   0.34968   0.00000  Uiso   1.00
O554   O     0.17930   0.74686   0.28214   0.00000  Uiso   1.00
O555   O     0.14632   0.92751   0.27014   0.00000  Uiso   1.00
O556   O     0.07412   0.79958   0.23413   0.00000  Uiso   1.00
O557   O     0.26693   0.85939   0.21361   0.00000  Uiso   1.00
C558   C     0.05270   0.82642   0.25991   0.00000  Uiso   1.00
C559   C     0.28083   0.84039   0.23976   0.00000  Uiso   1.00
C560   C     0.15547   0.72272   0.26022   0.00000  Uiso   1.00
C561   C     0.17714   0.94473   0.24099   0.00000  Uiso   1.00
C562   C     0.18548   0.81484   0.12935   0.00000  Uiso   1.00
C563   C     0.14961   0.85232   0.37082   0.00000  Uiso   1.00
C564   C     0.24341   0.79335   0.00996   0.00000  Uiso   1.00
H565   H     0.25121   0.77964   0.07278   0.00000  Uiso   1.00
H566   H     0.27284   0.78082   0.49190   0.00000  Uiso   1.00
C567   C     0.19382   0.80854   0.08104   0.00000  Uiso   1.00
C568   C     0.10229   0.87351   0.44416   0.00000  Uiso   1.00
C569   C     0.08836   0.87299   0.49090   0.00000  Uiso   1.00
C570   C     0.11323   0.85657   0.01325   0.00000  Uiso   1.00
C571   C     0.15395   0.84378   0.49067   0.00000  Uiso   1.00
C572   C     0.16888   0.84703   0.44377   0.00000  Uiso   1.00
C573   C     0.17986   0.82705   0.01311   0.00000  Uiso   1.00
C574   C     0.21926   0.81215   0.48802   0.00000  Uiso   1.00
C575   C     0.23430   0.81743   0.44190   0.00000  Uiso   1.00
C576   C     0.21059   0.83726   0.42140   0.00000  Uiso   1.00
C577   C     0.16812   0.82508   0.05998   0.00000  Uiso   1.00
C578   C     0.23100   0.79211   0.05618   0.00000  Uiso   1.00
C579   C     0.14136   0.85928   0.42018   0.00000  Uiso   1.00
H580   H     0.14064   0.83835   0.08160   0.00000  Uiso   1.00
H581   H     0.08139   0.88261   0.42611   0.00000  Uiso   1.00
H582   H     0.09915   0.85397   0.04851   0.00000  Uiso   1.00
H583   H     0.22583   0.84495   0.38744   0.00000  Uiso   1.00
C584   C     0.32691   0.84243   0.23493   0.00000  Uiso   1.00
H585   H     0.01632   0.85863   0.20790   0.00000  Uiso   1.00
C586   C     0.00736   0.82426   0.26380   0.00000  Uiso   1.00
H587   H     0.31855   0.80856   0.29145   0.00000  Uiso   1.00
C588   C     0.18337   0.98997   0.24146   0.00000  Uiso   1.00
C589   C     0.14975   0.67830   0.26119   0.00000  Uiso   1.00
C590   C     0.22791   0.67785   0.22398   0.00000  Uiso   1.00
C591   C     0.26051   0.67435   0.24486   0.00000  Uiso   1.00
C592   C     0.30179   0.69599   0.23017   0.00000  Uiso   1.00
C593   C     0.31087   0.72100   0.19443   0.00000  Uiso   1.00
C594   C     0.27881   0.72417   0.17306   0.00000  Uiso   1.00
C595   C     0.23750   0.70258   0.18761   0.00000  Uiso   1.00
H596   H     0.25373   0.98885   0.27299   0.00000  Uiso   1.00
H597   H     0.32665   0.69363   0.24669   0.00000  Uiso   1.00
H598   H     0.00942   0.73791   0.18330   0.00000  Uiso   1.00
H599   H     0.28590   0.74351   0.14534   0.00000  Uiso   1.00
H600   H     0.21289   0.70545   0.17089   0.00000  Uiso   1.00
C601   C     0.10377   0.99252   0.27366   0.00000  Uiso   1.00
C602   C     0.07825   0.99997   0.31746   0.00000  Uiso   1.00
C603   C     0.03454   0.98386   0.32882   0.00000  Uiso   1.00
C604   C     0.01592   0.96064   0.29647   0.00000  Uiso   1.00
C605   C     0.04092   0.95365   0.25264   0.00000  Uiso   1.00
C606   C     0.08464   0.96960   0.24115   0.00000  Uiso   1.00
H607   H     0.09222   0.68493   0.34271   0.00000  Uiso   1.00
H608   H     0.01505   0.98963   0.36264   0.00000  Uiso   1.00
H609   H     0.31538   0.94837   0.30524   0.00000  Uiso   1.00
H610   H     0.02630   0.93624   0.22746   0.00000  Uiso   1.00
H611   H     0.10353   0.96446   0.20692   0.00000  Uiso   1.00
C612   C     0.27388   0.80119   0.41335   0.00000  Uiso   1.00
C613   C     0.27021   0.76615   0.38294   0.00000  Uiso   1.00
C614   C     0.30718   0.75004   0.35627   0.00000  Uiso   1.00
C615   C     0.01469   0.76911   0.35936   0.00000  Uiso   1.00
C616   C     0.01860   0.80429   0.38913   0.00000  Uiso   1.00
C617   C     0.31502   0.82040   0.41611   0.00000  Uiso   1.00
H618   H     0.23872   0.75114   0.38021   0.00000  Uiso   1.00
H619   H     0.30418   0.72290   0.33309   0.00000  Uiso   1.00
H620   H     0.04331   0.75674   0.33855   0.00000  Uiso   1.00
H621   H     0.05026   0.81893   0.39130   0.00000  Uiso   1.00
H622   H     0.31840   0.84756   0.43919   0.00000  Uiso   1.00
O623   O     0.04808   0.88303   0.01558   0.00000  Uiso   1.00
C624   C     0.03853   0.91995   0.00284   0.00000  Uiso   1.00
H625   H     0.02622   0.91315   0.47230   0.00000  Uiso   1.00
H626   H     0.06720   0.94428   0.49680   0.00000  Uiso   1.00
C627   C     0.00318   0.93729   0.04033   0.00000  Uiso   1.00
H628   H     0.01435   0.94478   0.07150   0.00000  Uiso   1.00
H629   H     0.32832   0.96611   0.03060   0.00000  Uiso   1.00
H630   H     0.30712   0.91407   0.04679   0.00000  Uiso   1.00
Zn631  Zn    0.52672   0.80661   0.28734   0.00000  Uiso   1.00
Zn632  Zn    0.46713   0.79124   0.21876   0.00000  Uiso   1.00
Zn633  Zn    0.54389   0.86442   0.20657   0.00000  Uiso   1.00
Zn634  Zn    0.46226   0.87106   0.28734   0.00000  Uiso   1.00
O635   O     0.50000   0.83333   0.25000   0.00000  Uiso   1.00
O636   O     0.40405   0.85544   0.28213   0.00000  Uiso   1.00
O637   O     0.58824   0.81892   0.27014   0.00000  Uiso   1.00
O638   O     0.47093   0.73610   0.23413   0.00000  Uiso   1.00
O639   O     0.53678   0.92286   0.21361   0.00000  Uiso   1.00
O640   O     0.48784   0.79304   0.15459   0.00000  Uiso   1.00
O641   O     0.46274   0.87058   0.34968   0.00000  Uiso   1.00
O642   O     0.54157   0.84425   0.14606   0.00000  Uiso   1.00
O643   O     0.50785   0.82546   0.34968   0.00000  Uiso   1.00
O644   O     0.51264   0.74686   0.28214   0.00000  Uiso   1.00
O645   O     0.47965   0.92751   0.27014   0.00000  Uiso   1.00
O646   O     0.40745   0.79958   0.23413   0.00000  Uiso   1.00
O647   O     0.60026   0.85939   0.21361   0.00000  Uiso   1.00
C648   C     0.38604   0.82642   0.25991   0.00000  Uiso   1.00
C649   C     0.61417   0.84039   0.23976   0.00000  Uiso   1.00
C650   C     0.48880   0.72272   0.26022   0.00000  Uiso   1.00
C651   C     0.51047   0.94473   0.24099   0.00000  Uiso   1.00
C652   C     0.51881   0.81484   0.12935   0.00000  Uiso   1.00
C653   C     0.48294   0.85232   0.37082   0.00000  Uiso   1.00
C654   C     0.57674   0.79335   0.00996   0.00000  Uiso   1.00
H655   H     0.58454   0.77964   0.07278   0.00000  Uiso   1.00
H656   H     0.60617   0.78082   0.49190   0.00000  Uiso   1.00
C657   C     0.52716   0.80854   0.08104   0.00000  Uiso   1.00
C658   C     0.43563   0.87351   0.44416   0.00000  Uiso   1.00
C659   C     0.42169   0.87299   0.49090   0.00000  Uiso   1.00
C660   C     0.44656   0.85657   0.01325   0.00000  Uiso   1.00
C661   C     0.48729   0.84378   0.49067   0.00000  Uiso   1.00
C662   C     0.50221   0.84703   0.44377   0.00000  Uiso   1.00
C663   C     0.51319   0.82705   0.01311   0.00000  Uiso   1.00
C664   C     0.55260   0.81215   0.48802   0.00000  Uiso   1.00
C665   C     0.56763   0.81743   0.44190   0.00000  Uiso   1.00
C666   C     0.54393   0.83726   0.42140   0.00000  Uiso   1.00
C667   C     0.50146   0.82508   0.05998   0.00000  Uiso   1.00
C668   C     0.56433   0.79211   0.05618   0.00000  Uiso   1.00
C669   C     0.47470   0.85928   0.42018   0.00000  Uiso   1.00
H670   H     0.47397   0.83835   0.08160   0.00000  Uiso   1.00
H671   H     0.41473   0.88261   0.42611   0.00000  Uiso   1.00
H672   H     0.43248   0.85397   0.04851   0.00000  Uiso   1.00
H673   H     0.55916   0.84495   0.38744   0.00000  Uiso   1.00
C674   C     0.66025   0.84243   0.23493   0.00000  Uiso   1.00
H675   H     0.34965   0.85863   0.20790   0.00000  Uiso   1.00
C676   C     0.34069   0.82426   0.26380   0.00000  Uiso   1.00
H677   H     0.65188   0.80856   0.29145   0.00000  Uiso   1.00
C678   C     0.51671   0.98997   0.24146   0.00000  Uiso   1.00
C679   C     0.48308   0.67830   0.26119   0.00000  Uiso   1.00
C680   C     0.56125   0.67785   0.22398   0.00000  Uiso   1.00
C681   C     0.59385   0.67435   0.24486   0.00000  Uiso   1.00
C682   C     0.63512   0.69599   0.23017   0.00000  Uiso   1.00
C683   C     0.64421   0.72100   0.19443   0.00000  Uiso   1.00
C684   C     0.61214   0.72417   0.17306   0.00000  Uiso   1.00
C685   C     0.57083   0.70258   0.18761   0.00000  Uiso   1.00
H686   H     0.58707   0.98885   0.27299   0.00000  Uiso   1.00
H687   H     0.65999   0.69363   0.24669   0.00000  Uiso   1.00
H688   H     0.34276   0.73791   0.18330   0.00000  Uiso   1.00
H689   H     0.61923   0.74351   0.14534   0.00000  Uiso   1.00
H690   H     0.54623   0.70545   0.17089   0.00000  Uiso   1.00
C691   C     0.43710   0.99252   0.27366   0.00000  Uiso   1.00
C692   C     0.41158   0.99997   0.31746   0.00000  Uiso   1.00
C693   C     0.36788   0.98386   0.32882   0.00000  Uiso   1.00
C694   C     0.34925   0.96064   0.29647   0.00000  Uiso   1.00
C695   C     0.37425   0.95365   0.25264   0.00000  Uiso   1.00
C696   C     0.41798   0.96960   0.24115   0.00000  Uiso   1.00
H697   H     0.42555   0.68493   0.34271   0.00000  Uiso   1.00
H698   H     0.34838   0.98963   0.36264   0.00000  Uiso   1.00
H699   H     0.64871   0.94837   0.30524   0.00000  Uiso   1.00
H700   H     0.35964   0.93624   0.22746   0.00000  Uiso   1.00
H701   H     0.43686   0.96446   0.20692   0.00000  Uiso   1.00
C702   C     0.60722   0.80119   0.41335   0.00000  Uiso   1.00
C703   C     0.60355   0.76615   0.38294   0.00000  Uiso   1.00
C704   C     0.64052   0.75004   0.35627   0.00000  Uiso   1.00
C705   C     0.34803   0.76911   0.35936   0.00000  Uiso   1.00
C706   C     0.35193   0.80429   0.38913   0.00000  Uiso   1.00
C707   C     0.64835   0.82040   0.41611   0.00000  Uiso   1.00
H708   H     0.57205   0.75114   0.38021   0.00000  Uiso   1.00
H709   H     0.63751   0.72290   0.33309   0.00000  Uiso   1.00
H710   H     0.37664   0.75674   0.33855   0.00000  Uiso   1.00
H711   H     0.38360   0.81893   0.39130   0.00000  Uiso   1.00
H712   H     0.65174   0.84756   0.43919   0.00000  Uiso   1.00
O713   O     0.38142   0.88303   0.01558   0.00000  Uiso   1.00
C714   C     0.37186   0.91995   0.00284   0.00000  Uiso   1.00
H715   H     0.35955   0.91315   0.47230   0.00000  Uiso   1.00
H716   H     0.40053   0.94428   0.49680   0.00000  Uiso   1.00
C717   C     0.33651   0.93729   0.04033   0.00000  Uiso   1.00
H718   H     0.34768   0.94478   0.07150   0.00000  Uiso   1.00
H719   H     0.66165   0.96611   0.03060   0.00000  Uiso   1.00
H720   H     0.64046   0.91407   0.04679   0.00000  Uiso   1.00
Zn721  Zn    0.86005   0.80661   0.28734   0.00000  Uiso   1.00
Zn722  Zn    0.80046   0.79124   0.21876   0.00000  Uiso   1.00
Zn723  Zn    0.87723   0.86442   0.20657   0.00000  Uiso   1.00
Zn724  Zn    0.79560   0.87106   0.28734   0.00000  Uiso   1.00
O725   O     0.83333   0.83333   0.25000   0.00000  Uiso   1.00
O726   O     0.73738   0.85544   0.28213   0.00000  Uiso   1.00
O727   O     0.92158   0.81892   0.27014   0.00000  Uiso   1.00
O728   O     0.80426   0.73610   0.23413   0.00000  Uiso   1.00
O729   O     0.87012   0.92286   0.21361   0.00000  Uiso   1.00
O730   O     0.82118   0.79304   0.15459   0.00000  Uiso   1.00
O731   O     0.79607   0.87058   0.34968   0.00000  Uiso   1.00
O732   O     0.87491   0.84425   0.14606   0.00000  Uiso   1.00
O733   O     0.84118   0.82546   0.34968   0.00000  Uiso   1.00
O734   O     0.84597   0.74686   0.28214   0.00000  Uiso   1.00
O735   O     0.81298   0.92751   0.27014   0.00000  Uiso   1.00
O736   O     0.74078   0.79958   0.23413   0.00000  Uiso   1.00
O737   O     0.93360   0.85939   0.21361   0.00000  Uiso   1.00
C738   C     0.71937   0.82642   0.25991   0.00000  Uiso   1.00
C739   C     0.94750   0.84039   0.23976   0.00000  Uiso   1.00
C740   C     0.82213   0.72272   0.26022   0.00000  Uiso   1.00
C741   C     0.84381   0.94473   0.24099   0.00000  Uiso   1.00
C742   C     0.85214   0.81484   0.12935   0.00000  Uiso   1.00
C743   C     0.81627   0.85232   0.37082   0.00000  Uiso   1.00
C744   C     0.91008   0.79335   0.00996   0.00000  Uiso   1.00
H745   H     0.91788   0.77964   0.07278   0.00000  Uiso   1.00
H746   H     0.93951   0.78082   0.49190   0.00000  Uiso   1.00
C747   C     0.86049   0.80854   0.08104   0.00000  Uiso   1.00
C748   C     0.76896   0.87351   0.44416   0.00000  Uiso   1.00
C749   C     0.75503   0.87299   0.49090   0.00000  Uiso   1.00
C750   C     0.77990   0.85657   0.01325   0.00000  Uiso   1.00
C751   C     0.82062   0.84378   0.49067   0.00000  Uiso   1.00
C752   C     0.83554   0.84703   0.44377   0.00000  Uiso   1.00
C753   C     0.84653   0.82705   0.01311   0.00000  Uiso   1.00
C754   C     0.88593   0.81215   0.48802   0.00000  Uiso   1.00
C755   C     0.90097   0.81743   0.44190   0.00000  Uiso   1.00
C756   C     0.87726   0.83726   0.42140   0.00000  Uiso   1.00
C757   C     0.83479   0.82508   0.05998   0.00000  Uiso   1.00
C758   C     0.89767   0.79211   0.05618   0.00000  Uiso   1.00
C759   C     0.80803   0.85928   0.42018   0.00000  Uiso   1.00
H760   H     0.80731   0.83835   0.08160   0.00000  Uiso   1.00
H761   H     0.74806   0.88261   0.42611   0.00000  Uiso   1.00
H762   H     0.76581   0.85397   0.04851   0.00000  Uiso   1.00
H763   H     0.89249   0.84495   0.38744   0.00000  Uiso   1.00
C764   C     0.99358   0.84243   0.23493   0.00000  Uiso   1.00
H765   H     0.68298   0.85863   0.20790   0.00000  Uiso   1.00
C766   C     0.67402   0.82426   0.26380   0.00000  Uiso   1.00
H767   H     0.98521   0.80856   0.29145   0.00000  Uiso   1.00
C768   C     0.85004   0.98997   0.24146   0.00000  Uiso   1.00
C769   C     0.81642   0.67830   0.26119   0.00000  Uiso   1.00
C770   C     0.89458   0.67785   0.22398   0.00000  Uiso   1.00
C771   C     0.92718   0.67435   0.24486   0.00000  Uiso   1.00
C772   C     0.96845   0.69599   0.23017   0.00000  Uiso   1.00
C773   C     0.97754   0.72100   0.19443   0.00000  Uiso   1.00
C774   C     0.94547   0.72417   0.17306   0.00000  Uiso   1.00
C775   C     0.90417   0.70258   0.18761   0.00000  Uiso   1.00
H776   H     0.92040   0.98885   0.27299   0.00000  Uiso   1.00
H777   H     0.99332   0.69363   0.24669   0.00000  Uiso   1.00
H778   H     0.67609   0.73791   0.18330   0.00000  Uiso   1.00
H779   H     0.95256   0.74351   0.14534   0.00000  Uiso   1.00
H780   H     0.87956   0.70545   0.17089   0.00000  Uiso   1.00
C781   C     0.77043   0.99252   0.27366   0.00000  Uiso   1.00
C782   C     0.74492   0.99997   0.31746   0.00000  Uiso   1.00
C783   C     0.70121   0.98386   0.32882   0.00000  Uiso   1.00
C784   C     0.68259   0.96064   0.29647   0.00000  Uiso   1.00
C785   C     0.70758   0.95365   0.25264   0.00000  Uiso   1.00
C786   C     0.75131   0.96960   0.24115   0.00000  Uiso   1.00
H787   H     0.75888   0.68493   0.34271   0.00000  Uiso   1.00
H788   H     0.68171   0.98963   0.36264   0.00000  Uiso   1.00
H789   H     0.98204   0.94837   0.30524   0.00000  Uiso   1.00
H790   H     0.69297   0.93624   0.22746   0.00000  Uiso   1.00
H791   H     0.77019   0.96446   0.20692   0.00000  Uiso   1.00
C792   C     0.94055   0.80119   0.41335   0.00000  Uiso   1.00
C793   C     0.93688   0.76615   0.38294   0.00000  Uiso   1.00
C794   C     0.97385   0.75004   0.35627   0.00000  Uiso   1.00
C795   C     0.68136   0.76911   0.35936   0.00000  Uiso   1.00
C796   C     0.68526   0.80429   0.38913   0.00000  Uiso   1.00
C797   C     0.98168   0.82040   0.41611   0.00000  Uiso   1.00
H798   H     0.90539   0.75114   0.38021   0.00000  Uiso   1.00
H799   H     0.97084   0.72290   0.33309   0.00000  Uiso   1.00
H800   H     0.70998   0.75674   0.33855   0.00000  Uiso   1.00
H801   H     0.71693   0.81893   0.39130   0.00000  Uiso   1.00
H802   H     0.98507   0.84756   0.43919   0.00000  Uiso   1.00
O803   O     0.71475   0.88303   0.01558   0.00000  Uiso   1.00
C804   C     0.70519   0.91995   0.00284   0.00000  Uiso   1.00
H805   H     0.69289   0.91315   0.47230   0.00000  Uiso   1.00
H806   H     0.73386   0.94428   0.49680   0.00000  Uiso   1.00
C807   C     0.66985   0.93729   0.04033   0.00000  Uiso   1.00
H808   H     0.68101   0.94478   0.07150   0.00000  Uiso   1.00
H809   H     0.99498   0.96611   0.03060   0.00000  Uiso   1.00
H810   H     0.97379   0.91407   0.04679   0.00000  Uiso   1.00
Zn811  Zn    0.19338   0.13994   0.78734   0.00000  Uiso   1.00
Zn812  Zn    0.13379   0.12458   0.71876   0.00000  Uiso   1.00
Zn813  Zn    0.21056   0.19775   0.70657   0.00000  Uiso   1.00
Zn814  Zn    0.12893   0.20439   0.78734   0.00000  Uiso   1.00
O815   O     0.16667   0.16667   0.75000   0.00000  Uiso   1.00
O816   O     0.07071   0.18878   0.78213   0.00000  Uiso   1.00
O817   O     0.25491   0.15226   0.77014   0.00000  Uiso   1.00
O818   O     0.13760   0.06944   0.73413   0.00000  Uiso   1.00
O819   O     0.20345   0.25620   0.71361   0.00000  Uiso   1.00
O820   O     0.15451   0.12637   0.65459   0.00000  Uiso   1.00
O821   O     0.12940   0.20391   0.84968   0.00000  Uiso   1.00
O822   O     0.20824   0.17759   0.64606   0.00000  Uiso   1.00
O823   O     0.17451   0.15880   0.84968   0.00000  Uiso   1.00
O824   O     0.17930   0.08019   0.78214   0.00000  Uiso   1.00
O825   O     0.14632   0.26085   0.77014   0.00000  Uiso   1.00
O826   O     0.07412   0.13291   0.73413   0.00000  Uiso   1.00
O827   O     0.26693   0.19272   0.71361   0.00000  Uiso   1.00
C828   C     0.05270   0.15975   0.75991   0.00000  Uiso   1.00
C829   C     0.28083   0.17372   0.73976   0.00000  Uiso   1.00
C830   C     0.15547   0.05605   0.76022   0.00000  Uiso   1.00
C831   C     0.17714   0.27806   0.74099   0.00000  Uiso   1.00
C832   C     0.18548   0.14817   0.62935   0.00000  Uiso   1.00
C833   C     0.14961   0.18565   0.87082   0.00000  Uiso   1.00
C834   C     0.24341   0.12669   0.50996   0.00000  Uiso   1.00
H835   H     0.25121   0.11298   0.57278   0.00000  Uiso   1.00
H836   H     0.27284   0.11415   0.99190   0.00000  Uiso   1.00
C837   C     0.19382   0.14187   0.58104   0.00000  Uiso   1.00
C838   C     0.10229   0.20684   0.94416   0.00000  Uiso   1.00
C839   C     0.08836   0.20632   0.99090   0.00000  Uiso   1.00
C840   C     0.11323   0.18990   0.51325   0.00000  Uiso   1.00
C841   C     0.15395   0.17712   0.99067   0.00000  Uiso   1.00
C842   C     0.16888   0.18036   0.94377   0.00000  Uiso   1.00
C843   C     0.17986   0.16039   0.51311   0.00000  Uiso   1.00
C844   C     0.21926   0.14548   0.98802   0.00000  Uiso   1.00
C845   C     0.23430   0.15076   0.94190   0.00000  Uiso   1.00
C846   C     0.21059   0.17059   0.92140   0.00000  Uiso   1.00
C847   C     0.16812   0.15842   0.55998   0.00000  Uiso   1.00
C848   C     0.23100   0.12545   0.55618   0.00000  Uiso   1.00
C849   C     0.14136   0.19261   0.92018   0.00000  Uiso   1.00
H850   H     0.14064   0.17168   0.58160   0.00000  Uiso   1.00
H851   H     0.08139   0.21595   0.92611   0.00000  Uiso   1.00
H852   H     0.09915   0.18730   0.54851   0.00000  Uiso   1.00
H853   H     0.22583   0.17829   0.88744   0.00000  Uiso   1.00
C854   C     0.32691   0.17576   0.73493   0.00000  Uiso   1.00
H855   H     0.01632   0.19196   0.70790   0.00000  Uiso   1.00
C856   C     0.00736   0.15760   0.76380   0.00000  Uiso   1.00
H857   H     0.31855   0.14190   0.79145   0.00000  Uiso   1.00
C858   C     0.18337   0.32330   0.74146   0.00000  Uiso   1.00
C859   C     0.14975   0.01163   0.76119   0.00000  Uiso   1.00
C860   C     0.22791   0.01118   0.72398   0.00000  Uiso   1.00
C861   C     0.26051   0.00769   0.74486   0.00000  Uiso   1.00
C862   C     0.30179   0.02932   0.73017   0.00000  Uiso   1.00
C863   C     0.31087   0.05433   0.69443   0.00000  Uiso   1.00
C864   C     0.27881   0.05750   0.67306   0.00000  Uiso   1.00
C865   C     0.23750   0.03592   0.68761   0.00000  Uiso   1.00
H866   H     0.25373   0.32219   0.77299   0.00000  Uiso   1.00
H867   H     0.32665   0.02696   0.74669   0.00000  Uiso   1.00
H868   H     0.00942   0.07125   0.68330   0.00000  Uiso   1.00
H869   H     0.28590   0.07684   0.64534   0.00000  Uiso   1.00
H870   H     0.21289   0.03878   0.67089   0.00000  Uiso   1.00
C871   C     0.10377   0.32586   0.77366   0.00000  Uiso   1.00
C872   C     0.07825   0.33330   0.81746   0.00000  Uiso   1.00
C873   C     0.03454   0.31720   0.82882   0.00000  Uiso   1.00
C874   C     0.01592   0.29397   0.79647   0.00000  Uiso   1.00
C875   C     0.04092   0.28698   0.75264   0.00000  Uiso   1.00
C876   C     0.08464   0.30294   0.74115   0.00000  Uiso   1.00
H877   H     0.09222   0.01827   0.84271   0.00000  Uiso   1.00
H878   H     0.01505   0.32296   0.86264   0.00000  Uiso   1.00
H879   H     0.31538   0.28171   0.80524   0.00000  Uiso   1.00
H880   H     0.02630   0.26957   0.72746   0.00000  Uiso   1.00
H881   H     0.10353   0.29779   0.70692   0.00000  Uiso   1.00
C882   C     0.27388   0.13453   0.91335   0.00000  Uiso   1.00
C883   C     0.27021   0.09948   0.88294   0.00000  Uiso   1.00
C884   C     0.30718   0.08338   0.85627   0.00000  Uiso   1.00
C885   C     0.01469   0.10244   0.85936   0.00000  Uiso   1.00
C886   C     0.01860   0.13762   0.88913   0.00000  Uiso   1.00
C887   C     0.31502   0.15373   0.91611   0.00000  Uiso   1.00
H888   H     0.23872   0.08448   0.88021   0.00000  Uiso   1.00
H889   H     0.30418   0.05623   0.83309   0.00000  Uiso   1.00
H890   H     0.04331   0.09007   0.83855   0.00000  Uiso   1.00
H891   H     0.05026   0.15227   0.89130   0.00000  Uiso   1.00
H892   H     0.31840   0.18089   0.93919   0.00000  Uiso   1.00
O893   O     0.04808   0.21636   0.51558   0.00000  Uiso   1.00
C894   C     0.03853   0.25329   0.50284   0.00000  Uiso   1.00
H895   H     0.02622   0.24648   0.97230   0.00000  Uiso   1.00
H896   H     0.06720   0.27761   0.99680   0.00000  Uiso   1.00
C897   C     0.00318   0.27062   0.54033   0.00000  Uiso   1.00
H898   H     0.01435   0.27812   0.57150   0.00000  Uiso   1.00
H899   H     0.32832   0.29944   0.53060   0.00000  Uiso   1.00
H900   H     0.30712   0.24740   0.54679   0.00000  Uiso   1.00
Zn901  Zn    0.52672   0.13994   0.78734   0.00000  Uiso   1.00
Zn902  Zn    0.46713   0.12458   0.71876   0.00000  Uiso   1.00
Zn903  Zn    0.54389   0.19775   0.70657   0.00000  Uiso   1.00
Zn904  Zn    0.46226   0.20439   0.78734   0.00000  Uiso   1.00
O905   O     0.50000   0.16667   0.75000   0.00000  Uiso   1.00
O906   O     0.40405   0.18878   0.78213   0.00000  Uiso   1.00
O907   O     0.58824   0.15226   0.77014   0.00000  Uiso   1.00
O908   O     0.47093   0.06944   0.73413   0.00000  Uiso   1.00
O909   O     0.53678   0.25620   0.71361   0.00000  Uiso   1.00
O910   O     0.48784   0.12637   0.65459   0.00000  Uiso   1.00
O911   O     0.46274   0.20391   0.84968   0.00000  Uiso   1.00
O912   O     0.54157   0.17759   0.64606   0.00000  Uiso   1.00
O913   O     0.50785   0.15880   0.84968   0.00000  Uiso   1.00
O914   O     0.51264   0.08019   0.78214   0.00000  Uiso   1.00
O915   O     0.47965   0.26085   0.77014   0.00000  Uiso   1.00
O916   O     0.40745   0.13291   0.73413   0.00000  Uiso   1.00
O917   O     0.60026   0.19272   0.71361   0.00000  Uiso   1.00
C918   C     0.38604   0.15975   0.75991   0.00000  Uiso   1.00
C919   C     0.61417   0.17372   0.73976   0.00000  Uiso   1.00
C920   C     0.48880   0.05605   0.76022   0.00000  Uiso   1.00
C921   C     0.51047   0.27806   0.74099   0.00000  Uiso   1.00
C922   C     0.51881   0.14817   0.62935   0.00000  Uiso   1.00
C923   C     0.48294   0.18565   0.87082   0.00000  Uiso   1.00
C924   C     0.57674   0.12669   0.50996   0.00000  Uiso   1.00
H925   H     0.58454   0.11298   0.57278   0.00000  Uiso   1.00
H926   H     0.60617   0.11415   0.99190   0.00000  Uiso   1.00
C927   C     0.52716   0.14187   0.58104   0.00000  Uiso   1.00
C928   C     0.43563   0.20684   0.94416   0.00000  Uiso   1.00
C929   C     0.42169   0.20632   0.99090   0.00000  Uiso   1.00
C930   C     0.44656   0.18990   0.51325   0.00000  Uiso   1.00
C931   C     0.48729   0.17712   0.99067   0.00000  Uiso   1.00
C932   C     0.50221   0.18036   0.94377   0.00000  Uiso   1.00
C933   C     0.51319   0.16039   0.51311   0.00000  Uiso   1.00
C934   C     0.55260   0.14548   0.98802   0.00000  Uiso   1.00
C935   C     0.56763   0.15076   0.94190   0.00000  Uiso   1.00
C936   C     0.54393   0.17059   0.92140   0.00000  Uiso   1.00
C937   C     0.50146   0.15842   0.55998   0.00000  Uiso   1.00
C938   C     0.56433   0.12545   0.55618   0.00000  Uiso   1.00
C939   C     0.47470   0.19261   0.92018   0.00000  Uiso   1.00
H940   H     0.47397   0.17168   0.58160   0.00000  Uiso   1.00
H941   H     0.41473   0.21595   0.92611   0.00000  Uiso   1.00
H942   H     0.43248   0.18730   0.54851   0.00000  Uiso   1.00
H943   H     0.55916   0.17829   0.88744   0.00000  Uiso   1.00
C944   C     0.66025   0.17576   0.73493   0.00000  Uiso   1.00
H945   H     0.34965   0.19196   0.70790   0.00000  Uiso   1.00
C946   C     0.34069   0.15760   0.76380   0.00000  Uiso   1.00
H947   H     0.65188   0.14190   0.79145   0.00000  Uiso   1.00
C948   C     0.51671   0.32330   0.74146   0.00000  Uiso   1.00
C949   C     0.48308   0.01163   0.76119   0.00000  Uiso   1.00
C950   C     0.56125   0.01118   0.72398   0.00000  Uiso   1.00
C951   C     0.59385   0.00769   0.74486   0.00000  Uiso   1.00
C952   C     0.63512   0.02932   0.73017   0.00000  Uiso   1.00
C953   C     0.64421   0.05433   0.69443   0.00000  Uiso   1.00
C954   C     0.61214   0.05750   0.67306   0.00000  Uiso   1.00
C955   C     0.57083   0.03592   0.68761   0.00000  Uiso   1.00
H956   H     0.58707   0.32219   0.77299   0.00000  Uiso   1.00
H957   H     0.65999   0.02696   0.74669   0.00000  Uiso   1.00
H958   H     0.34276   0.07125   0.68330   0.00000  Uiso   1.00
H959   H     0.61923   0.07684   0.64534   0.00000  Uiso   1.00
H960   H     0.54623   0.03878   0.67089   0.00000  Uiso   1.00
C961   C     0.43710   0.32586   0.77366   0.00000  Uiso   1.00
C962   C     0.41158   0.33330   0.81746   0.00000  Uiso   1.00
C963   C     0.36788   0.31720   0.82882   0.00000  Uiso   1.00
C964   C     0.34925   0.29397   0.79647   0.00000  Uiso   1.00
C965   C     0.37425   0.28698   0.75264   0.00000  Uiso   1.00
C966   C     0.41798   0.30294   0.74115   0.00000  Uiso   1.00
H967   H     0.42555   0.01827   0.84271   0.00000  Uiso   1.00
H968   H     0.34838   0.32296   0.86264   0.00000  Uiso   1.00
H969   H     0.64871   0.28171   0.80524   0.00000  Uiso   1.00
H970   H     0.35964   0.26957   0.72746   0.00000  Uiso   1.00
H971   H     0.43686   0.29779   0.70692   0.00000  Uiso   1.00
C972   C     0.60722   0.13453   0.91335   0.00000  Uiso   1.00
C973   C     0.60355   0.09948   0.88294   0.00000  Uiso   1.00
C974   C     0.64052   0.08338   0.85627   0.00000  Uiso   1.00
C975   C     0.34803   0.10244   0.85936   0.00000  Uiso   1.00
C976   C     0.35193   0.13762   0.88913   0.00000  Uiso   1.00
C977   C     0.64835   0.15373   0.91611   0.00000  Uiso   1.00
H978   H     0.57205   0.08448   0.88021   0.00000  Uiso   1.00
H979   H     0.63751   0.05623   0.83309   0.00000  Uiso   1.00
H980   H     0.37664   0.09007   0.83855   0.00000  Uiso   1.00
H981   H     0.38360   0.15227   0.89130   0.00000  Uiso   1.00
H982   H     0.65174   0.18089   0.93919   0.00000  Uiso   1.00
O983   O     0.38142   0.21636   0.51558   0.00000  Uiso   1.00
C984   C     0.37186   0.25329   0.50284   0.00000  Uiso   1.00
H985   H     0.35955   0.24648   0.97230   0.00000  Uiso   1.00
H986   H     0.40053   0.27761   0.99680   0.00000  Uiso   1.00
C987   C     0.33651   0.27062   0.54033   0.00000  Uiso   1.00
H988   H     0.34768   0.27812   0.57150   0.00000  Uiso   1.00
H989   H     0.66165   0.29944   0.53060   0.00000  Uiso   1.00
H990   H     0.64046   0.24740   0.54679   0.00000  Uiso   1.00
Zn991  Zn    0.86005   0.13994   0.78734   0.00000  Uiso   1.00
Zn992  Zn    0.80046   0.12458   0.71876   0.00000  Uiso   1.00
Zn993  Zn    0.87723   0.19775   0.70657   0.00000  Uiso   1.00
Zn994  Zn    0.79560   0.20439   0.78734   0.00000  Uiso   1.00
O995   O     0.83333   0.16667   0.75000   0.00000  Uiso   1.00
O996   O     0.73738   0.18878   0.78213   0.00000  Uiso   1.00
O997   O     0.92158   0.15226   0.77014   0.00000  Uiso   1.00
O998   O     0.80426   0.06944   0.73413   0.00000  Uiso   1.00
O999   O     0.87012   0.25620   0.71361   0.00000  Uiso   1.00
O1000  O     0.82118   0.12637   0.65459   0.00000  Uiso   1.00
O1001  O     0.79607   0.20391   0.84968   0.00000  Uiso   1.00
O1002  O     0.87491   0.17759   0.64606   0.00000  Uiso   1.00
O1003  O     0.84118   0.15880   0.84968   0.00000  Uiso   1.00
O1004  O     0.84597   0.08019   0.78214   0.00000  Uiso   1.00
O1005  O     0.81298   0.26085   0.77014   0.00000  Uiso   1.00
O1006  O     0.74078   0.13291   0.73413   0.00000  Uiso   1.00
O1007  O     0.93360   0.19272   0.71361   0.00000  Uiso   1.00
C1008  C     0.71937   0.15975   0.75991   0.00000  Uiso   1.00
C1009  C     0.94750   0.17372   0.73976   0.00000  Uiso   1.00
C1010  C     0.82213   0.05605   0.76022   0.00000  Uiso   1.00
C1011  C     0.84381   0.27806   0.74099   0.00000  Uiso   1.00
C1012  C     0.85214   0.14817   0.62935   0.00000  Uiso   1.00
C1013  C     0.81627   0.18565   0.87082   0.00000  Uiso   1.00
C1014  C     0.91008   0.12669   0.50996   0.00000  Uiso   1.00
H1015  H     0.91788   0.11298   0.57278   0.00000  Uiso   1.00
H1016  H     0.93951   0.11415   0.99190   0.00000  Uiso   1.00
C1017  C     0.86049   0.14187   0.58104   0.00000  Uiso   1.00
C1018  C     0.76896   0.20684   0.94416   0.00000  Uiso   1.00
C1019  C     0.75503   0.20632   0.99090   0.00000  Uiso   1.00
C1020  C     0.77990   0.18990   0.51325   0.00000  Uiso   1.00
C1021  C     0.82062   0.17712   0.99067   0.00000  Uiso   1.00
C1022  C     0.83554   0.18036   0.94377   0.00000  Uiso   1.00
C1023  C     0.84653   0.16039   0.51311   0.00000  Uiso   1.00
C1024  C     0.88593   0.14548   0.98802   0.00000  Uiso   1.00
C1025  C     0.90097   0.15076   0.94190   0.00000  Uiso   1.00
C1026  C     0.87726   0.17059   0.92140   0.00000  Uiso   1.00
C1027  C     0.83479   0.15842   0.55998   0.00000  Uiso   1.00
C1028  C     0.89767   0.12545   0.55618   0.00000  Uiso   1.00
C1029  C     0.80803   0.19261   0.92018   0.00000  Uiso   1.00
H1030  H     0.80731   0.17168   0.58160   0.00000  Uiso   1.00
H1031  H     0.74806   0.21595   0.92611   0.00000  Uiso   1.00
H1032  H     0.76581   0.18730   0.54851   0.00000  Uiso   1.00
H1033  H     0.89249   0.17829   0.88744   0.00000  Uiso   1.00
C1034  C     0.99358   0.17576   0.73493   0.00000  Uiso   1.00
H1035  H     0.68298   0.19196   0.70790   0.00000  Uiso   1.00
C1036  C     0.67402   0.15760   0.76380   0.00000  Uiso   1.00
H1037  H     0.98521   0.14190   0.79145   0.00000  Uiso   1.00
C1038  C     0.85004   0.32330   0.74146   0.00000  Uiso   1.00
C1039  C     0.81642   0.01163   0.76119   0.00000  Uiso   1.00
C1040  C     0.89458   0.01118   0.72398   0.00000  Uiso   1.00
C1041  C     0.92718   0.00769   0.74486   0.00000  Uiso   1.00
C1042  C     0.96845   0.02932   0.73017   0.00000  Uiso   1.00
C1043  C     0.97754   0.05433   0.69443   0.00000  Uiso   1.00
C1044  C     0.94547   0.05750   0.67306   0.00000  Uiso   1.00
C1045  C     0.90417   0.03592   0.68761   0.00000  Uiso   1.00
H1046  H     0.92040   0.32219   0.77299   0.00000  Uiso   1.00
H1047  H     0.99332   0.02696   0.74669   0.00000  Uiso   1.00
H1048  H     0.67609   0.07125   0.68330   0.00000  Uiso   1.00
H1049  H     0.95256   0.07684   0.64534   0.00000  Uiso   1.00
H1050  H     0.87956   0.03878   0.67089   0.00000  Uiso   1.00
C1051  C     0.77043   0.32586   0.77366   0.00000  Uiso   1.00
C1052  C     0.74492   0.33330   0.81746   0.00000  Uiso   1.00
C1053  C     0.70121   0.31720   0.82882   0.00000  Uiso   1.00
C1054  C     0.68259   0.29397   0.79647   0.00000  Uiso   1.00
C1055  C     0.70758   0.28698   0.75264   0.00000  Uiso   1.00
C1056  C     0.75131   0.30294   0.74115   0.00000  Uiso   1.00
H1057  H     0.75888   0.01827   0.84271   0.00000  Uiso   1.00
H1058  H     0.68171   0.32296   0.86264   0.00000  Uiso   1.00
H1059  H     0.98204   0.28171   0.80524   0.00000  Uiso   1.00
H1060  H     0.69297   0.26957   0.72746   0.00000  Uiso   1.00
H1061  H     0.77019   0.29779   0.70692   0.00000  Uiso   1.00
C1062  C     0.94055   0.13453   0.91335   0.00000  Uiso   1.00
C1063  C     0.93688   0.09948   0.88294   0.00000  Uiso   1.00
C1064  C     0.97385   0.08338   0.85627   0.00000  Uiso   1.00
C1065  C     0.68136   0.10244   0.85936   0.00000  Uiso   1.00
C1066  C     0.68526   0.13762   0.88913   0.00000  Uiso   1.00
C1067  C     0.98168   0.15373   0.91611   0.00000  Uiso   1.00
H1068  H     0.90539   0.08448   0.88021   0.00000  Uiso   1.00
H1069  H     0.97084   0.05623   0.83309   0.00000  Uiso   1.00
H1070  H     0.70998   0.09007   0.83855   0.00000  Uiso   1.00
H1071  H     0.71693   0.15227   0.89130   0.00000  Uiso   1.00
H1072  H     0.98507   0.18089   0.93919   0.00000  Uiso   1.00
O1073  O     0.71475   0.21636   0.51558   0.00000  Uiso   1.00
C1074  C     0.70519   0.25329   0.50284   0.00000  Uiso   1.00
H1075  H     0.69289   0.24648   0.97230   0.00000  Uiso   1.00
H1076  H     0.73386   0.27761   0.99680   0.00000  Uiso   1.00
C1077  C     0.66985   0.27062   0.54033   0.00000  Uiso   1.00
H1078  H     0.68101   0.27812   0.57150   0.00000  Uiso   1.00
H1079  H     0.99498   0.29944   0.53060   0.00000  Uiso   1.00
H1080  H     0.97379   0.24740   0.54679   0.00000  Uiso   1.00
Zn1081 Zn    0.19338   0.47327   0.78734   0.00000  Uiso   1.00
Zn1082 Zn    0.13379   0.45791   0.71876   0.00000  Uiso   1.00
Zn1083 Zn    0.21056   0.53109   0.70657   0.00000  Uiso   1.00
Zn1084 Zn    0.12893   0.53773   0.78734   0.00000  Uiso   1.00
O1085  O     0.16667   0.50000   0.75000   0.00000  Uiso   1.00
O1086  O     0.07071   0.52211   0.78213   0.00000  Uiso   1.00
O1087  O     0.25491   0.48559   0.77014   0.00000  Uiso   1.00
O1088  O     0.13760   0.40277   0.73413   0.00000  Uiso   1.00
O1089  O     0.20345   0.58953   0.71361   0.00000  Uiso   1.00
O1090  O     0.15451   0.45970   0.65459   0.00000  Uiso   1.00
O1091  O     0.12940   0.53724   0.84968   0.00000  Uiso   1.00
O1092  O     0.20824   0.51092   0.64606   0.00000  Uiso   1.00
O1093  O     0.17451   0.49213   0.84968   0.00000  Uiso   1.00
O1094  O     0.17930   0.41352   0.78214   0.00000  Uiso   1.00
O1095  O     0.14632   0.59418   0.77014   0.00000  Uiso   1.00
O1096  O     0.07412   0.46625   0.73413   0.00000  Uiso   1.00
O1097  O     0.26693   0.52605   0.71361   0.00000  Uiso   1.00
C1098  C     0.05270   0.49308   0.75991   0.00000  Uiso   1.00
C1099  C     0.28083   0.50705   0.73976   0.00000  Uiso   1.00
C1100  C     0.15547   0.38938   0.76022   0.00000  Uiso   1.00
C1101  C     0.17714   0.61139   0.74099   0.00000  Uiso   1.00
C1102  C     0.18548   0.48150   0.62935   0.00000  Uiso   1.00
C1103  C     0.14961   0.51899   0.87082   0.00000  Uiso   1.00
C1104  C     0.24341   0.46002   0.50996   0.00000  Uiso   1.00
H1105  H     0.25121   0.44631   0.57278   0.00000  Uiso   1.00
H1106  H     0.27284   0.44748   0.99190   0.00000  Uiso   1.00
C1107  C     0.19382   0.47521   0.58104   0.00000  Uiso   1.00
C1108  C     0.10229   0.54017   0.94416   0.00000  Uiso   1.00
C1109  C     0.08836   0.53965   0.99090   0.00000  Uiso   1.00
C1110  C     0.11323   0.52323   0.51325   0.00000  Uiso   1.00
C1111  C     0.15395   0.51045   0.99067   0.00000  Uiso   1.00
C1112  C     0.16888   0.51369   0.94377   0.00000  Uiso   1.00
C1113  C     0.17986   0.49372   0.51311   0.00000  Uiso   1.00
C1114  C     0.21926   0.47881   0.98802   0.00000  Uiso   1.00
C1115  C     0.23430   0.48409   0.94190   0.00000  Uiso   1.00
C1116  C     0.21059   0.50393   0.92140   0.00000  Uiso   1.00
C1117  C     0.16812   0.49175   0.55998   0.00000  Uiso   1.00
C1118  C     0.23100   0.45878   0.55618   0.00000  Uiso   1.00
C1119  C     0.14136   0.52595   0.92018   0.00000  Uiso   1.00
H1120  H     0.14064   0.50501   0.58160   0.00000  Uiso   1.00
H1121  H     0.08139   0.54928   0.92611   0.00000  Uiso   1.00
H1122  H     0.09915   0.52063   0.54851   0.00000  Uiso   1.00
H1123  H     0.22583   0.51162   0.88744   0.00000  Uiso   1.00
C1124  C     0.32691   0.50910   0.73493   0.00000  Uiso   1.00
H1125  H     0.01632   0.52529   0.70790   0.00000  Uiso   1.00
C1126  C     0.00736   0.49093   0.76380   0.00000  Uiso   1.00
H1127  H     0.31855   0.47523   0.79145   0.00000  Uiso   1.00
C1128  C     0.18337   0.65663   0.74146   0.00000  Uiso   1.00
C1129  C     0.14975   0.34496   0.76119   0.00000  Uiso   1.00
C1130  C     0.22791   0.34452   0.72398   0.00000  Uiso   1.00
C1131  C     0.26051   0.34102   0.74486   0.00000  Uiso   1.00
C1132  C     0.30179   0.36266   0.73017   0.00000  Uiso   1.00
C1133  C     0.31087   0.38766   0.69443   0.00000  Uiso   1.00
C1134  C     0.27881   0.39084   0.67306   0.00000  Uiso   1.00
C1135  C     0.23750   0.36925   0.68761   0.00000  Uiso   1.00
H1136  H     0.25373   0.65552   0.77299   0.00000  Uiso   1.00
H1137  H     0.32665   0.36029   0.74669   0.00000  Uiso   1.00
H1138  H     0.00942   0.40458   0.68330   0.00000  Uiso   1.00
H1139  H     0.28590   0.41018   0.64534   0.00000  Uiso   1.00
H1140  H     0.21289   0.37212   0.67089   0.00000  Uiso   1.00
C1141  C     0.10377   0.65919   0.77366   0.00000  Uiso   1.00
C1142  C     0.07825   0.66663   0.81746   0.00000  Uiso   1.00
C1143  C     0.03454   0.65053   0.82882   0.00000  Uiso   1.00
C1144  C     0.01592   0.62730   0.79647   0.00000  Uiso   1.00
C1145  C     0.04092   0.62031   0.75264   0.00000  Uiso   1.00
C1146  C     0.08464   0.63627   0.74115   0.00000  Uiso   1.00
H1147  H     0.09222   0.35160   0.84271   0.00000  Uiso   1.00
H1148  H     0.01505   0.65630   0.86264   0.00000  Uiso   1.00
H1149  H     0.31538   0.61504   0.80524   0.00000  Uiso   1.00
H1150  H     0.02630   0.60290   0.72746   0.00000  Uiso   1.00
H1151  H     0.10353   0.63113   0.70692   0.00000  Uiso   1.00
C1152  C     0.27388   0.46786   0.91335   0.00000  Uiso   1.00
C1153  C     0.27021   0.43282   0.88294   0.00000  Uiso   1.00
C1154  C     0.30718   0.41671   0.85627   0.00000  Uiso   1.00
C1155  C     0.01469   0.43577   0.85936   0.00000  Uiso   1.00
C1156  C     0.01860   0.47096   0.88913   0.00000  Uiso   1.00
C1157  C     0.31502   0.48706   0.91611   0.00000  Uiso   1.00
H1158  H     0.23872   0.41781   0.88021   0.00000  Uiso   1.00
H1159  H     0.30418   0.38956   0.83309   0.00000  Uiso   1.00
H1160  H     0.04331   0.42341   0.83855   0.00000  Uiso   1.00
H1161  H     0.05026   0.48560   0.89130   0.00000  Uiso   1.00
H1162  H     0.31840   0.51423   0.93919   0.00000  Uiso   1.00
O1163  O     0.04808   0.54970   0.51558   0.00000  Uiso   1.00
C1164  C     0.03853   0.58662   0.50284   0.00000  Uiso   1.00
H1165  H     0.02622   0.57981   0.97230   0.00000  Uiso   1.00
H1166  H     0.06720   0.61094   0.99680   0.00000  Uiso   1.00
C1167  C     0.00318   0.60396   0.54033   0.00000  Uiso   1.00
H1168  H     0.01435   0.61145   0.57150   0.00000  Uiso   1.00
H1169  H     0.32832   0.63277   0.53060   0.00000  Uiso   1.00
H1170  H     0.30712   0.58073   0.54679   0.00000  Uiso   1.00
Zn1171 Zn    0.52672   0.47327   0.78734   0.00000  Uiso   1.00
Zn1172 Zn    0.46713   0.45791   0.71876   0.00000  Uiso   1.00
Zn1173 Zn    0.54389   0.53109   0.70657   0.00000  Uiso   1.00
Zn1174 Zn    0.46226   0.53773   0.78734   0.00000  Uiso   1.00
O1175  O     0.50000   0.50000   0.75000   0.00000  Uiso   1.00
O1176  O     0.40405   0.52211   0.78213   0.00000  Uiso   1.00
O1177  O     0.58824   0.48559   0.77014   0.00000  Uiso   1.00
O1178  O     0.47093   0.40277   0.73413   0.00000  Uiso   1.00
O1179  O     0.53678   0.58953   0.71361   0.00000  Uiso   1.00
O1180  O     0.48784   0.45970   0.65459   0.00000  Uiso   1.00
O1181  O     0.46274   0.53724   0.84968   0.00000  Uiso   1.00
O1182  O     0.54157   0.51092   0.64606   0.00000  Uiso   1.00
O1183  O     0.50785   0.49213   0.84968   0.00000  Uiso   1.00
O1184  O     0.51264   0.41352   0.78214   0.00000  Uiso   1.00
O1185  O     0.47965   0.59418   0.77014   0.00000  Uiso   1.00
O1186  O     0.40745   0.46625   0.73413   0.00000  Uiso   1.00
O1187  O     0.60026   0.52605   0.71361   0.00000  Uiso   1.00
C1188  C     0.38604   0.49308   0.75991   0.00000  Uiso   1.00
C1189  C     0.61417   0.50705   0.73976   0.00000  Uiso   1.00
C1190  C     0.48880   0.38938   0.76022   0.00000  Uiso   1.00
C1191  C     0.51047   0.61139   0.74099   0.00000  Uiso   1.00
C1192  C     0.51881   0.48150   0.62935   0.00000  Uiso   1.00
C1193  C     0.48294   0.51899   0.87082   0.00000  Uiso   1.00
C1194  C     0.57674   0.46002   0.50996   0.00000  Uiso   1.00
H1195  H     0.58454   0.44631   0.57278   0.00000  Uiso   1.00
H1196  H     0.60617   0.44748   0.99190   0.00000  Uiso   1.00
C1197  C     0.52716   0.47521   0.58104   0.00000  Uiso   1.00
C1198  C     0.43563   0.54017   0.94416   0.00000  Uiso   1.00
C1199  C     0.42169   0.53965   0.99090   0.00000  Uiso   1.00
C1200  C     0.44656   0.52323   0.51325   0.00000  Uiso   1.00
C1201  C     0.48729   0.51045   0.99067   0.00000  Uiso   1.00
C1202  C     0.50221   0.51369   0.94377   0.00000  Uiso   1.00
C1203  C     0.51319   0.49372   0.51311   0.00000  Uiso   1.00
C1204  C     0.55260   0.47881   0.98802   0.00000  Uiso   1.00
C1205  C     0.56763   0.48409   0.94190   0.00000  Uiso   1.00
C1206  C     0.54393   0.50393   0.92140   0.00000  Uiso   1.00
C1207  C     0.50146   0.49175   0.55998   0.00000  Uiso   1.00
C1208  C     0.56433   0.45878   0.55618   0.00000  Uiso   1.00
C1209  C     0.47470   0.52595   0.92018   0.00000  Uiso   1.00
H1210  H     0.47397   0.50501   0.58160   0.00000  Uiso   1.00
H1211  H     0.41473   0.54928   0.92611   0.00000  Uiso   1.00
H1212  H     0.43248   0.52063   0.54851   0.00000  Uiso   1.00
H1213  H     0.55916   0.51162   0.88744   0.00000  Uiso   1.00
C1214  C     0.66025   0.50910   0.73493   0.00000  Uiso   1.00
H1215  H     0.34965   0.52529   0.70790   0.00000  Uiso   1.00
C1216  C     0.34069   0.49093   0.76380   0.00000  Uiso   1.00
H1217  H     0.65188   0.47523   0.79145   0.00000  Uiso   1.00
C1218  C     0.51671   0.65663   0.74146   0.00000  Uiso   1.00
C1219  C     0.48308   0.34496   0.76119   0.00000  Uiso   1.00
C1220  C     0.56125   0.34452   0.72398   0.00000  Uiso   1.00
C1221  C     0.59385   0.34102   0.74486   0.00000  Uiso   1.00
C1222  C     0.63512   0.36266   0.73017   0.00000  Uiso   1.00
C1223  C     0.64421   0.38766   0.69443   0.00000  Uiso   1.00
C1224  C     0.61214   0.39084   0.67306   0.00000  Uiso   1.00
C1225  C     0.57083   0.36925   0.68761   0.00000  Uiso   1.00
H1226  H     0.58707   0.65552   0.77299   0.00000  Uiso   1.00
H1227  H     0.65999   0.36029   0.74669   0.00000  Uiso   1.00
H1228  H     0.34276   0.40458   0.68330   0.00000  Uiso   1.00
H1229  H     0.61923   0.41018   0.64534   0.00000  Uiso   1.00
H1230  H     0.54623   0.37212   0.67089   0.00000  Uiso   1.00
C1231  C     0.43710   0.65919   0.77366   0.00000  Uiso   1.00
C1232  C     0.41158   0.66663   0.81746   0.00000  Uiso   1.00
C1233  C     0.36788   0.65053   0.82882   0.00000  Uiso   1.00
C1234  C     0.34925   0.62730   0.79647   0.00000  Uiso   1.00
C1235  C     0.37425   0.62031   0.75264   0.00000  Uiso   1.00
C1236  C     0.41798   0.63627   0.74115   0.00000  Uiso   1.00
H1237  H     0.42555   0.35160   0.84271   0.00000  Uiso   1.00
H1238  H     0.34838   0.65630   0.86264   0.00000  Uiso   1.00
H1239  H     0.64871   0.61504   0.80524   0.00000  Uiso   1.00
H1240  H     0.35964   0.60290   0.72746   0.00000  Uiso   1.00
H1241  H     0.43686   0.63113   0.70692   0.00000  Uiso   1.00
C1242  C     0.60722   0.46786   0.91335   0.00000  Uiso   1.00
C1243  C     0.60355   0.43282   0.88294   0.00000  Uiso   1.00
C1244  C     0.64052   0.41671   0.85627   0.00000  Uiso   1.00
C1245  C     0.34803   0.43577   0.85936   0.00000  Uiso   1.00
C1246  C     0.35193   0.47096   0.88913   0.00000  Uiso   1.00
C1247  C     0.64835   0.48706   0.91611   0.00000  Uiso   1.00
H1248  H     0.57205   0.41781   0.88021   0.00000  Uiso   1.00
H1249  H     0.63751   0.38956   0.83309   0.00000  Uiso   1.00
H1250  H     0.37664   0.42341   0.83855   0.00000  Uiso   1.00
H1251  H     0.38360   0.48560   0.89130   0.00000  Uiso   1.00
H1252  H     0.65174   0.51423   0.93919   0.00000  Uiso   1.00
O1253  O     0.38142   0.54970   0.51558   0.00000  Uiso   1.00
C1254  C     0.37186   0.58662   0.50284   0.00000  Uiso   1.00
H1255  H     0.35955   0.57981   0.97230   0.00000  Uiso   1.00
H1256  H     0.40053   0.61094   0.99680   0.00000  Uiso   1.00
C1257  C     0.33651   0.60396   0.54033   0.00000  Uiso   1.00
H1258  H     0.34768   0.61145   0.57150   0.00000  Uiso   1.00
H1259  H     0.66165   0.63277   0.53060   0.00000  Uiso   1.00
H1260  H     0.64046   0.58073   0.54679   0.00000  Uiso   1.00
Zn1261 Zn    0.86005   0.47327   0.78734   0.00000  Uiso   1.00
Zn1262 Zn    0.80046   0.45791   0.71876   0.00000  Uiso   1.00
Zn1263 Zn    0.87723   0.53109   0.70657   0.00000  Uiso   1.00
Zn1264 Zn    0.79560   0.53773   0.78734   0.00000  Uiso   1.00
O1265  O     0.83333   0.50000   0.75000   0.00000  Uiso   1.00
O1266  O     0.73738   0.52211   0.78213   0.00000  Uiso   1.00
O1267  O     0.92158   0.48559   0.77014   0.00000  Uiso   1.00
O1268  O     0.80426   0.40277   0.73413   0.00000  Uiso   1.00
O1269  O     0.87012   0.58953   0.71361   0.00000  Uiso   1.00
O1270  O     0.82118   0.45970   0.65459   0.00000  Uiso   1.00
O1271  O     0.79607   0.53724   0.84968   0.00000  Uiso   1.00
O1272  O     0.87491   0.51092   0.64606   0.00000  Uiso   1.00
O1273  O     0.84118   0.49213   0.84968   0.00000  Uiso   1.00
O1274  O     0.84597   0.41352   0.78214   0.00000  Uiso   1.00
O1275  O     0.81298   0.59418   0.77014   0.00000  Uiso   1.00
O1276  O     0.74078   0.46625   0.73413   0.00000  Uiso   1.00
O1277  O     0.93360   0.52605   0.71361   0.00000  Uiso   1.00
C1278  C     0.71937   0.49308   0.75991   0.00000  Uiso   1.00
C1279  C     0.94750   0.50705   0.73976   0.00000  Uiso   1.00
C1280  C     0.82213   0.38938   0.76022   0.00000  Uiso   1.00
C1281  C     0.84381   0.61139   0.74099   0.00000  Uiso   1.00
C1282  C     0.85214   0.48150   0.62935   0.00000  Uiso   1.00
C1283  C     0.81627   0.51899   0.87082   0.00000  Uiso   1.00
C1284  C     0.91008   0.46002   0.50996   0.00000  Uiso   1.00
H1285  H     0.91788   0.44631   0.57278   0.00000  Uiso   1.00
H1286  H     0.93951   0.44748   0.99190   0.00000  Uiso   1.00
C1287  C     0.86049   0.47521   0.58104   0.00000  Uiso   1.00
C1288  C     0.76896   0.54017   0.94416   0.00000  Uiso   1.00
C1289  C     0.75503   0.53965   0.99090   0.00000  Uiso   1.00
C1290  C     0.77990   0.52323   0.51325   0.00000  Uiso   1.00
C1291  C     0.82062   0.51045   0.99067   0.00000  Uiso   1.00
C1292  C     0.83554   0.51369   0.94377   0.00000  Uiso   1.00
C1293  C     0.84653   0.49372   0.51311   0.00000  Uiso   1.00
C1294  C     0.88593   0.47881   0.98802   0.00000  Uiso   1.00
C1295  C     0.90097   0.48409   0.94190   0.00000  Uiso   1.00
C1296  C     0.87726   0.50393   0.92140   0.00000  Uiso   1.00
C1297  C     0.83479   0.49175   0.55998   0.00000  Uiso   1.00
C1298  C     0.89767   0.45878   0.55618   0.00000  Uiso   1.00
C1299  C     0.80803   0.52595   0.92018   0.00000  Uiso   1.00
H1300  H     0.80731   0.50501   0.58160   0.00000  Uiso   1.00
H1301  H     0.74806   0.54928   0.92611   0.00000  Uiso   1.00
H1302  H     0.76581   0.52063   0.54851   0.00000  Uiso   1.00
H1303  H     0.89249   0.51162   0.88744   0.00000  Uiso   1.00
C1304  C     0.99358   0.50910   0.73493   0.00000  Uiso   1.00
H1305  H     0.68298   0.52529   0.70790   0.00000  Uiso   1.00
C1306  C     0.67402   0.49093   0.76380   0.00000  Uiso   1.00
H1307  H     0.98521   0.47523   0.79145   0.00000  Uiso   1.00
C1308  C     0.85004   0.65663   0.74146   0.00000  Uiso   1.00
C1309  C     0.81642   0.34496   0.76119   0.00000  Uiso   1.00
C1310  C     0.89458   0.34452   0.72398   0.00000  Uiso   1.00
C1311  C     0.92718   0.34102   0.74486   0.00000  Uiso   1.00
C1312  C     0.96845   0.36266   0.73017   0.00000  Uiso   1.00
C1313  C     0.97754   0.38766   0.69443   0.00000  Uiso   1.00
C1314  C     0.94547   0.39084   0.67306   0.00000  Uiso   1.00
C1315  C     0.90417   0.36925   0.68761   0.00000  Uiso   1.00
H1316  H     0.92040   0.65552   0.77299   0.00000  Uiso   1.00
H1317  H     0.99332   0.36029   0.74669   0.00000  Uiso   1.00
H1318  H     0.67609   0.40458   0.68330   0.00000  Uiso   1.00
H1319  H     0.95256   0.41018   0.64534   0.00000  Uiso   1.00
H1320  H     0.87956   0.37212   0.67089   0.00000  Uiso   1.00
C1321  C     0.77043   0.65919   0.77366   0.00000  Uiso   1.00
C1322  C     0.74492   0.66663   0.81746   0.00000  Uiso   1.00
C1323  C     0.70121   0.65053   0.82882   0.00000  Uiso   1.00
C1324  C     0.68259   0.62730   0.79647   0.00000  Uiso   1.00
C1325  C     0.70758   0.62031   0.75264   0.00000  Uiso   1.00
C1326  C     0.75131   0.63627   0.74115   0.00000  Uiso   1.00
H1327  H     0.75888   0.35160   0.84271   0.00000  Uiso   1.00
H1328  H     0.68171   0.65630   0.86264   0.00000  Uiso   1.00
H1329  H     0.98204   0.61504   0.80524   0.00000  Uiso   1.00
H1330  H     0.69297   0.60290   0.72746   0.00000  Uiso   1.00
H1331  H     0.77019   0.63113   0.70692   0.00000  Uiso   1.00
C1332  C     0.94055   0.46786   0.91335   0.00000  Uiso   1.00
C1333  C     0.93688   0.43282   0.88294   0.00000  Uiso   1.00
C1334  C     0.97385   0.41671   0.85627   0.00000  Uiso   1.00
C1335  C     0.68136   0.43577   0.85936   0.00000  Uiso   1.00
C1336  C     0.68526   0.47096   0.88913   0.00000  Uiso   1.00
C1337  C     0.98168   0.48706   0.91611   0.00000  Uiso   1.00
H1338  H     0.90539   0.41781   0.88021   0.00000  Uiso   1.00
H1339  H     0.97084   0.38956   0.83309   0.00000  Uiso   1.00
H1340  H     0.70998   0.42341   0.83855   0.00000  Uiso   1.00
H1341  H     0.71693   0.48560   0.89130   0.00000  Uiso   1.00
H1342  H     0.98507   0.51423   0.93919   0.00000  Uiso   1.00
O1343  O     0.71475   0.54970   0.51558   0.00000  Uiso   1.00
C1344  C     0.70519   0.58662   0.50284   0.00000  Uiso   1.00
H1345  H     0.69289   0.57981   0.97230   0.00000  Uiso   1.00
H1346  H     0.73386   0.61094   0.99680   0.00000  Uiso   1.00
C1347  C     0.66985   0.60396   0.54033   0.00000  Uiso   1.00
H1348  H     0.68101   0.61145   0.57150   0.00000  Uiso   1.00
H1349  H     0.99498   0.63277   0.53060   0.00000  Uiso   1.00
H1350  H     0.97379   0.58073   0.54679   0.00000  Uiso   1.00
Zn1351 Zn    0.19338   0.80661   0.78734   0.00000  Uiso   1.00
Zn1352 Zn    0.13379   0.79124   0.71876   0.00000  Uiso   1.00
Zn1353 Zn    0.21056   0.86442   0.70657   0.00000  Uiso   1.00
Zn1354 Zn    0.12893   0.87106   0.78734   0.00000  Uiso   1.00
O1355  O     0.16667   0.83333   0.75000   0.00000  Uiso   1.00
O1356  O     0.07071   0.85544   0.78213   0.00000  Uiso   1.00
O1357  O     0.25491   0.81892   0.77014   0.00000  Uiso   1.00
O1358  O     0.13760   0.73610   0.73413   0.00000  Uiso   1.00
O1359  O     0.20345   0.92286   0.71361   0.00000  Uiso   1.00
O1360  O     0.15451   0.79304   0.65459   0.00000  Uiso   1.00
O1361  O     0.12940   0.87058   0.84968   0.00000  Uiso   1.00
O1362  O     0.20824   0.84425   0.64606   0.00000  Uiso   1.00
O1363  O     0.17451   0.82546   0.84968   0.00000  Uiso   1.00
O1364  O     0.17930   0.74686   0.78214   0.00000  Uiso   1.00
O1365  O     0.14632   0.92751   0.77014   0.00000  Uiso   1.00
O1366  O     0.07412   0.79958   0.73413   0.00000  Uiso   1.00
O1367  O     0.26693   0.85939   0.71361   0.00000  Uiso   1.00
C1368  C     0.05270   0.82642   0.75991   0.00000  Uiso   1.00
C1369  C     0.28083   0.84039   0.73976   0.00000  Uiso   1.00
C1370  C     0.15547   0.72272   0.76022   0.00000  Uiso   1.00
C1371  C     0.17714   0.94473   0.74099   0.00000  Uiso   1.00
C1372  C     0.18548   0.81484   0.62935   0.00000  Uiso   1.00
C1373  C     0.14961   0.85232   0.87082   0.00000  Uiso   1.00
C1374  C     0.24341   0.79335   0.50996   0.00000  Uiso   1.00
H1375  H     0.25121   0.77964   0.57278   0.00000  Uiso   1.00
H1376  H     0.27284   0.78082   0.99190   0.00000  Uiso   1.00
C1377  C     0.19382   0.80854   0.58104   0.00000  Uiso   1.00
C1378  C     0.10229   0.87351   0.94416   0.00000  Uiso   1.00
C1379  C     0.08836   0.87299   0.99090   0.00000  Uiso   1.00
C1380  C     0.11323   0.85657   0.51325   0.00000  Uiso   1.00
C1381  C     0.15395   0.84378   0.99067   0.00000  Uiso   1.00
C1382  C     0.16888   0.84703   0.94377   0.00000  Uiso   1.00
C1383  C     0.17986   0.82705   0.51311   0.00000  Uiso   1.00
C1384  C     0.21926   0.81215   0.98802   0.00000  Uiso   1.00
C1385  C     0.23430   0.81743   0.94190   0.00000  Uiso   1.00
C1386  C     0.21059   0.83726   0.92140   0.00000  Uiso   1.00
C1387  C     0.16812   0.82508   0.55998   0.00000  Uiso   1.00
C1388  C     0.23100   0.79211   0.55618   0.00000  Uiso   1.00
C1389  C     0.14136   0.85928   0.92018   0.00000  Uiso   1.00
H1390  H     0.14064   0.83835   0.58160   0.00000  Uiso   1.00
H1391  H     0.08139   0.88261   0.92611   0.00000  Uiso   1.00
H1392  H     0.09915   0.85397   0.54851   0.00000  Uiso   1.00
H1393  H     0.22583   0.84495   0.88744   0.00000  Uiso   1.00
C1394  C     0.32691   0.84243   0.73493   0.00000  Uiso   1.00
H1395  H     0.01632   0.85863   0.70790   0.00000  Uiso   1.00
C1396  C     0.00736   0.82426   0.76380   0.00000  Uiso   1.00
H1397  H     0.31855   0.80856   0.79145   0.00000  Uiso   1.00
C1398  C     0.18337   0.98997   0.74146   0.00000  Uiso   1.00
C1399  C     0.14975   0.67830   0.76119   0.00000  Uiso   1.00
C1400  C     0.22791   0.67785   0.72398   0.00000  Uiso   1.00
C1401  C     0.26051   0.67435   0.74486   0.00000  Uiso   1.00
C1402  C     0.30179   0.69599   0.73017   0.00000  Uiso   1.00
C1403  C     0.31087   0.72100   0.69443   0.00000  Uiso   1.00
C1404  C     0.27881   0.72417   0.67306   0.00000  Uiso   1.00
C1405  C     0.23750   0.70258   0.68761   0.00000  Uiso   1.00
H1406  H     0.25373   0.98885   0.77299   0.00000  Uiso   1.00
H1407  H     0.32665   0.69363   0.74669   0.00000  Uiso   1.00
H1408  H     0.00942   0.73791   0.68330   0.00000  Uiso   1.00
H1409  H     0.28590   0.74351   0.64534   0.00000  Uiso   1.00
H1410  H     0.21289   0.70545   0.67089   0.00000  Uiso   1.00
C1411  C     0.10377   0.99252   0.77366   0.00000  Uiso   1.00
C1412  C     0.07825   0.99997   0.81746   0.00000  Uiso   1.00
C1413  C     0.03454   0.98386   0.82882   0.00000  Uiso   1.00
C1414  C     0.01592   0.96064   0.79647   0.00000  Uiso   1.00
C1415  C     0.04092   0.95365   0.75264   0.00000  Uiso   1.00
C1416  C     0.08464   0.96960   0.74115   0.00000  Uiso   1.00
H1417  H     0.09222   0.68493   0.84271   0.00000  Uiso   1.00
H1418  H     0.01505   0.98963   0.86264   0.00000  Uiso   1.00
H1419  H     0.31538   0.94837   0.80524   0.00000  Uiso   1.00
H1420  H     0.02630   0.93624   0.72746   0.00000  Uiso   1.00
H1421  H     0.10353   0.96446   0.70692   0.00000  Uiso   1.00
C1422  C     0.27388   0.80119   0.91335   0.00000  Uiso   1.00
C1423  C     0.27021   0.76615   0.88294   0.00000  Uiso   1.00
C1424  C     0.30718   0.75004   0.85627   0.00000  Uiso   1.00
C1425  C     0.01469   0.76911   0.85936   0.00000  Uiso   1.00
C1426  C     0.01860   0.80429   0.88913   0.00000  Uiso   1.00
C1427  C     0.31502   0.82040   0.91611   0.00000  Uiso   1.00
H1428  H     0.23872   0.75114   0.88021   0.00000  Uiso   1.00
H1429  H     0.30418   0.72290   0.83309   0.00000  Uiso   1.00
H1430  H     0.04331   0.75674   0.83855   0.00000  Uiso   1.00
H1431  H     0.05026   0.81893   0.89130   0.00000  Uiso   1.00
H1432  H     0.31840   0.84756   0.93919   0.00000  Uiso   1.00
O1433  O     0.04808   0.88303   0.51558   0.00000  Uiso   1.00
C1434  C     0.03853   0.91995   0.50284   0.00000  Uiso   1.00
H1435  H     0.02622   0.91315   0.97230   0.00000  Uiso   1.00
H1436  H     0.06720   0.94428   0.99680   0.00000  Uiso   1.00
C1437  C     0.00318   0.93729   0.54033   0.00000  Uiso   1.00
H1438  H     0.01435   0.94478   0.57150   0.00000  Uiso   1.00
H1439  H     0.32832   0.96611   0.53060   0.00000  Uiso   1.00
H1440  H     0.30712   0.91407   0.54679   0.00000  Uiso   1.00
Zn1441 Zn    0.52672   0.80661   0.78734   0.00000  Uiso   1.00
Zn1442 Zn    0.46713   0.79124   0.71876   0.00000  Uiso   1.00
Zn1443 Zn    0.54389   0.86442   0.70657   0.00000  Uiso   1.00
Zn1444 Zn    0.46226   0.87106   0.78734   0.00000  Uiso   1.00
O1445  O     0.50000   0.83333   0.75000   0.00000  Uiso   1.00
O1446  O     0.40405   0.85544   0.78213   0.00000  Uiso   1.00
O1447  O     0.58824   0.81892   0.77014   0.00000  Uiso   1.00
O1448  O     0.47093   0.73610   0.73413   0.00000  Uiso   1.00
O1449  O     0.53678   0.92286   0.71361   0.00000  Uiso   1.00
O1450  O     0.48784   0.79304   0.65459   0.00000  Uiso   1.00
O1451  O     0.46274   0.87058   0.84968   0.00000  Uiso   1.00
O1452  O     0.54157   0.84425   0.64606   0.00000  Uiso   1.00
O1453  O     0.50785   0.82546   0.84968   0.00000  Uiso   1.00
O1454  O     0.51264   0.74686   0.78214   0.00000  Uiso   1.00
O1455  O     0.47965   0.92751   0.77014   0.00000  Uiso   1.00
O1456  O     0.40745   0.79958   0.73413   0.00000  Uiso   1.00
O1457  O     0.60026   0.85939   0.71361   0.00000  Uiso   1.00
C1458  C     0.38604   0.82642   0.75991   0.00000  Uiso   1.00
C1459  C     0.61417   0.84039   0.73976   0.00000  Uiso   1.00
C1460  C     0.48880   0.72272   0.76022   0.00000  Uiso   1.00
C1461  C     0.51047   0.94473   0.74099   0.00000  Uiso   1.00
C1462  C     0.51881   0.81484   0.62935   0.00000  Uiso   1.00
C1463  C     0.48294   0.85232   0.87082   0.00000  Uiso   1.00
C1464  C     0.57674   0.79335   0.50996   0.00000  Uiso   1.00
H1465  H     0.58454   0.77964   0.57278   0.00000  Uiso   1.00
H1466  H     0.60617   0.78082   0.99190   0.00000  Uiso   1.00
C1467  C     0.52716   0.80854   0.58104   0.00000  Uiso   1.00
C1468  C     0.43563   0.87351   0.94416   0.00000  Uiso   1.00
C1469  C     0.42169   0.87299   0.99090   0.00000  Uiso   1.00
C1470  C     0.44656   0.85657   0.51325   0.00000  Uiso   1.00
C1471  C     0.48729   0.84378   0.99067   0.00000  Uiso   1.00
C1472  C     0.50221   0.84703   0.94377   0.00000  Uiso   1.00
C1473  C     0.51319   0.82705   0.51311   0.00000  Uiso   1.00
C1474  C     0.55260   0.81215   0.98802   0.00000  Uiso   1.00
C1475  C     0.56763   0.81743   0.94190   0.00000  Uiso   1.00
C1476  C     0.54393   0.83726   0.92140   0.00000  Uiso   1.00
C1477  C     0.50146   0.82508   0.55998   0.00000  Uiso   1.00
C1478  C     0.56433   0.79211   0.55618   0.00000  Uiso   1.00
C1479  C     0.47470   0.85928   0.92018   0.00000  Uiso   1.00
H1480  H     0.47397   0.83835   0.58160   0.00000  Uiso   1.00
H1481  H     0.41473   0.88261   0.92611   0.00000  Uiso   1.00
H1482  H     0.43248   0.85397   0.54851   0.00000  Uiso   1.00
H1483  H     0.55916   0.84495   0.88744   0.00000  Uiso   1.00
C1484  C     0.66025   0.84243   0.73493   0.00000  Uiso   1.00
H1485  H     0.34965   0.85863   0.70790   0.00000  Uiso   1.00
C1486  C     0.34069   0.82426   0.76380   0.00000  Uiso   1.00
H1487  H     0.65188   0.80856   0.79145   0.00000  Uiso   1.00
C1488  C     0.51671   0.98997   0.74146   0.00000  Uiso   1.00
C1489  C     0.48308   0.67830   0.76119   0.00000  Uiso   1.00
C1490  C     0.56125   0.67785   0.72398   0.00000  Uiso   1.00
C1491  C     0.59385   0.67435   0.74486   0.00000  Uiso   1.00
C1492  C     0.63512   0.69599   0.73017   0.00000  Uiso   1.00
C1493  C     0.64421   0.72100   0.69443   0.00000  Uiso   1.00
C1494  C     0.61214   0.72417   0.67306   0.00000  Uiso   1.00
C1495  C     0.57083   0.70258   0.68761   0.00000  Uiso   1.00
H1496  H     0.58707   0.98885   0.77299   0.00000  Uiso   1.00
H1497  H     0.65999   0.69363   0.74669   0.00000  Uiso   1.00
H1498  H     0.34276   0.73791   0.68330   0.00000  Uiso   1.00
H1499  H     0.61923   0.74351   0.64534   0.00000  Uiso   1.00
H1500  H     0.54623   0.70545   0.67089   0.00000  Uiso   1.00
C1501  C     0.43710   0.99252   0.77366   0.00000  Uiso   1.00
C1502  C     0.41158   0.99997   0.81746   0.00000  Uiso   1.00
C1503  C     0.36788   0.98386   0.82882   0.00000  Uiso   1.00
C1504  C     0.34925   0.96064   0.79647   0.00000  Uiso   1.00
C1505  C     0.37425   0.95365   0.75264   0.00000  Uiso   1.00
C1506  C     0.41798   0.96960   0.74115   0.00000  Uiso   1.00
H1507  H     0.42555   0.68493   0.84271   0.00000  Uiso   1.00
H1508  H     0.34838   0.98963   0.86264   0.00000  Uiso   1.00
H1509  H     0.64871   0.94837   0.80524   0.00000  Uiso   1.00
H1510  H     0.35964   0.93624   0.72746   0.00000  Uiso   1.00
H1511  H     0.43686   0.96446   0.70692   0.00000  Uiso   1.00
C1512  C     0.60722   0.80119   0.91335   0.00000  Uiso   1.00
C1513  C     0.60355   0.76615   0.88294   0.00000  Uiso   1.00
C1514  C     0.64052   0.75004   0.85627   0.00000  Uiso   1.00
C1515  C     0.34803   0.76911   0.85936   0.00000  Uiso   1.00
C1516  C     0.35193   0.80429   0.88913   0.00000  Uiso   1.00
C1517  C     0.64835   0.82040   0.91611   0.00000  Uiso   1.00
H1518  H     0.57205   0.75114   0.88021   0.00000  Uiso   1.00
H1519  H     0.63751   0.72290   0.83309   0.00000  Uiso   1.00
H1520  H     0.37664   0.75674   0.83855   0.00000  Uiso   1.00
H1521  H     0.38360   0.81893   0.89130   0.00000  Uiso   1.00
H1522  H     0.65174   0.84756   0.93919   0.00000  Uiso   1.00
O1523  O     0.38142   0.88303   0.51558   0.00000  Uiso   1.00
C1524  C     0.37186   0.91995   0.50284   0.00000  Uiso   1.00
H1525  H     0.35955   0.91315   0.97230   0.00000  Uiso   1.00
H1526  H     0.40053   0.94428   0.99680   0.00000  Uiso   1.00
C1527  C     0.33651   0.93729   0.54033   0.00000  Uiso   1.00
H1528  H     0.34768   0.94478   0.57150   0.00000  Uiso   1.00
H1529  H     0.66165   0.96611   0.53060   0.00000  Uiso   1.00
H1530  H     0.64046   0.91407   0.54679   0.00000  Uiso   1.00
Zn1531 Zn    0.86005   0.80661   0.78734   0.00000  Uiso   1.00
Zn1532 Zn    0.80046   0.79124   0.71876   0.00000  Uiso   1.00
Zn1533 Zn    0.87723   0.86442   0.70657   0.00000  Uiso   1.00
Zn1534 Zn    0.79560   0.87106   0.78734   0.00000  Uiso   1.00
O1535  O     0.83333   0.83333   0.75000   0.00000  Uiso   1.00
O1536  O     0.73738   0.85544   0.78213   0.00000  Uiso   1.00
O1537  O     0.92158   0.81892   0.77014   0.00000  Uiso   1.00
O1538  O     0.80426   0.73610   0.73413   0.00000  Uiso   1.00
O1539  O     0.87012   0.92286   0.71361   0.00000  Uiso   1.00
O1540  O     0.82118   0.79304   0.65459   0.00000  Uiso   1.00
O1541  O     0.79607   0.87058   0.84968   0.00000  Uiso   1.00
O1542  O     0.87491   0.84425   0.64606   0.00000  Uiso   1.00
O1543  O     0.84118   0.82546   0.84968   0.00000  Uiso   1.00
O1544  O     0.84597   0.74686   0.78214   0.00000  Uiso   1.00
O1545  O     0.81298   0.92751   0.77014   0.00000  Uiso   1.00
O1546  O     0.74078   0.79958   0.73413   0.00000  Uiso   1.00
O1547  O     0.93360   0.85939   0.71361   0.00000  Uiso   1.00
C1548  C     0.71937   0.82642   0.75991   0.00000  Uiso   1.00
C1549  C     0.94750   0.84039   0.73976   0.00000  Uiso   1.00
C1550  C     0.82213   0.72272   0.76022   0.00000  Uiso   1.00
C1551  C     0.84381   0.94473   0.74099   0.00000  Uiso   1.00
C1552  C     0.85214   0.81484   0.62935   0.00000  Uiso   1.00
C1553  C     0.81627   0.85232   0.87082   0.00000  Uiso   1.00
C1554  C     0.91008   0.79335   0.50996   0.00000  Uiso   1.00
H1555  H     0.91788   0.77964   0.57278   0.00000  Uiso   1.00
H1556  H     0.93951   0.78082   0.99190   0.00000  Uiso   1.00
C1557  C     0.86049   0.80854   0.58104   0.00000  Uiso   1.00
C1558  C     0.76896   0.87351   0.94416   0.00000  Uiso   1.00
C1559  C     0.75503   0.87299   0.99090   0.00000  Uiso   1.00
C1560  C     0.77990   0.85657   0.51325   0.00000  Uiso   1.00
C1561  C     0.82062   0.84378   0.99067   0.00000  Uiso   1.00
C1562  C     0.83554   0.84703   0.94377   0.00000  Uiso   1.00
C1563  C     0.84653   0.82705   0.51311   0.00000  Uiso   1.00
C1564  C     0.88593   0.81215   0.98802   0.00000  Uiso   1.00
C1565  C     0.90097   0.81743   0.94190   0.00000  Uiso   1.00
C1566  C     0.87726   0.83726   0.92140   0.00000  Uiso   1.00
C1567  C     0.83479   0.82508   0.55998   0.00000  Uiso   1.00
C1568  C     0.89767   0.79211   0.55618   0.00000  Uiso   1.00
C1569  C     0.80803   0.85928   0.92018   0.00000  Uiso   1.00
H1570  H     0.80731   0.83835   0.58160   0.00000  Uiso   1.00
H1571  H     0.74806   0.88261   0.92611   0.00000  Uiso   1.00
H1572  H     0.76581   0.85397   0.54851   0.00000  Uiso   1.00
H1573  H     0.89249   0.84495   0.88744   0.00000  Uiso   1.00
C1574  C     0.99358   0.84243   0.73493   0.00000  Uiso   1.00
H1575  H     0.68298   0.85863   0.70790   0.00000  Uiso   1.00
C1576  C     0.67402   0.82426   0.76380   0.00000  Uiso   1.00
H1577  H     0.98521   0.80856   0.79145   0.00000  Uiso   1.00
C1578  C     0.85004   0.98997   0.74146   0.00000  Uiso   1.00
C1579  C     0.81642   0.67830   0.76119   0.00000  Uiso   1.00
C1580  C     0.89458   0.67785   0.72398   0.00000  Uiso   1.00
C1581  C     0.92718   0.67435   0.74486   0.00000  Uiso   1.00
C1582  C     0.96845   0.69599   0.73017   0.00000  Uiso   1.00
C1583  C     0.97754   0.72100   0.69443   0.00000  Uiso   1.00
C1584  C     0.94547   0.72417   0.67306   0.00000  Uiso   1.00
C1585  C     0.90417   0.70258   0.68761   0.00000  Uiso   1.00
H1586  H     0.92040   0.98885   0.77299   0.00000  Uiso   1.00
H1587  H     0.99332   0.69363   0.74669   0.00000  Uiso   1.00
H1588  H     0.67609   0.73791   0.68330   0.00000  Uiso   1.00
H1589  H     0.95256   0.74351   0.64534   0.00000  Uiso   1.00
H1590  H     0.87956   0.70545   0.67089   0.00000  Uiso   1.00
C1591  C     0.77043   0.99252   0.77366   0.00000  Uiso   1.00
C1592  C     0.74492   0.99997   0.81746   0.00000  Uiso   1.00
C1593  C     0.70121   0.98386   0.82882   0.00000  Uiso   1.00
C1594  C     0.68259   0.96064   0.79647   0.00000  Uiso   1.00
C1595  C     0.70758   0.95365   0.75264   0.00000  Uiso   1.00
C1596  C     0.75131   0.96960   0.74115   0.00000  Uiso   1.00
H1597  H     0.75888   0.68493   0.84271   0.00000  Uiso   1.00
H1598  H     0.68171   0.98963   0.86264   0.00000  Uiso   1.00
H1599  H     0.98204   0.94837   0.80524   0.00000  Uiso   1.00
H1600  H     0.69297   0.93624   0.72746   0.00000  Uiso   1.00
H1601  H     0.77019   0.96446   0.70692   0.00000  Uiso   1.00
C1602  C     0.94055   0.80119   0.91335   0.00000  Uiso   1.00
C1603  C     0.93688   0.76615   0.88294   0.00000  Uiso   1.00
C1604  C     0.97385   0.75004   0.85627   0.00000  Uiso   1.00
C1605  C     0.68136   0.76911   0.85936   0.00000  Uiso   1.00
C1606  C     0.68526   0.80429   0.88913   0.00000  Uiso   1.00
C1607  C     0.98168   0.82040   0.91611   0.00000  Uiso   1.00
H1608  H     0.90539   0.75114   0.88021   0.00000  Uiso   1.00
H1609  H     0.97084   0.72290   0.83309   0.00000  Uiso   1.00
H1610  H     0.70998   0.75674   0.83855   0.00000  Uiso   1.00
H1611  H     0.71693   0.81893   0.89130   0.00000  Uiso   1.00
H1612  H     0.98507   0.84756   0.93919   0.00000  Uiso   1.00
O1613  O     0.71475   0.88303   0.51558   0.00000  Uiso   1.00
C1614  C     0.70519   0.91995   0.50284   0.00000  Uiso   1.00
H1615  H     0.69289   0.91315   0.97230   0.00000  Uiso   1.00
H1616  H     0.73386   0.94428   0.99680   0.00000  Uiso   1.00
C1617  C     0.66985   0.93729   0.54033   0.00000  Uiso   1.00
H1618  H     0.68101   0.94478   0.57150   0.00000  Uiso   1.00
H1619  H     0.99498   0.96611   0.53060   0.00000  Uiso   1.00
H1620  H     0.97379   0.91407   0.54679   0.00000  Uiso   1.00
loop_
_geom_bond_atom_site_label_1
_geom_bond_atom_site_label_2
_geom_bond_distance
_geom_bond_site_symmetry_2
_ccdc_geom_bond_type
Zn1    O5      1.968   .     S
Zn1    O13     1.923   .     S
Zn1    O7      1.913   .     S
Zn1    O14     1.930   .     S
Zn2    O16     1.919   .     S
Zn2    O5      1.938   .     S
Zn2    O10     1.930   .     S
Zn2    O8      1.946   .     S
Zn3    O12     1.934   .     S
Zn3    O9      1.935   .     S
Zn3    O5      1.931   .     S
Zn3    O17     1.932   .     S
Zn4    O6      1.924   .     S
Zn4    O11     1.943   .     S
Zn4    O5      1.928   .     S
Zn4    O15     1.937   .     S
O6     C18     1.267   .     A
O7     C19     1.280   .     A
O8     C20     1.264   .     A
O9     C21     1.270   .     A
O10    C22     1.273   .     A
O11    C23     1.289   .     A
O12    C22     1.267   .     A
O13    C23     1.283   .     A
O14    C20     1.285   .     A
O15    C21     1.264   .     A
O16    C18     1.269   .     A
O17    C19     1.285   .     A
C18    C46     1.434   .     S
C19    C44     1.453   .     S
C20    C49     1.435   .     S
C21    C48     1.458   .     S
C22    C27     1.447   .     S
C23    C39     1.480   .     S
C24    C38     1.387   .     A
C24    H836    1.082   1_554 S
C24    C844    1.410   1_554 S
H25    C38     1.084   .     S
H26    C834    1.082   .     S
C27    C38     1.391   .     A
C27    C37     1.389   .     A
C28    C29     1.401   .     A
C28    H41     1.081   .     S
C28    C39     1.402   .     A
C29    C840    1.394   .     S
C29    O893    1.391   .     S
C30    H42     1.076   .     S
C30    C839    1.394   1_554 S
C30    C841    1.418   1_554 S
C31    C32     1.418   .     A
C31    C840    1.418   .     S
C31    C843    1.427   .     S
C32    C36     1.410   .     A
C32    C39     1.423   .     A
C33    C37     1.409   .     A
C33    C841    1.427   1_554 S
C33    C844    1.429   1_554 S
C34    C35     1.407   .     A
C34    C834    1.410   .     S
C34    C843    1.429   .     S
C35    C36     1.389   .     A
C35    C72     1.483   .     S
C36    H43     1.080   .     S
C37    H40     1.077   .     S
C44    H135    1.087   .     S
C44    C136    1.334   .     S
H45    C224    1.087   1_455 S
C46    C224    1.334   1_455 S
C46    H227    1.085   1_455 S
H47    C136    1.085   .     S
C48    C319    1.356   .     S
C48    C320    1.491   .     S
C49    C588    1.356   1_545 S
C49    C601    1.492   1_545 S
C50    C51     1.406   .     A
C50    C55     1.406   .     A
C50    C588    1.491   1_545 S
C51    C52     1.399   .     A
C51    H596    1.083   1_545 S
C52    H57     1.082   .     S
C52    C53     1.398   .     A
C53    C54     1.398   .     A
C53    H148    1.082   .     S
C54    C55     1.399   .     A
C54    H59     1.082   .     S
C55    H60     1.083   .     S
H56    C321    1.083   .     S
H58    C233    1.082   1_455 S
C61    C66     1.407   .     A
C61    C62     1.405   .     A
C61    C319    1.492   .     S
C62    C63     1.399   .     A
C62    H337    1.083   .     S
C63    H68     1.082   .     S
C63    C64     1.398   .     A
C64    C65     1.397   .     A
C64    H249    1.082   1_455 S
C65    H70     1.082   .     S
C65    C66     1.398   .     A
C66    H71     1.083   .     S
H67    C602    1.083   1_545 S
H69    C154    1.082   .     S
C72    C73     1.405   .     A
C72    C77     1.404   .     A
C73    C74     1.398   .     A
C73    H78     1.083   .     S
C74    H79     1.082   .     S
C74    C165    1.397   .     S
C75    H80     1.083   .     S
C75    C76     1.398   .     A
C75    C254    1.397   1_455 S
C76    H81     1.080   .     S
C76    C257    1.400   1_455 S
C77    H82     1.083   .     S
C77    C166    1.400   .     S
O83    C84     1.414   .     S
O83    C839    1.391   1_554 S
C84    C87     1.521   .     S
C84    H895    1.111   1_554 S
C84    H896    1.116   1_554 S
H85    C894    1.111   .     S
H86    C894    1.116   .     S
C87    H88     1.111   .     S
C87    H269    1.111   1_455 S
C87    H270    1.111   1_455 S
H89    C177    1.111   .     S
H90    C177    1.111   .     S
Zn91   O95     1.968   .     S
Zn91   O103    1.923   .     S
Zn91   O97     1.913   .     S
Zn91   O104    1.930   .     S
Zn92   O106    1.919   .     S
Zn92   O95     1.938   .     S
Zn92   O100    1.930   .     S
Zn92   O98     1.946   .     S
Zn93   O102    1.934   .     S
Zn93   O99     1.935   .     S
Zn93   O95     1.931   .     S
Zn93   O107    1.932   .     S
Zn94   O96     1.924   .     S
Zn94   O101    1.943   .     S
Zn94   O95     1.928   .     S
Zn94   O105    1.937   .     S
O96    C108    1.267   .     A
O97    C109    1.280   .     A
O98    C110    1.264   .     A
O99    C111    1.270   .     A
O100   C112    1.273   .     A
O101   C113    1.289   .     A
O102   C112    1.267   .     A
O103   C113    1.283   .     A
O104   C110    1.285   .     A
O105   C111    1.264   .     A
O106   C108    1.269   .     A
O107   C109    1.285   .     A
C108   C136    1.434   .     S
C109   C134    1.453   .     S
C110   C139    1.435   .     S
C111   C138    1.458   .     S
C112   C117    1.447   .     S
C113   C129    1.480   .     S
C114   C128    1.387   .     A
C114   H926    1.082   1_554 S
C114   C934    1.410   1_554 S
H115   C128    1.084   .     S
H116   C924    1.082   .     S
C117   C128    1.391   .     A
C117   C127    1.389   .     A
C118   C119    1.401   .     A
C118   H131    1.081   .     S
C118   C129    1.402   .     A
C119   C930    1.394   .     S
C119   O983    1.391   .     S
C120   H132    1.076   .     S
C120   C929    1.394   1_554 S
C120   C931    1.418   1_554 S
C121   C122    1.418   .     A
C121   C930    1.418   .     S
C121   C933    1.427   .     S
C122   C126    1.410   .     A
C122   C129    1.423   .     A
C123   C127    1.409   .     A
C123   C931    1.427   1_554 S
C123   C934    1.429   1_554 S
C124   C125    1.407   .     A
C124   C924    1.410   .     S
C124   C933    1.429   .     S
C125   C126    1.389   .     A
C125   C162    1.483   .     S
C126   H133    1.080   .     S
C127   H130    1.077   .     S
C134   H225    1.087   .     S
C134   C226    1.334   .     S
H137   C226    1.085   .     S
C138   C409    1.356   .     S
C138   C410    1.491   .     S
C139   C678    1.356   1_545 S
C139   C691    1.492   1_545 S
C140   C141    1.406   .     A
C140   C145    1.406   .     A
C140   C678    1.491   1_545 S
C141   C142    1.399   .     A
C141   H686    1.083   1_545 S
C142   H147    1.082   .     S
C142   C143    1.398   .     A
C143   C144    1.398   .     A
C143   H238    1.082   .     S
C144   C145    1.399   .     A
C144   H149    1.082   .     S
C145   H150    1.083   .     S
H146   C411    1.083   .     S
C151   C156    1.407   .     A
C151   C152    1.405   .     A
C151   C409    1.492   .     S
C152   C153    1.399   .     A
C152   H427    1.083   .     S
C153   H158    1.082   .     S
C153   C154    1.398   .     A
C154   C155    1.397   .     A
C155   H160    1.082   .     S
C155   C156    1.398   .     A
C156   H161    1.083   .     S
H157   C692    1.083   1_545 S
H159   C244    1.082   .     S
C162   C163    1.405   .     A
C162   C167    1.404   .     A
C163   C164    1.398   .     A
C163   H168    1.083   .     S
C164   H169    1.082   .     S
C164   C255    1.397   .     S
C165   H170    1.083   .     S
C165   C166    1.398   .     A
C166   H171    1.080   .     S
C167   H172    1.083   .     S
C167   C256    1.400   .     S
O173   C174    1.414   .     S
O173   C929    1.391   1_554 S
C174   C177    1.521   .     S
C174   H985    1.111   1_554 S
C174   H986    1.116   1_554 S
H175   C984    1.111   .     S
H176   C984    1.116   .     S
C177   H178    1.111   .     S
H179   C267    1.111   .     S
H180   C267    1.111   .     S
Zn181  O185    1.968   .     S
Zn181  O193    1.923   .     S
Zn181  O187    1.913   .     S
Zn181  O194    1.930   .     S
Zn182  O196    1.919   .     S
Zn182  O185    1.938   .     S
Zn182  O190    1.930   .     S
Zn182  O188    1.946   .     S
Zn183  O192    1.934   .     S
Zn183  O189    1.935   .     S
Zn183  O185    1.931   .     S
Zn183  O197    1.932   .     S
Zn184  O186    1.924   .     S
Zn184  O191    1.943   .     S
Zn184  O185    1.928   .     S
Zn184  O195    1.937   .     S
O186   C198    1.267   .     A
O187   C199    1.280   .     A
O188   C200    1.264   .     A
O189   C201    1.270   .     A
O190   C202    1.273   .     A
O191   C203    1.289   .     A
O192   C202    1.267   .     A
O193   C203    1.283   .     A
O194   C200    1.285   .     A
O195   C201    1.264   .     A
O196   C198    1.269   .     A
O197   C199    1.285   .     A
C198   C226    1.434   .     S
C199   C224    1.453   .     S
C200   C229    1.435   .     S
C201   C228    1.458   .     S
C202   C207    1.447   .     S
C203   C219    1.480   .     S
C204   C218    1.387   .     A
C204   H1016   1.082   1_554 S
C204   C1024   1.410   1_554 S
H205   C218    1.084   .     S
H206   C1014   1.082   .     S
C207   C218    1.391   .     A
C207   C217    1.389   .     A
C208   C209    1.401   .     A
C208   H221    1.081   .     S
C208   C219    1.402   .     A
C209   C1020   1.394   .     S
C209   O1073   1.391   .     S
C210   H222    1.076   .     S
C210   C1019   1.394   1_554 S
C210   C1021   1.418   1_554 S
C211   C212    1.418   .     A
C211   C1020   1.418   .     S
C211   C1023   1.427   .     S
C212   C216    1.410   .     A
C212   C219    1.423   .     A
C213   C217    1.409   .     A
C213   C1021   1.427   1_554 S
C213   C1024   1.429   1_554 S
C214   C215    1.407   .     A
C214   C1014   1.410   .     S
C214   C1023   1.429   .     S
C215   C216    1.389   .     A
C215   C252    1.483   .     S
C216   H223    1.080   .     S
C217   H220    1.077   .     S
C224   H45     1.087   1_655 S
C224   C46     1.334   1_655 S
H227   C46     1.085   1_655 S
C228   C499    1.356   .     S
C228   C500    1.491   .     S
C229   C768    1.356   1_545 S
C229   C781    1.492   1_545 S
C230   C231    1.406   .     A
C230   C235    1.406   .     A
C230   C768    1.491   1_545 S
C231   C232    1.399   .     A
C231   H776    1.083   1_545 S
C232   H237    1.082   .     S
C232   C233    1.398   .     A
C233   C234    1.398   .     A
C233   H58     1.082   1_655 S
C234   C235    1.399   .     A
C234   H239    1.082   .     S
C235   H240    1.083   .     S
H236   C501    1.083   .     S
C241   C246    1.407   .     A
C241   C242    1.405   .     A
C241   C499    1.492   .     S
C242   C243    1.399   .     A
C242   H517    1.083   .     S
C243   H248    1.082   .     S
C243   C244    1.398   .     A
C244   C245    1.397   .     A
C245   H250    1.082   .     S
C245   C246    1.398   .     A
C246   H251    1.083   .     S
H247   C782    1.083   1_545 S
H249   C64     1.082   1_655 S
C252   C253    1.405   .     A
C252   C257    1.404   .     A
C253   C254    1.398   .     A
C253   H258    1.083   .     S
C254   H259    1.082   .     S
C254   C75     1.397   1_655 S
C255   H260    1.083   .     S
C255   C256    1.398   .     A
C256   H261    1.080   .     S
C257   H262    1.083   .     S
C257   C76     1.400   1_655 S
O263   C264    1.414   .     S
O263   C1019   1.391   1_554 S
C264   C267    1.521   .     S
C264   H1075   1.111   1_554 S
C264   H1076   1.116   1_554 S
H265   C1074   1.111   .     S
H266   C1074   1.116   .     S
C267   H268    1.111   .     S
H269   C87     1.111   1_655 S
H270   C87     1.111   1_655 S
Zn271  O275    1.968   .     S
Zn271  O283    1.923   .     S
Zn271  O277    1.913   .     S
Zn271  O284    1.930   .     S
Zn272  O286    1.919   .     S
Zn272  O275    1.938   .     S
Zn272  O280    1.930   .     S
Zn272  O278    1.946   .     S
Zn273  O282    1.934   .     S
Zn273  O279    1.935   .     S
Zn273  O275    1.931   .     S
Zn273  O287    1.932   .     S
Zn274  O276    1.924   .     S
Zn274  O281    1.943   .     S
Zn274  O275    1.928   .     S
Zn274  O285    1.937   .     S
O276   C288    1.267   .     A
O277   C289    1.280   .     A
O278   C290    1.264   .     A
O279   C291    1.270   .     A
O280   C292    1.273   .     A
O281   C293    1.289   .     A
O282   C292    1.267   .     A
O283   C293    1.283   .     A
O284   C290    1.285   .     A
O285   C291    1.264   .     A
O286   C288    1.269   .     A
O287   C289    1.285   .     A
C288   C316    1.434   .     S
C289   C314    1.453   .     S
C290   C319    1.435   .     S
C291   C318    1.458   .     S
C292   C297    1.447   .     S
C293   C309    1.480   .     S
C294   C308    1.387   .     A
C294   H1106   1.082   1_554 S
C294   C1114   1.410   1_554 S
H295   C308    1.084   .     S
H296   C1104   1.082   .     S
C297   C308    1.391   .     A
C297   C307    1.389   .     A
C298   C299    1.401   .     A
C298   H311    1.081   .     S
C298   C309    1.402   .     A
C299   C1110   1.394   .     S
C299   O1163   1.391   .     S
C300   H312    1.076   .     S
C300   C1109   1.394   1_554 S
C300   C1111   1.418   1_554 S
C301   C302    1.418   .     A
C301   C1110   1.418   .     S
C301   C1113   1.427   .     S
C302   C306    1.410   .     A
C302   C309    1.423   .     A
C303   C307    1.409   .     A
C303   C1111   1.427   1_554 S
C303   C1114   1.429   1_554 S
C304   C305    1.407   .     A
C304   C1104   1.410   .     S
C304   C1113   1.429   .     S
C305   C306    1.389   .     A
C305   C342    1.483   .     S
C306   H313    1.080   .     S
C307   H310    1.077   .     S
C314   H405    1.087   .     S
C314   C406    1.334   .     S
H315   C494    1.087   1_455 S
C316   C494    1.334   1_455 S
C316   H497    1.085   1_455 S
H317   C406    1.085   .     S
C318   C589    1.356   .     S
C318   C590    1.491   .     S
C320   C321    1.406   .     A
C320   C325    1.406   .     A
C321   C322    1.399   .     A
C322   H327    1.082   .     S
C322   C323    1.398   .     A
C323   C324    1.398   .     A
C323   H418    1.082   .     S
C324   C325    1.399   .     A
C324   H329    1.082   .     S
C325   H330    1.083   .     S
H326   C591    1.083   .     S
H328   C503    1.082   1_455 S
C331   C336    1.407   .     A
C331   C332    1.405   .     A
C331   C589    1.492   .     S
C332   C333    1.399   .     A
C332   H607    1.083   .     S
C333   H338    1.082   .     S
C333   C334    1.398   .     A
C334   C335    1.397   .     A
C334   H519    1.082   1_455 S
C335   H340    1.082   .     S
C335   C336    1.398   .     A
C336   H341    1.083   .     S
H339   C424    1.082   .     S
C342   C343    1.405   .     A
C342   C347    1.404   .     A
C343   C344    1.398   .     A
C343   H348    1.083   .     S
C344   H349    1.082   .     S
C344   C435    1.397   .     S
C345   H350    1.083   .     S
C345   C346    1.398   .     A
C345   C524    1.397   1_455 S
C346   H351    1.080   .     S
C346   C527    1.400   1_455 S
C347   H352    1.083   .     S
C347   C436    1.400   .     S
O353   C354    1.414   .     S
O353   C1109   1.391   1_554 S
C354   C357    1.521   .     S
C354   H1165   1.111   1_554 S
C354   H1166   1.116   1_554 S
H355   C1164   1.111   .     S
H356   C1164   1.116   .     S
C357   H358    1.111   .     S
C357   H539    1.111   1_455 S
C357   H540    1.111   1_455 S
H359   C447    1.111   .     S
H360   C447    1.111   .     S
Zn361  O365    1.968   .     S
Zn361  O373    1.923   .     S
Zn361  O367    1.913   .     S
Zn361  O374    1.930   .     S
Zn362  O376    1.919   .     S
Zn362  O365    1.938   .     S
Zn362  O370    1.930   .     S
Zn362  O368    1.946   .     S
Zn363  O372    1.934   .     S
Zn363  O369    1.935   .     S
Zn363  O365    1.931   .     S
Zn363  O377    1.932   .     S
Zn364  O366    1.924   .     S
Zn364  O371    1.943   .     S
Zn364  O365    1.928   .     S
Zn364  O375    1.937   .     S
O366   C378    1.267   .     A
O367   C379    1.280   .     A
O368   C380    1.264   .     A
O369   C381    1.270   .     A
O370   C382    1.273   .     A
O371   C383    1.289   .     A
O372   C382    1.267   .     A
O373   C383    1.283   .     A
O374   C380    1.285   .     A
O375   C381    1.264   .     A
O376   C378    1.269   .     A
O377   C379    1.285   .     A
C378   C406    1.434   .     S
C379   C404    1.453   .     S
C380   C409    1.435   .     S
C381   C408    1.458   .     S
C382   C387    1.447   .     S
C383   C399    1.480   .     S
C384   C398    1.387   .     A
C384   H1196   1.082   1_554 S
C384   C1204   1.410   1_554 S
H385   C398    1.084   .     S
H386   C1194   1.082   .     S
C387   C398    1.391   .     A
C387   C397    1.389   .     A
C388   C389    1.401   .     A
C388   H401    1.081   .     S
C388   C399    1.402   .     A
C389   C1200   1.394   .     S
C389   O1253   1.391   .     S
C390   H402    1.076   .     S
C390   C1199   1.394   1_554 S
C390   C1201   1.418   1_554 S
C391   C392    1.418   .     A
C391   C1200   1.418   .     S
C391   C1203   1.427   .     S
C392   C396    1.410   .     A
C392   C399    1.423   .     A
C393   C397    1.409   .     A
C393   C1201   1.427   1_554 S
C393   C1204   1.429   1_554 S
C394   C395    1.407   .     A
C394   C1194   1.410   .     S
C394   C1203   1.429   .     S
C395   C396    1.389   .     A
C395   C432    1.483   .     S
C396   H403    1.080   .     S
C397   H400    1.077   .     S
C404   H495    1.087   .     S
C404   C496    1.334   .     S
H407   C496    1.085   .     S
C408   C679    1.356   .     S
C408   C680    1.491   .     S
C410   C411    1.406   .     A
C410   C415    1.406   .     A
C411   C412    1.399   .     A
C412   H417    1.082   .     S
C412   C413    1.398   .     A
C413   C414    1.398   .     A
C413   H508    1.082   .     S
C414   C415    1.399   .     A
C414   H419    1.082   .     S
C415   H420    1.083   .     S
H416   C681    1.083   .     S
C421   C426    1.407   .     A
C421   C422    1.405   .     A
C421   C679    1.492   .     S
C422   C423    1.399   .     A
C422   H697    1.083   .     S
C423   H428    1.082   .     S
C423   C424    1.398   .     A
C424   C425    1.397   .     A
C425   H430    1.082   .     S
C425   C426    1.398   .     A
C426   H431    1.083   .     S
H429   C514    1.082   .     S
C432   C433    1.405   .     A
C432   C437    1.404   .     A
C433   C434    1.398   .     A
C433   H438    1.083   .     S
C434   H439    1.082   .     S
C434   C525    1.397   .     S
C435   H440    1.083   .     S
C435   C436    1.398   .     A
C436   H441    1.080   .     S
C437   H442    1.083   .     S
C437   C526    1.400   .     S
O443   C444    1.414   .     S
O443   C1199   1.391   1_554 S
C444   C447    1.521   .     S
C444   H1255   1.111   1_554 S
C444   H1256   1.116   1_554 S
H445   C1254   1.111   .     S
H446   C1254   1.116   .     S
C447   H448    1.111   .     S
H449   C537    1.111   .     S
H450   C537    1.111   .     S
Zn451  O455    1.968   .     S
Zn451  O463    1.923   .     S
Zn451  O457    1.913   .     S
Zn451  O464    1.930   .     S
Zn452  O466    1.919   .     S
Zn452  O455    1.938   .     S
Zn452  O460    1.930   .     S
Zn452  O458    1.946   .     S
Zn453  O462    1.934   .     S
Zn453  O459    1.935   .     S
Zn453  O455    1.931   .     S
Zn453  O467    1.932   .     S
Zn454  O456    1.924   .     S
Zn454  O461    1.943   .     S
Zn454  O455    1.928   .     S
Zn454  O465    1.937   .     S
O456   C468    1.267   .     A
O457   C469    1.280   .     A
O458   C470    1.264   .     A
O459   C471    1.270   .     A
O460   C472    1.273   .     A
O461   C473    1.289   .     A
O462   C472    1.267   .     A
O463   C473    1.283   .     A
O464   C470    1.285   .     A
O465   C471    1.264   .     A
O466   C468    1.269   .     A
O467   C469    1.285   .     A
C468   C496    1.434   .     S
C469   C494    1.453   .     S
C470   C499    1.435   .     S
C471   C498    1.458   .     S
C472   C477    1.447   .     S
C473   C489    1.480   .     S
C474   C488    1.387   .     A
C474   H1286   1.082   1_554 S
C474   C1294   1.410   1_554 S
H475   C488    1.084   .     S
H476   C1284   1.082   .     S
C477   C488    1.391   .     A
C477   C487    1.389   .     A
C478   C479    1.401   .     A
C478   H491    1.081   .     S
C478   C489    1.402   .     A
C479   C1290   1.394   .     S
C479   O1343   1.391   .     S
C480   H492    1.076   .     S
C480   C1289   1.394   1_554 S
C480   C1291   1.418   1_554 S
C481   C482    1.418   .     A
C481   C1290   1.418   .     S
C481   C1293   1.427   .     S
C482   C486    1.410   .     A
C482   C489    1.423   .     A
C483   C487    1.409   .     A
C483   C1291   1.427   1_554 S
C483   C1294   1.429   1_554 S
C484   C485    1.407   .     A
C484   C1284   1.410   .     S
C484   C1293   1.429   .     S
C485   C486    1.389   .     A
C485   C522    1.483   .     S
C486   H493    1.080   .     S
C487   H490    1.077   .     S
C494   H315    1.087   1_655 S
C494   C316    1.334   1_655 S
H497   C316    1.085   1_655 S
C498   C769    1.356   .     S
C498   C770    1.491   .     S
C500   C501    1.406   .     A
C500   C505    1.406   .     A
C501   C502    1.399   .     A
C502   H507    1.082   .     S
C502   C503    1.398   .     A
C503   C504    1.398   .     A
C503   H328    1.082   1_655 S
C504   C505    1.399   .     A
C504   H509    1.082   .     S
C505   H510    1.083   .     S
H506   C771    1.083   .     S
C511   C516    1.407   .     A
C511   C512    1.405   .     A
C511   C769    1.492   .     S
C512   C513    1.399   .     A
C512   H787    1.083   .     S
C513   H518    1.082   .     S
C513   C514    1.398   .     A
C514   C515    1.397   .     A
C515   H520    1.082   .     S
C515   C516    1.398   .     A
C516   H521    1.083   .     S
H519   C334    1.082   1_655 S
C522   C523    1.405   .     A
C522   C527    1.404   .     A
C523   C524    1.398   .     A
C523   H528    1.083   .     S
C524   H529    1.082   .     S
C524   C345    1.397   1_655 S
C525   H530    1.083   .     S
C525   C526    1.398   .     A
C526   H531    1.080   .     S
C527   H532    1.083   .     S
C527   C346    1.400   1_655 S
O533   C534    1.414   .     S
O533   C1289   1.391   1_554 S
C534   C537    1.521   .     S
C534   H1345   1.111   1_554 S
C534   H1346   1.116   1_554 S
H535   C1344   1.111   .     S
H536   C1344   1.116   .     S
C537   H538    1.111   .     S
H539   C357    1.111   1_655 S
H540   C357    1.111   1_655 S
Zn541  O545    1.968   .     S
Zn541  O553    1.923   .     S
Zn541  O547    1.913   .     S
Zn541  O554    1.930   .     S
Zn542  O556    1.919   .     S
Zn542  O545    1.938   .     S
Zn542  O550    1.930   .     S
Zn542  O548    1.946   .     S
Zn543  O552    1.934   .     S
Zn543  O549    1.935   .     S
Zn543  O545    1.931   .     S
Zn543  O557    1.932   .     S
Zn544  O546    1.924   .     S
Zn544  O551    1.943   .     S
Zn544  O545    1.928   .     S
Zn544  O555    1.937   .     S
O546   C558    1.267   .     A
O547   C559    1.280   .     A
O548   C560    1.264   .     A
O549   C561    1.270   .     A
O550   C562    1.273   .     A
O551   C563    1.289   .     A
O552   C562    1.267   .     A
O553   C563    1.283   .     A
O554   C560    1.285   .     A
O555   C561    1.264   .     A
O556   C558    1.269   .     A
O557   C559    1.285   .     A
C558   C586    1.434   .     S
C559   C584    1.453   .     S
C560   C589    1.435   .     S
C561   C588    1.458   .     S
C562   C567    1.447   .     S
C563   C579    1.480   .     S
C564   C578    1.387   .     A
C564   H1376   1.082   1_554 S
C564   C1384   1.410   1_554 S
H565   C578    1.084   .     S
H566   C1374   1.082   .     S
C567   C578    1.391   .     A
C567   C577    1.389   .     A
C568   C569    1.401   .     A
C568   H581    1.081   .     S
C568   C579    1.402   .     A
C569   C1380   1.394   .     S
C569   O1433   1.391   .     S
C570   H582    1.076   .     S
C570   C1379   1.394   1_554 S
C570   C1381   1.418   1_554 S
C571   C572    1.418   .     A
C571   C1380   1.418   .     S
C571   C1383   1.427   .     S
C572   C576    1.410   .     A
C572   C579    1.423   .     A
C573   C577    1.409   .     A
C573   C1381   1.427   1_554 S
C573   C1384   1.429   1_554 S
C574   C575    1.407   .     A
C574   C1374   1.410   .     S
C574   C1383   1.429   .     S
C575   C576    1.389   .     A
C575   C612    1.483   .     S
C576   H583    1.080   .     S
C577   H580    1.077   .     S
C584   H675    1.087   .     S
C584   C676    1.334   .     S
H585   C764    1.087   1_455 S
C586   C764    1.334   1_455 S
C586   H767    1.085   1_455 S
H587   C676    1.085   .     S
C588   C49     1.356   1_565 S
C588   C50     1.491   1_565 S
C590   C591    1.406   .     A
C590   C595    1.406   .     A
C591   C592    1.399   .     A
C592   H597    1.082   .     S
C592   C593    1.398   .     A
C593   C594    1.398   .     A
C593   H688    1.082   .     S
C594   C595    1.399   .     A
C594   H599    1.082   .     S
C595   H600    1.083   .     S
H596   C51     1.083   1_565 S
H598   C773    1.082   1_455 S
C601   C606    1.407   .     A
C601   C602    1.405   .     A
C601   C49     1.492   1_565 S
C602   C603    1.399   .     A
C602   H67     1.083   1_565 S
C603   H608    1.082   .     S
C603   C604    1.398   .     A
C604   C605    1.397   .     A
C604   H789    1.082   1_455 S
C605   H610    1.082   .     S
C605   C606    1.398   .     A
C606   H611    1.083   .     S
H609   C694    1.082   .     S
C612   C613    1.405   .     A
C612   C617    1.404   .     A
C613   C614    1.398   .     A
C613   H618    1.083   .     S
C614   H619    1.082   .     S
C614   C705    1.397   .     S
C615   H620    1.083   .     S
C615   C616    1.398   .     A
C615   C794    1.397   1_455 S
C616   H621    1.080   .     S
C616   C797    1.400   1_455 S
C617   H622    1.083   .     S
C617   C706    1.400   .     S
O623   C624    1.414   .     S
O623   C1379   1.391   1_554 S
C624   C627    1.521   .     S
C624   H1435   1.111   1_554 S
C624   H1436   1.116   1_554 S
H625   C1434   1.111   .     S
H626   C1434   1.116   .     S
C627   H628    1.111   .     S
C627   H809    1.111   1_455 S
C627   H810    1.111   1_455 S
H629   C717    1.111   .     S
H630   C717    1.111   .     S
Zn631  O635    1.968   .     S
Zn631  O643    1.923   .     S
Zn631  O637    1.913   .     S
Zn631  O644    1.930   .     S
Zn632  O646    1.919   .     S
Zn632  O635    1.938   .     S
Zn632  O640    1.930   .     S
Zn632  O638    1.946   .     S
Zn633  O642    1.934   .     S
Zn633  O639    1.935   .     S
Zn633  O635    1.931   .     S
Zn633  O647    1.932   .     S
Zn634  O636    1.924   .     S
Zn634  O641    1.943   .     S
Zn634  O635    1.928   .     S
Zn634  O645    1.937   .     S
O636   C648    1.267   .     A
O637   C649    1.280   .     A
O638   C650    1.264   .     A
O639   C651    1.270   .     A
O640   C652    1.273   .     A
O641   C653    1.289   .     A
O642   C652    1.267   .     A
O643   C653    1.283   .     A
O644   C650    1.285   .     A
O645   C651    1.264   .     A
O646   C648    1.269   .     A
O647   C649    1.285   .     A
C648   C676    1.434   .     S
C649   C674    1.453   .     S
C650   C679    1.435   .     S
C651   C678    1.458   .     S
C652   C657    1.447   .     S
C653   C669    1.480   .     S
C654   C668    1.387   .     A
C654   H1466   1.082   1_554 S
C654   C1474   1.410   1_554 S
H655   C668    1.084   .     S
H656   C1464   1.082   .     S
C657   C668    1.391   .     A
C657   C667    1.389   .     A
C658   C659    1.401   .     A
C658   H671    1.081   .     S
C658   C669    1.402   .     A
C659   C1470   1.394   .     S
C659   O1523   1.391   .     S
C660   H672    1.076   .     S
C660   C1469   1.394   1_554 S
C660   C1471   1.418   1_554 S
C661   C662    1.418   .     A
C661   C1470   1.418   .     S
C661   C1473   1.427   .     S
C662   C666    1.410   .     A
C662   C669    1.423   .     A
C663   C667    1.409   .     A
C663   C1471   1.427   1_554 S
C663   C1474   1.429   1_554 S
C664   C665    1.407   .     A
C664   C1464   1.410   .     S
C664   C1473   1.429   .     S
C665   C666    1.389   .     A
C665   C702    1.483   .     S
C666   H673    1.080   .     S
C667   H670    1.077   .     S
C674   H765    1.087   .     S
C674   C766    1.334   .     S
H677   C766    1.085   .     S
C678   C139    1.356   1_565 S
C678   C140    1.491   1_565 S
C680   C681    1.406   .     A
C680   C685    1.406   .     A
C681   C682    1.399   .     A
C682   H687    1.082   .     S
C682   C683    1.398   .     A
C683   C684    1.398   .     A
C683   H778    1.082   .     S
C684   C685    1.399   .     A
C684   H689    1.082   .     S
C685   H690    1.083   .     S
H686   C141    1.083   1_565 S
C691   C696    1.407   .     A
C691   C692    1.405   .     A
C691   C139    1.492   1_565 S
C692   C693    1.399   .     A
C692   H157    1.083   1_565 S
C693   H698    1.082   .     S
C693   C694    1.398   .     A
C694   C695    1.397   .     A
C695   H700    1.082   .     S
C695   C696    1.398   .     A
C696   H701    1.083   .     S
H699   C784    1.082   .     S
C702   C703    1.405   .     A
C702   C707    1.404   .     A
C703   C704    1.398   .     A
C703   H708    1.083   .     S
C704   H709    1.082   .     S
C704   C795    1.397   .     S
C705   H710    1.083   .     S
C705   C706    1.398   .     A
C706   H711    1.080   .     S
C707   H712    1.083   .     S
C707   C796    1.400   .     S
O713   C714    1.414   .     S
O713   C1469   1.391   1_554 S
C714   C717    1.521   .     S
C714   H1525   1.111   1_554 S
C714   H1526   1.116   1_554 S
H715   C1524   1.111   .     S
H716   C1524   1.116   .     S
C717   H718    1.111   .     S
H719   C807    1.111   .     S
H720   C807    1.111   .     S
Zn721  O725    1.968   .     S
Zn721  O733    1.923   .     S
Zn721  O727    1.913   .     S
Zn721  O734    1.930   .     S
Zn722  O736    1.919   .     S
Zn722  O725    1.938   .     S
Zn722  O730    1.930   .     S
Zn722  O728    1.946   .     S
Zn723  O732    1.934   .     S
Zn723  O729    1.935   .     S
Zn723  O725    1.931   .     S
Zn723  O737    1.932   .     S
Zn724  O726    1.924   .     S
Zn724  O731    1.943   .     S
Zn724  O725    1.928   .     S
Zn724  O735    1.937   .     S
O726   C738    1.267   .     A
O727   C739    1.280   .     A
O728   C740    1.264   .     A
O729   C741    1.270   .     A
O730   C742    1.273   .     A
O731   C743    1.289   .     A
O732   C742    1.267   .     A
O733   C743    1.283   .     A
O734   C740    1.285   .     A
O735   C741    1.264   .     A
O736   C738    1.269   .     A
O737   C739    1.285   .     A
C738   C766    1.434   .     S
C739   C764    1.453   .     S
C740   C769    1.435   .     S
C741   C768    1.458   .     S
C742   C747    1.447   .     S
C743   C759    1.480   .     S
C744   C758    1.387   .     A
C744   H1556   1.082   1_554 S
C744   C1564   1.410   1_554 S
H745   C758    1.084   .     S
H746   C1554   1.082   .     S
C747   C758    1.391   .     A
C747   C757    1.389   .     A
C748   C749    1.401   .     A
C748   H761    1.081   .     S
C748   C759    1.402   .     A
C749   C1560   1.394   .     S
C749   O1613   1.391   .     S
C750   H762    1.076   .     S
C750   C1559   1.394   1_554 S
C750   C1561   1.418   1_554 S
C751   C752    1.418   .     A
C751   C1560   1.418   .     S
C751   C1563   1.427   .     S
C752   C756    1.410   .     A
C752   C759    1.423   .     A
C753   C757    1.409   .     A
C753   C1561   1.427   1_554 S
C753   C1564   1.429   1_554 S
C754   C755    1.407   .     A
C754   C1554   1.410   .     S
C754   C1563   1.429   .     S
C755   C756    1.389   .     A
C755   C792    1.483   .     S
C756   H763    1.080   .     S
C757   H760    1.077   .     S
C764   H585    1.087   1_655 S
C764   C586    1.334   1_655 S
H767   C586    1.085   1_655 S
C768   C229    1.356   1_565 S
C768   C230    1.491   1_565 S
C770   C771    1.406   .     A
C770   C775    1.406   .     A
C771   C772    1.399   .     A
C772   H777    1.082   .     S
C772   C773    1.398   .     A
C773   C774    1.398   .     A
C773   H598    1.082   1_655 S
C774   C775    1.399   .     A
C774   H779    1.082   .     S
C775   H780    1.083   .     S
H776   C231    1.083   1_565 S
C781   C786    1.407   .     A
C781   C782    1.405   .     A
C781   C229    1.492   1_565 S
C782   C783    1.399   .     A
C782   H247    1.083   1_565 S
C783   H788    1.082   .     S
C783   C784    1.398   .     A
C784   C785    1.397   .     A
C785   H790    1.082   .     S
C785   C786    1.398   .     A
C786   H791    1.083   .     S
H789   C604    1.082   1_655 S
C792   C793    1.405   .     A
C792   C797    1.404   .     A
C793   C794    1.398   .     A
C793   H798    1.083   .     S
C794   H799    1.082   .     S
C794   C615    1.397   1_655 S
C795   H800    1.083   .     S
C795   C796    1.398   .     A
C796   H801    1.080   .     S
C797   H802    1.083   .     S
C797   C616    1.400   1_655 S
O803   C804    1.414   .     S
O803   C1559   1.391   1_554 S
C804   C807    1.521   .     S
C804   H1615   1.111   1_554 S
C804   H1616   1.116   1_554 S
H805   C1614   1.111   .     S
H806   C1614   1.116   .     S
C807   H808    1.111   .     S
H809   C627    1.111   1_655 S
H810   C627    1.111   1_655 S
Zn811  O815    1.968   .     S
Zn811  O823    1.923   .     S
Zn811  O817    1.913   .     S
Zn811  O824    1.930   .     S
Zn812  O826    1.919   .     S
Zn812  O815    1.938   .     S
Zn812  O820    1.930   .     S
Zn812  O818    1.946   .     S
Zn813  O822    1.934   .     S
Zn813  O819    1.935   .     S
Zn813  O815    1.931   .     S
Zn813  O827    1.932   .     S
Zn814  O816    1.924   .     S
Zn814  O821    1.943   .     S
Zn814  O815    1.928   .     S
Zn814  O825    1.937   .     S
O816   C828    1.267   .     A
O817   C829    1.280   .     A
O818   C830    1.264   .     A
O819   C831    1.270   .     A
O820   C832    1.273   .     A
O821   C833    1.289   .     A
O822   C832    1.267   .     A
O823   C833    1.283   .     A
O824   C830    1.285   .     A
O825   C831    1.264   .     A
O826   C828    1.269   .     A
O827   C829    1.285   .     A
C828   C856    1.434   .     S
C829   C854    1.453   .     S
C830   C859    1.435   .     S
C831   C858    1.458   .     S
C832   C837    1.447   .     S
C833   C849    1.480   .     S
C834   C848    1.387   .     A
H835   C848    1.084   .     S
H836   C24     1.082   1_556 S
C837   C848    1.391   .     A
C837   C847    1.389   .     A
C838   C839    1.401   .     A
C838   H851    1.081   .     S
C838   C849    1.402   .     A
C839   C30     1.394   1_556 S
C839   O83     1.391   1_556 S
C840   H852    1.076   .     S
C841   C842    1.418   .     A
C841   C30     1.418   1_556 S
C841   C33     1.427   1_556 S
C842   C846    1.410   .     A
C842   C849    1.423   .     A
C843   C847    1.409   .     A
C844   C845    1.407   .     A
C844   C24     1.410   1_556 S
C844   C33     1.429   1_556 S
C845   C846    1.389   .     A
C845   C882    1.483   .     S
C846   H853    1.080   .     S
C847   H850    1.077   .     S
C854   H945    1.087   .     S
C854   C946    1.334   .     S
H855   C1034   1.087   1_455 S
C856   C1034   1.334   1_455 S
C856   H1037   1.085   1_455 S
H857   C946    1.085   .     S
C858   C1129   1.356   .     S
C858   C1130   1.491   .     S
C859   C1398   1.356   1_545 S
C859   C1411   1.492   1_545 S
C860   C861    1.406   .     A
C860   C865    1.406   .     A
C860   C1398   1.491   1_545 S
C861   C862    1.399   .     A
C861   H1406   1.083   1_545 S
C862   H867    1.082   .     S
C862   C863    1.398   .     A
C863   C864    1.398   .     A
C863   H958    1.082   .     S
C864   C865    1.399   .     A
C864   H869    1.082   .     S
C865   H870    1.083   .     S
H866   C1131   1.083   .     S
H868   C1043   1.082   1_455 S
C871   C876    1.407   .     A
C871   C872    1.405   .     A
C871   C1129   1.492   .     S
C872   C873    1.399   .     A
C872   H1147   1.083   .     S
C873   H878    1.082   .     S
C873   C874    1.398   .     A
C874   C875    1.397   .     A
C874   H1059   1.082   1_455 S
C875   H880    1.082   .     S
C875   C876    1.398   .     A
C876   H881    1.083   .     S
H877   C1412   1.083   1_545 S
H879   C964    1.082   .     S
C882   C883    1.405   .     A
C882   C887    1.404   .     A
C883   C884    1.398   .     A
C883   H888    1.083   .     S
C884   H889    1.082   .     S
C884   C975    1.397   .     S
C885   H890    1.083   .     S
C885   C886    1.398   .     A
C885   C1064   1.397   1_455 S
C886   H891    1.080   .     S
C886   C1067   1.400   1_455 S
C887   H892    1.083   .     S
C887   C976    1.400   .     S
O893   C894    1.414   .     S
C894   C897    1.521   .     S
H895   C84     1.111   1_556 S
H896   C84     1.116   1_556 S
C897   H898    1.111   .     S
C897   H1079   1.111   1_455 S
C897   H1080   1.111   1_455 S
H899   C987    1.111   .     S
H900   C987    1.111   .     S
Zn901  O905    1.968   .     S
Zn901  O913    1.923   .     S
Zn901  O907    1.913   .     S
Zn901  O914    1.930   .     S
Zn902  O916    1.919   .     S
Zn902  O905    1.938   .     S
Zn902  O910    1.930   .     S
Zn902  O908    1.946   .     S
Zn903  O912    1.934   .     S
Zn903  O909    1.935   .     S
Zn903  O905    1.931   .     S
Zn903  O917    1.932   .     S
Zn904  O906    1.924   .     S
Zn904  O911    1.943   .     S
Zn904  O905    1.928   .     S
Zn904  O915    1.937   .     S
O906   C918    1.267   .     A
O907   C919    1.280   .     A
O908   C920    1.264   .     A
O909   C921    1.270   .     A
O910   C922    1.273   .     A
O911   C923    1.289   .     A
O912   C922    1.267   .     A
O913   C923    1.283   .     A
O914   C920    1.285   .     A
O915   C921    1.264   .     A
O916   C918    1.269   .     A
O917   C919    1.285   .     A
C918   C946    1.434   .     S
C919   C944    1.453   .     S
C920   C949    1.435   .     S
C921   C948    1.458   .     S
C922   C927    1.447   .     S
C923   C939    1.480   .     S
C924   C938    1.387   .     A
H925   C938    1.084   .     S
H926   C114    1.082   1_556 S
C927   C938    1.391   .     A
C927   C937    1.389   .     A
C928   C929    1.401   .     A
C928   H941    1.081   .     S
C928   C939    1.402   .     A
C929   C120    1.394   1_556 S
C929   O173    1.391   1_556 S
C930   H942    1.076   .     S
C931   C932    1.418   .     A
C931   C120    1.418   1_556 S
C931   C123    1.427   1_556 S
C932   C936    1.410   .     A
C932   C939    1.423   .     A
C933   C937    1.409   .     A
C934   C935    1.407   .     A
C934   C114    1.410   1_556 S
C934   C123    1.429   1_556 S
C935   C936    1.389   .     A
C935   C972    1.483   .     S
C936   H943    1.080   .     S
C937   H940    1.077   .     S
C944   H1035   1.087   .     S
C944   C1036   1.334   .     S
H947   C1036   1.085   .     S
C948   C1219   1.356   .     S
C948   C1220   1.491   .     S
C949   C1488   1.356   1_545 S
C949   C1501   1.492   1_545 S
C950   C951    1.406   .     A
C950   C955    1.406   .     A
C950   C1488   1.491   1_545 S
C951   C952    1.399   .     A
C951   H1496   1.083   1_545 S
C952   H957    1.082   .     S
C952   C953    1.398   .     A
C953   C954    1.398   .     A
C953   H1048   1.082   .     S
C954   C955    1.399   .     A
C954   H959    1.082   .     S
C955   H960    1.083   .     S
H956   C1221   1.083   .     S
C961   C966    1.407   .     A
C961   C962    1.405   .     A
C961   C1219   1.492   .     S
C962   C963    1.399   .     A
C962   H1237   1.083   .     S
C963   H968    1.082   .     S
C963   C964    1.398   .     A
C964   C965    1.397   .     A
C965   H970    1.082   .     S
C965   C966    1.398   .     A
C966   H971    1.083   .     S
H967   C1502   1.083   1_545 S
H969   C1054   1.082   .     S
C972   C973    1.405   .     A
C972   C977    1.404   .     A
C973   C974    1.398   .     A
C973   H978    1.083   .     S
C974   H979    1.082   .     S
C974   C1065   1.397   .     S
C975   H980    1.083   .     S
C975   C976    1.398   .     A
C976   H981    1.080   .     S
C977   H982    1.083   .     S
C977   C1066   1.400   .     S
O983   C984    1.414   .     S
C984   C987    1.521   .     S
H985   C174    1.111   1_556 S
H986   C174    1.116   1_556 S
C987   H988    1.111   .     S
H989   C1077   1.111   .     S
H990   C1077   1.111   .     S
Zn991  O995    1.968   .     S
Zn991  O1003   1.923   .     S
Zn991  O997    1.913   .     S
Zn991  O1004   1.930   .     S
Zn992  O1006   1.919   .     S
Zn992  O995    1.938   .     S
Zn992  O1000   1.930   .     S
Zn992  O998    1.946   .     S
Zn993  O1002   1.934   .     S
Zn993  O999    1.935   .     S
Zn993  O995    1.931   .     S
Zn993  O1007   1.932   .     S
Zn994  O996    1.924   .     S
Zn994  O1001   1.943   .     S
Zn994  O995    1.928   .     S
Zn994  O1005   1.937   .     S
O996   C1008   1.267   .     A
O997   C1009   1.280   .     A
O998   C1010   1.264   .     A
O999   C1011   1.270   .     A
O1000  C1012   1.273   .     A
O1001  C1013   1.289   .     A
O1002  C1012   1.267   .     A
O1003  C1013   1.283   .     A
O1004  C1010   1.285   .     A
O1005  C1011   1.264   .     A
O1006  C1008   1.269   .     A
O1007  C1009   1.285   .     A
C1008  C1036   1.434   .     S
C1009  C1034   1.453   .     S
C1010  C1039   1.435   .     S
C1011  C1038   1.458   .     S
C1012  C1017   1.447   .     S
C1013  C1029   1.480   .     S
C1014  C1028   1.387   .     A
H1015  C1028   1.084   .     S
H1016  C204    1.082   1_556 S
C1017  C1028   1.391   .     A
C1017  C1027   1.389   .     A
C1018  C1019   1.401   .     A
C1018  H1031   1.081   .     S
C1018  C1029   1.402   .     A
C1019  C210    1.394   1_556 S
C1019  O263    1.391   1_556 S
C1020  H1032   1.076   .     S
C1021  C1022   1.418   .     A
C1021  C210    1.418   1_556 S
C1021  C213    1.427   1_556 S
C1022  C1026   1.410   .     A
C1022  C1029   1.423   .     A
C1023  C1027   1.409   .     A
C1024  C1025   1.407   .     A
C1024  C204    1.410   1_556 S
C1024  C213    1.429   1_556 S
C1025  C1026   1.389   .     A
C1025  C1062   1.483   .     S
C1026  H1033   1.080   .     S
C1027  H1030   1.077   .     S
C1034  H855    1.087   1_655 S
C1034  C856    1.334   1_655 S
H1037  C856    1.085   1_655 S
C1038  C1309   1.356   .     S
C1038  C1310   1.491   .     S
C1039  C1578   1.356   1_545 S
C1039  C1591   1.492   1_545 S
C1040  C1041   1.406   .     A
C1040  C1045   1.406   .     A
C1040  C1578   1.491   1_545 S
C1041  C1042   1.399   .     A
C1041  H1586   1.083   1_545 S
C1042  H1047   1.082   .     S
C1042  C1043   1.398   .     A
C1043  C1044   1.398   .     A
C1043  H868    1.082   1_655 S
C1044  C1045   1.399   .     A
C1044  H1049   1.082   .     S
C1045  H1050   1.083   .     S
H1046  C1311   1.083   .     S
C1051  C1056   1.407   .     A
C1051  C1052   1.405   .     A
C1051  C1309   1.492   .     S
C1052  C1053   1.399   .     A
C1052  H1327   1.083   .     S
C1053  H1058   1.082   .     S
C1053  C1054   1.398   .     A
C1054  C1055   1.397   .     A
C1055  H1060   1.082   .     S
C1055  C1056   1.398   .     A
C1056  H1061   1.083   .     S
H1057  C1592   1.083   1_545 S
H1059  C874    1.082   1_655 S
C1062  C1063   1.405   .     A
C1062  C1067   1.404   .     A
C1063  C1064   1.398   .     A
C1063  H1068   1.083   .     S
C1064  H1069   1.082   .     S
C1064  C885    1.397   1_655 S
C1065  H1070   1.083   .     S
C1065  C1066   1.398   .     A
C1066  H1071   1.080   .     S
C1067  H1072   1.083   .     S
C1067  C886    1.400   1_655 S
O1073  C1074   1.414   .     S
C1074  C1077   1.521   .     S
H1075  C264    1.111   1_556 S
H1076  C264    1.116   1_556 S
C1077  H1078   1.111   .     S
H1079  C897    1.111   1_655 S
H1080  C897    1.111   1_655 S
Zn1081 O1085   1.968   .     S
Zn1081 O1093   1.923   .     S
Zn1081 O1087   1.913   .     S
Zn1081 O1094   1.930   .     S
Zn1082 O1096   1.919   .     S
Zn1082 O1085   1.938   .     S
Zn1082 O1090   1.930   .     S
Zn1082 O1088   1.946   .     S
Zn1083 O1092   1.934   .     S
Zn1083 O1089   1.935   .     S
Zn1083 O1085   1.931   .     S
Zn1083 O1097   1.932   .     S
Zn1084 O1086   1.924   .     S
Zn1084 O1091   1.943   .     S
Zn1084 O1085   1.928   .     S
Zn1084 O1095   1.937   .     S
O1086  C1098   1.267   .     A
O1087  C1099   1.280   .     A
O1088  C1100   1.264   .     A
O1089  C1101   1.270   .     A
O1090  C1102   1.273   .     A
O1091  C1103   1.289   .     A
O1092  C1102   1.267   .     A
O1093  C1103   1.283   .     A
O1094  C1100   1.285   .     A
O1095  C1101   1.264   .     A
O1096  C1098   1.269   .     A
O1097  C1099   1.285   .     A
C1098  C1126   1.434   .     S
C1099  C1124   1.453   .     S
C1100  C1129   1.435   .     S
C1101  C1128   1.458   .     S
C1102  C1107   1.447   .     S
C1103  C1119   1.480   .     S
C1104  C1118   1.387   .     A
H1105  C1118   1.084   .     S
H1106  C294    1.082   1_556 S
C1107  C1118   1.391   .     A
C1107  C1117   1.389   .     A
C1108  C1109   1.401   .     A
C1108  H1121   1.081   .     S
C1108  C1119   1.402   .     A
C1109  C300    1.394   1_556 S
C1109  O353    1.391   1_556 S
C1110  H1122   1.076   .     S
C1111  C1112   1.418   .     A
C1111  C300    1.418   1_556 S
C1111  C303    1.427   1_556 S
C1112  C1116   1.410   .     A
C1112  C1119   1.423   .     A
C1113  C1117   1.409   .     A
C1114  C1115   1.407   .     A
C1114  C294    1.410   1_556 S
C1114  C303    1.429   1_556 S
C1115  C1116   1.389   .     A
C1115  C1152   1.483   .     S
C1116  H1123   1.080   .     S
C1117  H1120   1.077   .     S
C1124  H1215   1.087   .     S
C1124  C1216   1.334   .     S
H1125  C1304   1.087   1_455 S
C1126  C1304   1.334   1_455 S
C1126  H1307   1.085   1_455 S
H1127  C1216   1.085   .     S
C1128  C1399   1.356   .     S
C1128  C1400   1.491   .     S
C1130  C1131   1.406   .     A
C1130  C1135   1.406   .     A
C1131  C1132   1.399   .     A
C1132  H1137   1.082   .     S
C1132  C1133   1.398   .     A
C1133  C1134   1.398   .     A
C1133  H1228   1.082   .     S
C1134  C1135   1.399   .     A
C1134  H1139   1.082   .     S
C1135  H1140   1.083   .     S
H1136  C1401   1.083   .     S
H1138  C1313   1.082   1_455 S
C1141  C1146   1.407   .     A
C1141  C1142   1.405   .     A
C1141  C1399   1.492   .     S
C1142  C1143   1.399   .     A
C1142  H1417   1.083   .     S
C1143  H1148   1.082   .     S
C1143  C1144   1.398   .     A
C1144  C1145   1.397   .     A
C1144  H1329   1.082   1_455 S
C1145  H1150   1.082   .     S
C1145  C1146   1.398   .     A
C1146  H1151   1.083   .     S
H1149  C1234   1.082   .     S
C1152  C1153   1.405   .     A
C1152  C1157   1.404   .     A
C1153  C1154   1.398   .     A
C1153  H1158   1.083   .     S
C1154  H1159   1.082   .     S
C1154  C1245   1.397   .     S
C1155  H1160   1.083   .     S
C1155  C1156   1.398   .     A
C1155  C1334   1.397   1_455 S
C1156  H1161   1.080   .     S
C1156  C1337   1.400   1_455 S
C1157  H1162   1.083   .     S
C1157  C1246   1.400   .     S
O1163  C1164   1.414   .     S
C1164  C1167   1.521   .     S
H1165  C354    1.111   1_556 S
H1166  C354    1.116   1_556 S
C1167  H1168   1.111   .     S
C1167  H1349   1.111   1_455 S
C1167  H1350   1.111   1_455 S
H1169  C1257   1.111   .     S
H1170  C1257   1.111   .     S
Zn1171 O1175   1.968   .     S
Zn1171 O1183   1.923   .     S
Zn1171 O1177   1.913   .     S
Zn1171 O1184   1.930   .     S
Zn1172 O1186   1.919   .     S
Zn1172 O1175   1.938   .     S
Zn1172 O1180   1.930   .     S
Zn1172 O1178   1.946   .     S
Zn1173 O1182   1.934   .     S
Zn1173 O1179   1.935   .     S
Zn1173 O1175   1.931   .     S
Zn1173 O1187   1.932   .     S
Zn1174 O1176   1.924   .     S
Zn1174 O1181   1.943   .     S
Zn1174 O1175   1.928   .     S
Zn1174 O1185   1.937   .     S
O1176  C1188   1.267   .     A
O1177  C1189   1.280   .     A
O1178  C1190   1.264   .     A
O1179  C1191   1.270   .     A
O1180  C1192   1.273   .     A
O1181  C1193   1.289   .     A
O1182  C1192   1.267   .     A
O1183  C1193   1.283   .     A
O1184  C1190   1.285   .     A
O1185  C1191   1.264   .     A
O1186  C1188   1.269   .     A
O1187  C1189   1.285   .     A
C1188  C1216   1.434   .     S
C1189  C1214   1.453   .     S
C1190  C1219   1.435   .     S
C1191  C1218   1.458   .     S
C1192  C1197   1.447   .     S
C1193  C1209   1.480   .     S
C1194  C1208   1.387   .     A
H1195  C1208   1.084   .     S
H1196  C384    1.082   1_556 S
C1197  C1208   1.391   .     A
C1197  C1207   1.389   .     A
C1198  C1199   1.401   .     A
C1198  H1211   1.081   .     S
C1198  C1209   1.402   .     A
C1199  C390    1.394   1_556 S
C1199  O443    1.391   1_556 S
C1200  H1212   1.076   .     S
C1201  C1202   1.418   .     A
C1201  C390    1.418   1_556 S
C1201  C393    1.427   1_556 S
C1202  C1206   1.410   .     A
C1202  C1209   1.423   .     A
C1203  C1207   1.409   .     A
C1204  C1205   1.407   .     A
C1204  C384    1.410   1_556 S
C1204  C393    1.429   1_556 S
C1205  C1206   1.389   .     A
C1205  C1242   1.483   .     S
C1206  H1213   1.080   .     S
C1207  H1210   1.077   .     S
C1214  H1305   1.087   .     S
C1214  C1306   1.334   .     S
H1217  C1306   1.085   .     S
C1218  C1489   1.356   .     S
C1218  C1490   1.491   .     S
C1220  C1221   1.406   .     A
C1220  C1225   1.406   .     A
C1221  C1222   1.399   .     A
C1222  H1227   1.082   .     S
C1222  C1223   1.398   .     A
C1223  C1224   1.398   .     A
C1223  H1318   1.082   .     S
C1224  C1225   1.399   .     A
C1224  H1229   1.082   .     S
C1225  H1230   1.083   .     S
H1226  C1491   1.083   .     S
C1231  C1236   1.407   .     A
C1231  C1232   1.405   .     A
C1231  C1489   1.492   .     S
C1232  C1233   1.399   .     A
C1232  H1507   1.083   .     S
C1233  H1238   1.082   .     S
C1233  C1234   1.398   .     A
C1234  C1235   1.397   .     A
C1235  H1240   1.082   .     S
C1235  C1236   1.398   .     A
C1236  H1241   1.083   .     S
H1239  C1324   1.082   .     S
C1242  C1243   1.405   .     A
C1242  C1247   1.404   .     A
C1243  C1244   1.398   .     A
C1243  H1248   1.083   .     S
C1244  H1249   1.082   .     S
C1244  C1335   1.397   .     S
C1245  H1250   1.083   .     S
C1245  C1246   1.398   .     A
C1246  H1251   1.080   .     S
C1247  H1252   1.083   .     S
C1247  C1336   1.400   .     S
O1253  C1254   1.414   .     S
C1254  C1257   1.521   .     S
H1255  C444    1.111   1_556 S
H1256  C444    1.116   1_556 S
C1257  H1258   1.111   .     S
H1259  C1347   1.111   .     S
H1260  C1347   1.111   .     S
Zn1261 O1265   1.968   .     S
Zn1261 O1273   1.923   .     S
Zn1261 O1267   1.913   .     S
Zn1261 O1274   1.930   .     S
Zn1262 O1276   1.919   .     S
Zn1262 O1265   1.938   .     S
Zn1262 O1270   1.930   .     S
Zn1262 O1268   1.946   .     S
Zn1263 O1272   1.934   .     S
Zn1263 O1269   1.935   .     S
Zn1263 O1265   1.931   .     S
Zn1263 O1277   1.932   .     S
Zn1264 O1266   1.924   .     S
Zn1264 O1271   1.943   .     S
Zn1264 O1265   1.928   .     S
Zn1264 O1275   1.937   .     S
O1266  C1278   1.267   .     A
O1267  C1279   1.280   .     A
O1268  C1280   1.264   .     A
O1269  C1281   1.270   .     A
O1270  C1282   1.273   .     A
O1271  C1283   1.289   .     A
O1272  C1282   1.267   .     A
O1273  C1283   1.283   .     A
O1274  C1280   1.285   .     A
O1275  C1281   1.264   .     A
O1276  C1278   1.269   .     A
O1277  C1279   1.285   .     A
C1278  C1306   1.434   .     S
C1279  C1304   1.453   .     S
C1280  C1309   1.435   .     S
C1281  C1308   1.458   .     S
C1282  C1287   1.447   .     S
C1283  C1299   1.480   .     S
C1284  C1298   1.387   .     A
H1285  C1298   1.084   .     S
H1286  C474    1.082   1_556 S
C1287  C1298   1.391   .     A
C1287  C1297   1.389   .     A
C1288  C1289   1.401   .     A
C1288  H1301   1.081   .     S
C1288  C1299   1.402   .     A
C1289  C480    1.394   1_556 S
C1289  O533    1.391   1_556 S
C1290  H1302   1.076   .     S
C1291  C1292   1.418   .     A
C1291  C480    1.418   1_556 S
C1291  C483    1.427   1_556 S
C1292  C1296   1.410   .     A
C1292  C1299   1.423   .     A
C1293  C1297   1.409   .     A
C1294  C1295   1.407   .     A
C1294  C474    1.410   1_556 S
C1294  C483    1.429   1_556 S
C1295  C1296   1.389   .     A
C1295  C1332   1.483   .     S
C1296  H1303   1.080   .     S
C1297  H1300   1.077   .     S
C1304  H1125   1.087   1_655 S
C1304  C1126   1.334   1_655 S
H1307  C1126   1.085   1_655 S
C1308  C1579   1.356   .     S
C1308  C1580   1.491   .     S
C1310  C1311   1.406   .     A
C1310  C1315   1.406   .     A
C1311  C1312   1.399   .     A
C1312  H1317   1.082   .     S
C1312  C1313   1.398   .     A
C1313  C1314   1.398   .     A
C1313  H1138   1.082   1_655 S
C1314  C1315   1.399   .     A
C1314  H1319   1.082   .     S
C1315  H1320   1.083   .     S
H1316  C1581   1.083   .     S
C1321  C1326   1.407   .     A
C1321  C1322   1.405   .     A
C1321  C1579   1.492   .     S
C1322  C1323   1.399   .     A
C1322  H1597   1.083   .     S
C1323  H1328   1.082   .     S
C1323  C1324   1.398   .     A
C1324  C1325   1.397   .     A
C1325  H1330   1.082   .     S
C1325  C1326   1.398   .     A
C1326  H1331   1.083   .     S
H1329  C1144   1.082   1_655 S
C1332  C1333   1.405   .     A
C1332  C1337   1.404   .     A
C1333  C1334   1.398   .     A
C1333  H1338   1.083   .     S
C1334  H1339   1.082   .     S
C1334  C1155   1.397   1_655 S
C1335  H1340   1.083   .     S
C1335  C1336   1.398   .     A
C1336  H1341   1.080   .     S
C1337  H1342   1.083   .     S
C1337  C1156   1.400   1_655 S
O1343  C1344   1.414   .     S
C1344  C1347   1.521   .     S
H1345  C534    1.111   1_556 S
H1346  C534    1.116   1_556 S
C1347  H1348   1.111   .     S
H1349  C1167   1.111   1_655 S
H1350  C1167   1.111   1_655 S
Zn1351 O1355   1.968   .     S
Zn1351 O1363   1.923   .     S
Zn1351 O1357   1.913   .     S
Zn1351 O1364   1.930   .     S
Zn1352 O1366   1.919   .     S
Zn1352 O1355   1.938   .     S
Zn1352 O1360   1.930   .     S
Zn1352 O1358   1.946   .     S
Zn1353 O1362   1.934   .     S
Zn1353 O1359   1.935   .     S
Zn1353 O1355   1.931   .     S
Zn1353 O1367   1.932   .     S
Zn1354 O1356   1.924   .     S
Zn1354 O1361   1.943   .     S
Zn1354 O1355   1.928   .     S
Zn1354 O1365   1.937   .     S
O1356  C1368   1.267   .     A
O1357  C1369   1.280   .     A
O1358  C1370   1.264   .     A
O1359  C1371   1.270   .     A
O1360  C1372   1.273   .     A
O1361  C1373   1.289   .     A
O1362  C1372   1.267   .     A
O1363  C1373   1.283   .     A
O1364  C1370   1.285   .     A
O1365  C1371   1.264   .     A
O1366  C1368   1.269   .     A
O1367  C1369   1.285   .     A
C1368  C1396   1.434   .     S
C1369  C1394   1.453   .     S
C1370  C1399   1.435   .     S
C1371  C1398   1.458   .     S
C1372  C1377   1.447   .     S
C1373  C1389   1.480   .     S
C1374  C1388   1.387   .     A
H1375  C1388   1.084   .     S
H1376  C564    1.082   1_556 S
C1377  C1388   1.391   .     A
C1377  C1387   1.389   .     A
C1378  C1379   1.401   .     A
C1378  H1391   1.081   .     S
C1378  C1389   1.402   .     A
C1379  C570    1.394   1_556 S
C1379  O623    1.391   1_556 S
C1380  H1392   1.076   .     S
C1381  C1382   1.418   .     A
C1381  C570    1.418   1_556 S
C1381  C573    1.427   1_556 S
C1382  C1386   1.410   .     A
C1382  C1389   1.423   .     A
C1383  C1387   1.409   .     A
C1384  C1385   1.407   .     A
C1384  C564    1.410   1_556 S
C1384  C573    1.429   1_556 S
C1385  C1386   1.389   .     A
C1385  C1422   1.483   .     S
C1386  H1393   1.080   .     S
C1387  H1390   1.077   .     S
C1394  H1485   1.087   .     S
C1394  C1486   1.334   .     S
H1395  C1574   1.087   1_455 S
C1396  C1574   1.334   1_455 S
C1396  H1577   1.085   1_455 S
H1397  C1486   1.085   .     S
C1398  C859    1.356   1_565 S
C1398  C860    1.491   1_565 S
C1400  C1401   1.406   .     A
C1400  C1405   1.406   .     A
C1401  C1402   1.399   .     A
C1402  H1407   1.082   .     S
C1402  C1403   1.398   .     A
C1403  C1404   1.398   .     A
C1403  H1498   1.082   .     S
C1404  C1405   1.399   .     A
C1404  H1409   1.082   .     S
C1405  H1410   1.083   .     S
H1406  C861    1.083   1_565 S
H1408  C1583   1.082   1_455 S
C1411  C1416   1.407   .     A
C1411  C1412   1.405   .     A
C1411  C859    1.492   1_565 S
C1412  C1413   1.399   .     A
C1412  H877    1.083   1_565 S
C1413  H1418   1.082   .     S
C1413  C1414   1.398   .     A
C1414  C1415   1.397   .     A
C1414  H1599   1.082   1_455 S
C1415  H1420   1.082   .     S
C1415  C1416   1.398   .     A
C1416  H1421   1.083   .     S
H1419  C1504   1.082   .     S
C1422  C1423   1.405   .     A
C1422  C1427   1.404   .     A
C1423  C1424   1.398   .     A
C1423  H1428   1.083   .     S
C1424  H1429   1.082   .     S
C1424  C1515   1.397   .     S
C1425  H1430   1.083   .     S
C1425  C1426   1.398   .     A
C1425  C1604   1.397   1_455 S
C1426  H1431   1.080   .     S
C1426  C1607   1.400   1_455 S
C1427  H1432   1.083   .     S
C1427  C1516   1.400   .     S
O1433  C1434   1.414   .     S
C1434  C1437   1.521   .     S
H1435  C624    1.111   1_556 S
H1436  C624    1.116   1_556 S
C1437  H1438   1.111   .     S
C1437  H1619   1.111   1_455 S
C1437  H1620   1.111   1_455 S
H1439  C1527   1.111   .     S
H1440  C1527   1.111   .     S
Zn1441 O1445   1.968   .     S
Zn1441 O1453   1.923   .     S
Zn1441 O1447   1.913   .     S
Zn1441 O1454   1.930   .     S
Zn1442 O1456   1.919   .     S
Zn1442 O1445   1.938   .     S
Zn1442 O1450   1.930   .     S
Zn1442 O1448   1.946   .     S
Zn1443 O1452   1.934   .     S
Zn1443 O1449   1.935   .     S
Zn1443 O1445   1.931   .     S
Zn1443 O1457   1.932   .     S
Zn1444 O1446   1.924   .     S
Zn1444 O1451   1.943   .     S
Zn1444 O1445   1.928   .     S
Zn1444 O1455   1.937   .     S
O1446  C1458   1.267   .     A
O1447  C1459   1.280   .     A
O1448  C1460   1.264   .     A
O1449  C1461   1.270   .     A
O1450  C1462   1.273   .     A
O1451  C1463   1.289   .     A
O1452  C1462   1.267   .     A
O1453  C1463   1.283   .     A
O1454  C1460   1.285   .     A
O1455  C1461   1.264   .     A
O1456  C1458   1.269   .     A
O1457  C1459   1.285   .     A
C1458  C1486   1.434   .     S
C1459  C1484   1.453   .     S
C1460  C1489   1.435   .     S
C1461  C1488   1.458   .     S
C1462  C1467   1.447   .     S
C1463  C1479   1.480   .     S
C1464  C1478   1.387   .     A
H1465  C1478   1.084   .     S
H1466  C654    1.082   1_556 S
C1467  C1478   1.391   .     A
C1467  C1477   1.389   .     A
C1468  C1469   1.401   .     A
C1468  H1481   1.081   .     S
C1468  C1479   1.402   .     A
C1469  C660    1.394   1_556 S
C1469  O713    1.391   1_556 S
C1470  H1482   1.076   .     S
C1471  C1472   1.418   .     A
C1471  C660    1.418   1_556 S
C1471  C663    1.427   1_556 S
C1472  C1476   1.410   .     A
C1472  C1479   1.423   .     A
C1473  C1477   1.409   .     A
C1474  C1475   1.407   .     A
C1474  C654    1.410   1_556 S
C1474  C663    1.429   1_556 S
C1475  C1476   1.389   .     A
C1475  C1512   1.483   .     S
C1476  H1483   1.080   .     S
C1477  H1480   1.077   .     S
C1484  H1575   1.087   .     S
C1484  C1576   1.334   .     S
H1487  C1576   1.085   .     S
C1488  C949    1.356   1_565 S
C1488  C950    1.491   1_565 S
C1490  C1491   1.406   .     A
C1490  C1495   1.406   .     A
C1491  C1492   1.399   .     A
C1492  H1497   1.082   .     S
C1492  C1493   1.398   .     A
C1493  C1494   1.398   .     A
C1493  H1588   1.082   .     S
C1494  C1495   1.399   .     A
C1494  H1499   1.082   .     S
C1495  H1500   1.083   .     S
H1496  C951    1.083   1_565 S
C1501  C1506   1.407   .     A
C1501  C1502   1.405   .     A
C1501  C949    1.492   1_565 S
C1502  C1503   1.399   .     A
C1502  H967    1.083   1_565 S
C1503  H1508   1.082   .     S
C1503  C1504   1.398   .     A
C1504  C1505   1.397   .     A
C1505  H1510   1.082   .     S
C1505  C1506   1.398   .     A
C1506  H1511   1.083   .     S
H1509  C1594   1.082   .     S
C1512  C1513   1.405   .     A
C1512  C1517   1.404   .     A
C1513  C1514   1.398   .     A
C1513  H1518   1.083   .     S
C1514  H1519   1.082   .     S
C1514  C1605   1.397   .     S
C1515  H1520   1.083   .     S
C1515  C1516   1.398   .     A
C1516  H1521   1.080   .     S
C1517  H1522   1.083   .     S
C1517  C1606   1.400   .     S
O1523  C1524   1.414   .     S
C1524  C1527   1.521   .     S
H1525  C714    1.111   1_556 S
H1526  C714    1.116   1_556 S
C1527  H1528   1.111   .     S
H1529  C1617   1.111   .     S
H1530  C1617   1.111   .     S
Zn1531 O1535   1.968   .     S
Zn1531 O1543   1.923   .     S
Zn1531 O1537   1.913   .     S
Zn1531 O1544   1.930   .     S
Zn1532 O1546   1.919   .     S
Zn1532 O1535   1.938   .     S
Zn1532 O1540   1.930   .     S
Zn1532 O1538   1.946   .     S
Zn1533 O1542   1.934   .     S
Zn1533 O1539   1.935   .     S
Zn1533 O1535   1.931   .     S
Zn1533 O1547   1.932   .     S
Zn1534 O1536   1.924   .     S
Zn1534 O1541   1.943   .     S
Zn1534 O1535   1.928   .     S
Zn1534 O1545   1.937   .     S
O1536  C1548   1.267   .     A
O1537  C1549   1.280   .     A
O1538  C1550   1.264   .     A
O1539  C1551   1.270   .     A
O1540  C1552   1.273   .     A
O1541  C1553   1.289   .     A
O1542  C1552   1.267   .     A
O1543  C1553   1.283   .     A
O1544  C1550   1.285   .     A
O1545  C1551   1.264   .     A
O1546  C1548   1.269   .     A
O1547  C1549   1.285   .     A
C1548  C1576   1.434   .     S
C1549  C1574   1.453   .     S
C1550  C1579   1.435   .     S
C1551  C1578   1.458   .     S
C1552  C1557   1.447   .     S
C1553  C1569   1.480   .     S
C1554  C1568   1.387   .     A
H1555  C1568   1.084   .     S
H1556  C744    1.082   1_556 S
C1557  C1568   1.391   .     A
C1557  C1567   1.389   .     A
C1558  C1559   1.401   .     A
C1558  H1571   1.081   .     S
C1558  C1569   1.402   .     A
C1559  C750    1.394   1_556 S
C1559  O803    1.391   1_556 S
C1560  H1572   1.076   .     S
C1561  C1562   1.418   .     A
C1561  C750    1.418   1_556 S
C1561  C753    1.427   1_556 S
C1562  C1566   1.410   .     A
C1562  C1569   1.423   .     A
C1563  C1567   1.409   .     A
C1564  C1565   1.407   .     A
C1564  C744    1.410   1_556 S
C1564  C753    1.429   1_556 S
C1565  C1566   1.389   .     A
C1565  C1602   1.483   .     S
C1566  H1573   1.080   .     S
C1567  H1570   1.077   .     S
C1574  H1395   1.087   1_655 S
C1574  C1396   1.334   1_655 S
H1577  C1396   1.085   1_655 S
C1578  C1039   1.356   1_565 S
C1578  C1040   1.491   1_565 S
C1580  C1581   1.406   .     A
C1580  C1585   1.406   .     A
C1581  C1582   1.399   .     A
C1582  H1587   1.082   .     S
C1582  C1583   1.398   .     A
C1583  C1584   1.398   .     A
C1583  H1408   1.082   1_655 S
C1584  C1585   1.399   .     A
C1584  H1589   1.082   .     S
C1585  H1590   1.083   .     S
H1586  C1041   1.083   1_565 S
C1591  C1596   1.407   .     A
C1591  C1592   1.405   .     A
C1591  C1039   1.492   1_565 S
C1592  C1593   1.399   .     A
C1592  H1057   1.083   1_565 S
C1593  H1598   1.082   .     S
C1593  C1594   1.398   .     A
C1594  C1595   1.397   .     A
C1595  H1600   1.082   .     S
C1595  C1596   1.398   .     A
C1596  H1601   1.083   .     S
H1599  C1414   1.082   1_655 S
C1602  C1603   1.405   .     A
C1602  C1607   1.404   .     A
C1603  C1604   1.398   .     A
C1603  H1608   1.083   .     S
C1604  H1609   1.082   .     S
C1604  C1425   1.397   1_655 S
C1605  H1610   1.083   .     S
C1605  C1606   1.398   .     A
C1606  H1611   1.080   .     S
C1607  H1612   1.083   .     S
C1607  C1426   1.400   1_655 S
O1613  C1614   1.414   .     S
C1614  C1617   1.521   .     S
H1615  C804    1.111   1_556 S
H1616  C804    1.116   1_556 S
C1617  H1618   1.111   .     S
H1619  C1437   1.111   1_655 S
H1620  C1437   1.111   1_655 S
