data_str_m3_o5_o17_pcu_sym.1
_audit_creation_date              2020-01-03
_audit_creation_method            'Materials Studio'
_symmetry_space_group_name_H-M    'P1'
_symmetry_Int_Tables_number       1
_symmetry_cell_setting            triclinic
loop_
_symmetry_equiv_pos_as_xyz
  x,y,z
_cell_length_a                    30.0228
_cell_length_b                    26.8064
_cell_length_c                    24.3152
_cell_angle_alpha                 90.0071
_cell_angle_beta                  90.0001
_cell_angle_gamma                 90.0000
loop_
_atom_site_label
_atom_site_type_symbol
_atom_site_fract_x
_atom_site_fract_y
_atom_site_fract_z
_atom_site_U_iso_or_equiv
_atom_site_adp_type
_atom_site_occupancy
C1     C     0.25000   0.07266   0.16666   0.00000  Uiso   1.00
C2     C     0.11524   0.16667   0.16667   0.00000  Uiso   1.00
C3     C     0.45365   0.15305   0.21488   0.00000  Uiso   1.00
C4     C     0.04634   0.18028   0.11845   0.00000  Uiso   1.00
C5     C     0.45365   0.18028   0.11845   0.00000  Uiso   1.00
C6     C     0.04634   0.15305   0.21488   0.00000  Uiso   1.00
C7     C     0.47683   0.16667   0.16667   0.00000  Uiso   1.00
C8     C     0.02317   0.16667   0.16667   0.00000  Uiso   1.00
C9     C     0.47686   0.13930   0.26246   0.00000  Uiso   1.00
C10    C     0.02314   0.19404   0.07088   0.00000  Uiso   1.00
C11    C     0.47686   0.19404   0.07088   0.00000  Uiso   1.00
C12    C     0.25000   0.26067   0.16667   0.00000  Uiso   1.00
C13    C     0.02314   0.13930   0.26246   0.00000  Uiso   1.00
C14    C     0.25000   0.02173   0.16666   0.00000  Uiso   1.00
C15    C     0.25000   0.31160   0.16667   0.00000  Uiso   1.00
C16    C     0.16308   0.16667   0.16667   0.00000  Uiso   1.00
C17    C     0.33691   0.16667   0.16667   0.00000  Uiso   1.00
C18    C     0.40757   0.17999   0.11876   0.00000  Uiso   1.00
C19    C     0.09243   0.15334   0.21457   0.00000  Uiso   1.00
C20    C     0.40757   0.15334   0.21457   0.00000  Uiso   1.00
C21    C     0.09243   0.17999   0.11876   0.00000  Uiso   1.00
C22    C     0.38476   0.16667   0.16667   0.00000  Uiso   1.00
H23    H     0.45924   0.12852   0.29949   0.00000  Uiso   1.00
H24    H     0.04076   0.20481   0.03384   0.00000  Uiso   1.00
H25    H     0.45924   0.20481   0.03384   0.00000  Uiso   1.00
H26    H     0.04076   0.12852   0.29949   0.00000  Uiso   1.00
H27    H     0.38950   0.19056   0.08193   0.00000  Uiso   1.00
H28    H     0.11050   0.14277   0.25141   0.00000  Uiso   1.00
H29    H     0.38950   0.14277   0.25141   0.00000  Uiso   1.00
H30    H     0.11050   0.19056   0.08193   0.00000  Uiso   1.00
N31    N     0.25000   0.16667   0.02455   0.00000  Uiso   1.00
N32    N     0.25000   0.16667   0.30879   0.00000  Uiso   1.00
O33    O     0.25000   0.09512   0.21228   0.00000  Uiso   1.00
O34    O     0.25000   0.23822   0.12105   0.00000  Uiso   1.00
O35    O     0.25000   0.23822   0.21228   0.00000  Uiso   1.00
O36    O     0.25000   0.09512   0.12105   0.00000  Uiso   1.00
O37    O     0.18392   0.16667   0.21230   0.00000  Uiso   1.00
O38    O     0.31607   0.16667   0.12104   0.00000  Uiso   1.00
O39    O     0.31607   0.16667   0.21230   0.00000  Uiso   1.00
O40    O     0.18392   0.16667   0.12104   0.00000  Uiso   1.00
Zn41   Zn    0.25000   0.16667   0.22759   0.00000  Uiso   1.00
Zn42   Zn    0.25000   0.16667   0.10574   0.00000  Uiso   1.00
C43    C     0.75000   0.07266   0.16666   0.00000  Uiso   1.00
C44    C     0.61524   0.16667   0.16667   0.00000  Uiso   1.00
C45    C     0.95365   0.15305   0.21488   0.00000  Uiso   1.00
C46    C     0.54634   0.18028   0.11845   0.00000  Uiso   1.00
C47    C     0.95365   0.18028   0.11845   0.00000  Uiso   1.00
C48    C     0.54634   0.15305   0.21488   0.00000  Uiso   1.00
C49    C     0.97683   0.16667   0.16667   0.00000  Uiso   1.00
C50    C     0.52317   0.16667   0.16667   0.00000  Uiso   1.00
C51    C     0.97686   0.13930   0.26246   0.00000  Uiso   1.00
C52    C     0.52314   0.19404   0.07088   0.00000  Uiso   1.00
C53    C     0.97686   0.19404   0.07088   0.00000  Uiso   1.00
C54    C     0.75000   0.26067   0.16667   0.00000  Uiso   1.00
C55    C     0.52314   0.13930   0.26246   0.00000  Uiso   1.00
C56    C     0.75000   0.02173   0.16666   0.00000  Uiso   1.00
C57    C     0.75000   0.31160   0.16667   0.00000  Uiso   1.00
C58    C     0.66308   0.16667   0.16667   0.00000  Uiso   1.00
C59    C     0.83691   0.16667   0.16667   0.00000  Uiso   1.00
C60    C     0.90757   0.17999   0.11876   0.00000  Uiso   1.00
C61    C     0.59243   0.15334   0.21457   0.00000  Uiso   1.00
C62    C     0.90757   0.15334   0.21457   0.00000  Uiso   1.00
C63    C     0.59243   0.17999   0.11876   0.00000  Uiso   1.00
C64    C     0.88476   0.16667   0.16667   0.00000  Uiso   1.00
H65    H     0.95924   0.12852   0.29949   0.00000  Uiso   1.00
H66    H     0.54076   0.20481   0.03384   0.00000  Uiso   1.00
H67    H     0.95924   0.20481   0.03384   0.00000  Uiso   1.00
H68    H     0.54076   0.12852   0.29949   0.00000  Uiso   1.00
H69    H     0.88950   0.19056   0.08193   0.00000  Uiso   1.00
H70    H     0.61050   0.14277   0.25141   0.00000  Uiso   1.00
H71    H     0.88950   0.14277   0.25141   0.00000  Uiso   1.00
H72    H     0.61050   0.19056   0.08193   0.00000  Uiso   1.00
N73    N     0.75000   0.16667   0.02455   0.00000  Uiso   1.00
N74    N     0.75000   0.16667   0.30879   0.00000  Uiso   1.00
O75    O     0.75000   0.09512   0.21228   0.00000  Uiso   1.00
O76    O     0.75000   0.23822   0.12105   0.00000  Uiso   1.00
O77    O     0.75000   0.23822   0.21228   0.00000  Uiso   1.00
O78    O     0.75000   0.09512   0.12105   0.00000  Uiso   1.00
O79    O     0.68392   0.16667   0.21230   0.00000  Uiso   1.00
O80    O     0.81607   0.16667   0.12104   0.00000  Uiso   1.00
O81    O     0.81607   0.16667   0.21230   0.00000  Uiso   1.00
O82    O     0.68392   0.16667   0.12104   0.00000  Uiso   1.00
Zn83   Zn    0.75000   0.16667   0.22759   0.00000  Uiso   1.00
Zn84   Zn    0.75000   0.16667   0.10574   0.00000  Uiso   1.00
C85    C     0.25000   0.40600   0.16666   0.00000  Uiso   1.00
C86    C     0.11524   0.50000   0.16667   0.00000  Uiso   1.00
C87    C     0.45365   0.48639   0.21488   0.00000  Uiso   1.00
C88    C     0.04634   0.51361   0.11845   0.00000  Uiso   1.00
C89    C     0.45365   0.51362   0.11845   0.00000  Uiso   1.00
C90    C     0.04634   0.48638   0.21488   0.00000  Uiso   1.00
C91    C     0.47683   0.50000   0.16667   0.00000  Uiso   1.00
C92    C     0.02317   0.50000   0.16667   0.00000  Uiso   1.00
C93    C     0.47686   0.47263   0.26246   0.00000  Uiso   1.00
C94    C     0.02314   0.52737   0.07088   0.00000  Uiso   1.00
C95    C     0.47686   0.52737   0.07088   0.00000  Uiso   1.00
C96    C     0.25000   0.59400   0.16667   0.00000  Uiso   1.00
C97    C     0.02314   0.47263   0.26246   0.00000  Uiso   1.00
C98    C     0.25000   0.35506   0.16666   0.00000  Uiso   1.00
C99    C     0.25000   0.64494   0.16667   0.00000  Uiso   1.00
C100   C     0.16308   0.50000   0.16667   0.00000  Uiso   1.00
C101   C     0.33691   0.50000   0.16667   0.00000  Uiso   1.00
C102   C     0.40757   0.51333   0.11876   0.00000  Uiso   1.00
C103   C     0.09243   0.48667   0.21457   0.00000  Uiso   1.00
C104   C     0.40757   0.48668   0.21457   0.00000  Uiso   1.00
C105   C     0.09243   0.51332   0.11876   0.00000  Uiso   1.00
C106   C     0.38476   0.50000   0.16667   0.00000  Uiso   1.00
H107   H     0.45924   0.46186   0.29949   0.00000  Uiso   1.00
H108   H     0.04076   0.53814   0.03384   0.00000  Uiso   1.00
H109   H     0.45924   0.53814   0.03384   0.00000  Uiso   1.00
H110   H     0.04076   0.46186   0.29949   0.00000  Uiso   1.00
H111   H     0.38950   0.52390   0.08193   0.00000  Uiso   1.00
H112   H     0.11050   0.47610   0.25141   0.00000  Uiso   1.00
H113   H     0.38950   0.47611   0.25141   0.00000  Uiso   1.00
H114   H     0.11050   0.52389   0.08193   0.00000  Uiso   1.00
N115   N     0.25000   0.50000   0.02455   0.00000  Uiso   1.00
N116   N     0.25000   0.50000   0.30879   0.00000  Uiso   1.00
O117   O     0.25000   0.42845   0.21228   0.00000  Uiso   1.00
O118   O     0.25000   0.57155   0.12105   0.00000  Uiso   1.00
O119   O     0.25000   0.57155   0.21228   0.00000  Uiso   1.00
O120   O     0.25000   0.42845   0.12105   0.00000  Uiso   1.00
O121   O     0.18392   0.50000   0.21230   0.00000  Uiso   1.00
O122   O     0.31607   0.50000   0.12104   0.00000  Uiso   1.00
O123   O     0.31607   0.50000   0.21230   0.00000  Uiso   1.00
O124   O     0.18392   0.50000   0.12104   0.00000  Uiso   1.00
Zn125  Zn    0.25000   0.50000   0.22759   0.00000  Uiso   1.00
Zn126  Zn    0.25000   0.50000   0.10574   0.00000  Uiso   1.00
C127   C     0.75000   0.40600   0.16666   0.00000  Uiso   1.00
C128   C     0.61524   0.50000   0.16667   0.00000  Uiso   1.00
C129   C     0.95365   0.48639   0.21488   0.00000  Uiso   1.00
C130   C     0.54634   0.51361   0.11845   0.00000  Uiso   1.00
C131   C     0.95365   0.51362   0.11845   0.00000  Uiso   1.00
C132   C     0.54634   0.48638   0.21488   0.00000  Uiso   1.00
C133   C     0.97683   0.50000   0.16667   0.00000  Uiso   1.00
C134   C     0.52317   0.50000   0.16667   0.00000  Uiso   1.00
C135   C     0.97686   0.47263   0.26246   0.00000  Uiso   1.00
C136   C     0.52314   0.52737   0.07088   0.00000  Uiso   1.00
C137   C     0.97686   0.52737   0.07088   0.00000  Uiso   1.00
C138   C     0.75000   0.59400   0.16667   0.00000  Uiso   1.00
C139   C     0.52314   0.47263   0.26246   0.00000  Uiso   1.00
C140   C     0.75000   0.35506   0.16666   0.00000  Uiso   1.00
C141   C     0.75000   0.64494   0.16667   0.00000  Uiso   1.00
C142   C     0.66308   0.50000   0.16667   0.00000  Uiso   1.00
C143   C     0.83691   0.50000   0.16667   0.00000  Uiso   1.00
C144   C     0.90757   0.51333   0.11876   0.00000  Uiso   1.00
C145   C     0.59243   0.48667   0.21457   0.00000  Uiso   1.00
C146   C     0.90757   0.48668   0.21457   0.00000  Uiso   1.00
C147   C     0.59243   0.51332   0.11876   0.00000  Uiso   1.00
C148   C     0.88476   0.50000   0.16667   0.00000  Uiso   1.00
H149   H     0.95924   0.46186   0.29949   0.00000  Uiso   1.00
H150   H     0.54076   0.53814   0.03384   0.00000  Uiso   1.00
H151   H     0.95924   0.53814   0.03384   0.00000  Uiso   1.00
H152   H     0.54076   0.46186   0.29949   0.00000  Uiso   1.00
H153   H     0.88950   0.52390   0.08193   0.00000  Uiso   1.00
H154   H     0.61050   0.47610   0.25141   0.00000  Uiso   1.00
H155   H     0.88950   0.47611   0.25141   0.00000  Uiso   1.00
H156   H     0.61050   0.52389   0.08193   0.00000  Uiso   1.00
N157   N     0.75000   0.50000   0.02455   0.00000  Uiso   1.00
N158   N     0.75000   0.50000   0.30879   0.00000  Uiso   1.00
O159   O     0.75000   0.42845   0.21228   0.00000  Uiso   1.00
O160   O     0.75000   0.57155   0.12105   0.00000  Uiso   1.00
O161   O     0.75000   0.57155   0.21228   0.00000  Uiso   1.00
O162   O     0.75000   0.42845   0.12105   0.00000  Uiso   1.00
O163   O     0.68392   0.50000   0.21230   0.00000  Uiso   1.00
O164   O     0.81607   0.50000   0.12104   0.00000  Uiso   1.00
O165   O     0.81607   0.50000   0.21230   0.00000  Uiso   1.00
O166   O     0.68392   0.50000   0.12104   0.00000  Uiso   1.00
Zn167  Zn    0.75000   0.50000   0.22759   0.00000  Uiso   1.00
Zn168  Zn    0.75000   0.50000   0.10574   0.00000  Uiso   1.00
C169   C     0.25000   0.73933   0.16666   0.00000  Uiso   1.00
C170   C     0.11524   0.83333   0.16667   0.00000  Uiso   1.00
C171   C     0.45365   0.81972   0.21488   0.00000  Uiso   1.00
C172   C     0.04634   0.84695   0.11845   0.00000  Uiso   1.00
C173   C     0.45365   0.84695   0.11845   0.00000  Uiso   1.00
C174   C     0.04634   0.81972   0.21488   0.00000  Uiso   1.00
C175   C     0.47683   0.83333   0.16667   0.00000  Uiso   1.00
C176   C     0.02317   0.83333   0.16667   0.00000  Uiso   1.00
C177   C     0.47686   0.80596   0.26246   0.00000  Uiso   1.00
C178   C     0.02314   0.86070   0.07088   0.00000  Uiso   1.00
C179   C     0.47686   0.86070   0.07088   0.00000  Uiso   1.00
C180   C     0.25000   0.92734   0.16667   0.00000  Uiso   1.00
C181   C     0.02314   0.80596   0.26246   0.00000  Uiso   1.00
C182   C     0.25000   0.68840   0.16666   0.00000  Uiso   1.00
C183   C     0.25000   0.97827   0.16667   0.00000  Uiso   1.00
C184   C     0.16308   0.83333   0.16667   0.00000  Uiso   1.00
C185   C     0.33691   0.83333   0.16667   0.00000  Uiso   1.00
C186   C     0.40757   0.84666   0.11876   0.00000  Uiso   1.00
C187   C     0.09243   0.82001   0.21457   0.00000  Uiso   1.00
C188   C     0.40757   0.82001   0.21457   0.00000  Uiso   1.00
C189   C     0.09243   0.84666   0.11876   0.00000  Uiso   1.00
C190   C     0.38476   0.83333   0.16667   0.00000  Uiso   1.00
H191   H     0.45924   0.79519   0.29949   0.00000  Uiso   1.00
H192   H     0.04076   0.87148   0.03384   0.00000  Uiso   1.00
H193   H     0.45924   0.87148   0.03384   0.00000  Uiso   1.00
H194   H     0.04076   0.79519   0.29949   0.00000  Uiso   1.00
H195   H     0.38950   0.85723   0.08193   0.00000  Uiso   1.00
H196   H     0.11050   0.80944   0.25141   0.00000  Uiso   1.00
H197   H     0.38950   0.80944   0.25141   0.00000  Uiso   1.00
H198   H     0.11050   0.85723   0.08193   0.00000  Uiso   1.00
N199   N     0.25000   0.83333   0.02455   0.00000  Uiso   1.00
N200   N     0.25000   0.83333   0.30879   0.00000  Uiso   1.00
O201   O     0.25000   0.76178   0.21228   0.00000  Uiso   1.00
O202   O     0.25000   0.90488   0.12105   0.00000  Uiso   1.00
O203   O     0.25000   0.90488   0.21228   0.00000  Uiso   1.00
O204   O     0.25000   0.76178   0.12105   0.00000  Uiso   1.00
O205   O     0.18392   0.83333   0.21230   0.00000  Uiso   1.00
O206   O     0.31607   0.83333   0.12104   0.00000  Uiso   1.00
O207   O     0.31607   0.83333   0.21230   0.00000  Uiso   1.00
O208   O     0.18392   0.83333   0.12104   0.00000  Uiso   1.00
Zn209  Zn    0.25000   0.83333   0.22759   0.00000  Uiso   1.00
Zn210  Zn    0.25000   0.83333   0.10574   0.00000  Uiso   1.00
C211   C     0.75000   0.73933   0.16666   0.00000  Uiso   1.00
C212   C     0.61524   0.83333   0.16667   0.00000  Uiso   1.00
C213   C     0.95365   0.81972   0.21488   0.00000  Uiso   1.00
C214   C     0.54634   0.84695   0.11845   0.00000  Uiso   1.00
C215   C     0.95365   0.84695   0.11845   0.00000  Uiso   1.00
C216   C     0.54634   0.81972   0.21488   0.00000  Uiso   1.00
C217   C     0.97683   0.83333   0.16667   0.00000  Uiso   1.00
C218   C     0.52317   0.83333   0.16667   0.00000  Uiso   1.00
C219   C     0.97686   0.80596   0.26246   0.00000  Uiso   1.00
C220   C     0.52314   0.86070   0.07088   0.00000  Uiso   1.00
C221   C     0.97686   0.86070   0.07088   0.00000  Uiso   1.00
C222   C     0.75000   0.92734   0.16667   0.00000  Uiso   1.00
C223   C     0.52314   0.80596   0.26246   0.00000  Uiso   1.00
C224   C     0.75000   0.68840   0.16666   0.00000  Uiso   1.00
C225   C     0.75000   0.97827   0.16667   0.00000  Uiso   1.00
C226   C     0.66308   0.83333   0.16667   0.00000  Uiso   1.00
C227   C     0.83691   0.83333   0.16667   0.00000  Uiso   1.00
C228   C     0.90757   0.84666   0.11876   0.00000  Uiso   1.00
C229   C     0.59243   0.82001   0.21457   0.00000  Uiso   1.00
C230   C     0.90757   0.82001   0.21457   0.00000  Uiso   1.00
C231   C     0.59243   0.84666   0.11876   0.00000  Uiso   1.00
C232   C     0.88476   0.83333   0.16667   0.00000  Uiso   1.00
H233   H     0.95924   0.79519   0.29949   0.00000  Uiso   1.00
H234   H     0.54076   0.87148   0.03384   0.00000  Uiso   1.00
H235   H     0.95924   0.87148   0.03384   0.00000  Uiso   1.00
H236   H     0.54076   0.79519   0.29949   0.00000  Uiso   1.00
H237   H     0.88950   0.85723   0.08193   0.00000  Uiso   1.00
H238   H     0.61050   0.80944   0.25141   0.00000  Uiso   1.00
H239   H     0.88950   0.80944   0.25141   0.00000  Uiso   1.00
H240   H     0.61050   0.85723   0.08193   0.00000  Uiso   1.00
N241   N     0.75000   0.83333   0.02455   0.00000  Uiso   1.00
N242   N     0.75000   0.83333   0.30879   0.00000  Uiso   1.00
O243   O     0.75000   0.76178   0.21228   0.00000  Uiso   1.00
O244   O     0.75000   0.90488   0.12105   0.00000  Uiso   1.00
O245   O     0.75000   0.90488   0.21228   0.00000  Uiso   1.00
O246   O     0.75000   0.76178   0.12105   0.00000  Uiso   1.00
O247   O     0.68392   0.83333   0.21230   0.00000  Uiso   1.00
O248   O     0.81607   0.83333   0.12104   0.00000  Uiso   1.00
O249   O     0.81607   0.83333   0.21230   0.00000  Uiso   1.00
O250   O     0.68392   0.83333   0.12104   0.00000  Uiso   1.00
Zn251  Zn    0.75000   0.83333   0.22759   0.00000  Uiso   1.00
Zn252  Zn    0.75000   0.83333   0.10574   0.00000  Uiso   1.00
C253   C     0.25000   0.07266   0.50000   0.00000  Uiso   1.00
C254   C     0.11524   0.16667   0.50000   0.00000  Uiso   1.00
C255   C     0.45365   0.15305   0.54821   0.00000  Uiso   1.00
C256   C     0.04634   0.18028   0.45179   0.00000  Uiso   1.00
C257   C     0.45365   0.18028   0.45179   0.00000  Uiso   1.00
C258   C     0.04634   0.15305   0.54821   0.00000  Uiso   1.00
C259   C     0.47683   0.16667   0.50000   0.00000  Uiso   1.00
C260   C     0.02317   0.16667   0.50000   0.00000  Uiso   1.00
C261   C     0.47686   0.13930   0.59579   0.00000  Uiso   1.00
C262   C     0.02314   0.19404   0.40421   0.00000  Uiso   1.00
C263   C     0.47686   0.19404   0.40421   0.00000  Uiso   1.00
C264   C     0.25000   0.26067   0.50000   0.00000  Uiso   1.00
C265   C     0.02314   0.13930   0.59579   0.00000  Uiso   1.00
C266   C     0.25000   0.02173   0.50000   0.00000  Uiso   1.00
C267   C     0.25000   0.31160   0.50000   0.00000  Uiso   1.00
C268   C     0.16308   0.16667   0.50000   0.00000  Uiso   1.00
C269   C     0.33691   0.16667   0.50000   0.00000  Uiso   1.00
C270   C     0.40757   0.17999   0.45209   0.00000  Uiso   1.00
C271   C     0.09243   0.15334   0.54791   0.00000  Uiso   1.00
C272   C     0.40757   0.15334   0.54791   0.00000  Uiso   1.00
C273   C     0.09243   0.17999   0.45209   0.00000  Uiso   1.00
C274   C     0.38476   0.16667   0.50000   0.00000  Uiso   1.00
H275   H     0.45924   0.12852   0.63283   0.00000  Uiso   1.00
H276   H     0.04076   0.20481   0.36717   0.00000  Uiso   1.00
H277   H     0.45924   0.20481   0.36717   0.00000  Uiso   1.00
H278   H     0.04076   0.12852   0.63283   0.00000  Uiso   1.00
H279   H     0.38950   0.19056   0.41526   0.00000  Uiso   1.00
H280   H     0.11050   0.14277   0.58474   0.00000  Uiso   1.00
H281   H     0.38950   0.14277   0.58474   0.00000  Uiso   1.00
H282   H     0.11050   0.19056   0.41526   0.00000  Uiso   1.00
N283   N     0.25000   0.16667   0.35788   0.00000  Uiso   1.00
N284   N     0.25000   0.16667   0.64212   0.00000  Uiso   1.00
O285   O     0.25000   0.09512   0.54562   0.00000  Uiso   1.00
O286   O     0.25000   0.23822   0.45438   0.00000  Uiso   1.00
O287   O     0.25000   0.23822   0.54562   0.00000  Uiso   1.00
O288   O     0.25000   0.09512   0.45438   0.00000  Uiso   1.00
O289   O     0.18392   0.16667   0.54563   0.00000  Uiso   1.00
O290   O     0.31607   0.16667   0.45437   0.00000  Uiso   1.00
O291   O     0.31607   0.16667   0.54563   0.00000  Uiso   1.00
O292   O     0.18392   0.16667   0.45437   0.00000  Uiso   1.00
Zn293  Zn    0.25000   0.16667   0.56093   0.00000  Uiso   1.00
Zn294  Zn    0.25000   0.16667   0.43907   0.00000  Uiso   1.00
C295   C     0.75000   0.07266   0.50000   0.00000  Uiso   1.00
C296   C     0.61524   0.16667   0.50000   0.00000  Uiso   1.00
C297   C     0.95365   0.15305   0.54821   0.00000  Uiso   1.00
C298   C     0.54634   0.18028   0.45179   0.00000  Uiso   1.00
C299   C     0.95365   0.18028   0.45179   0.00000  Uiso   1.00
C300   C     0.54634   0.15305   0.54821   0.00000  Uiso   1.00
C301   C     0.97683   0.16667   0.50000   0.00000  Uiso   1.00
C302   C     0.52317   0.16667   0.50000   0.00000  Uiso   1.00
C303   C     0.97686   0.13930   0.59579   0.00000  Uiso   1.00
C304   C     0.52314   0.19404   0.40421   0.00000  Uiso   1.00
C305   C     0.97686   0.19404   0.40421   0.00000  Uiso   1.00
C306   C     0.75000   0.26067   0.50000   0.00000  Uiso   1.00
C307   C     0.52314   0.13930   0.59579   0.00000  Uiso   1.00
C308   C     0.75000   0.02173   0.50000   0.00000  Uiso   1.00
C309   C     0.75000   0.31160   0.50000   0.00000  Uiso   1.00
C310   C     0.66308   0.16667   0.50000   0.00000  Uiso   1.00
C311   C     0.83691   0.16667   0.50000   0.00000  Uiso   1.00
C312   C     0.90757   0.17999   0.45209   0.00000  Uiso   1.00
C313   C     0.59243   0.15334   0.54791   0.00000  Uiso   1.00
C314   C     0.90757   0.15334   0.54791   0.00000  Uiso   1.00
C315   C     0.59243   0.17999   0.45209   0.00000  Uiso   1.00
C316   C     0.88476   0.16667   0.50000   0.00000  Uiso   1.00
H317   H     0.95924   0.12852   0.63283   0.00000  Uiso   1.00
H318   H     0.54076   0.20481   0.36717   0.00000  Uiso   1.00
H319   H     0.95924   0.20481   0.36717   0.00000  Uiso   1.00
H320   H     0.54076   0.12852   0.63283   0.00000  Uiso   1.00
H321   H     0.88950   0.19056   0.41526   0.00000  Uiso   1.00
H322   H     0.61050   0.14277   0.58474   0.00000  Uiso   1.00
H323   H     0.88950   0.14277   0.58474   0.00000  Uiso   1.00
H324   H     0.61050   0.19056   0.41526   0.00000  Uiso   1.00
N325   N     0.75000   0.16667   0.35788   0.00000  Uiso   1.00
N326   N     0.75000   0.16667   0.64212   0.00000  Uiso   1.00
O327   O     0.75000   0.09512   0.54562   0.00000  Uiso   1.00
O328   O     0.75000   0.23822   0.45438   0.00000  Uiso   1.00
O329   O     0.75000   0.23822   0.54562   0.00000  Uiso   1.00
O330   O     0.75000   0.09512   0.45438   0.00000  Uiso   1.00
O331   O     0.68392   0.16667   0.54563   0.00000  Uiso   1.00
O332   O     0.81607   0.16667   0.45437   0.00000  Uiso   1.00
O333   O     0.81607   0.16667   0.54563   0.00000  Uiso   1.00
O334   O     0.68392   0.16667   0.45437   0.00000  Uiso   1.00
Zn335  Zn    0.75000   0.16667   0.56093   0.00000  Uiso   1.00
Zn336  Zn    0.75000   0.16667   0.43907   0.00000  Uiso   1.00
C337   C     0.25000   0.40600   0.50000   0.00000  Uiso   1.00
C338   C     0.11524   0.50000   0.50000   0.00000  Uiso   1.00
C339   C     0.45365   0.48639   0.54821   0.00000  Uiso   1.00
C340   C     0.04634   0.51361   0.45179   0.00000  Uiso   1.00
C341   C     0.45365   0.51362   0.45179   0.00000  Uiso   1.00
C342   C     0.04634   0.48638   0.54821   0.00000  Uiso   1.00
C343   C     0.47683   0.50000   0.50000   0.00000  Uiso   1.00
C344   C     0.02317   0.50000   0.50000   0.00000  Uiso   1.00
C345   C     0.47686   0.47263   0.59579   0.00000  Uiso   1.00
C346   C     0.02314   0.52737   0.40421   0.00000  Uiso   1.00
C347   C     0.47686   0.52737   0.40421   0.00000  Uiso   1.00
C348   C     0.25000   0.59400   0.50000   0.00000  Uiso   1.00
C349   C     0.02314   0.47263   0.59579   0.00000  Uiso   1.00
C350   C     0.25000   0.35506   0.50000   0.00000  Uiso   1.00
C351   C     0.25000   0.64494   0.50000   0.00000  Uiso   1.00
C352   C     0.16308   0.50000   0.50000   0.00000  Uiso   1.00
C353   C     0.33691   0.50000   0.50000   0.00000  Uiso   1.00
C354   C     0.40757   0.51333   0.45209   0.00000  Uiso   1.00
C355   C     0.09243   0.48667   0.54791   0.00000  Uiso   1.00
C356   C     0.40757   0.48668   0.54791   0.00000  Uiso   1.00
C357   C     0.09243   0.51332   0.45209   0.00000  Uiso   1.00
C358   C     0.38476   0.50000   0.50000   0.00000  Uiso   1.00
H359   H     0.45924   0.46186   0.63283   0.00000  Uiso   1.00
H360   H     0.04076   0.53814   0.36717   0.00000  Uiso   1.00
H361   H     0.45924   0.53814   0.36717   0.00000  Uiso   1.00
H362   H     0.04076   0.46186   0.63283   0.00000  Uiso   1.00
H363   H     0.38950   0.52390   0.41526   0.00000  Uiso   1.00
H364   H     0.11050   0.47610   0.58474   0.00000  Uiso   1.00
H365   H     0.38950   0.47611   0.58474   0.00000  Uiso   1.00
H366   H     0.11050   0.52389   0.41526   0.00000  Uiso   1.00
N367   N     0.25000   0.50000   0.35788   0.00000  Uiso   1.00
N368   N     0.25000   0.50000   0.64212   0.00000  Uiso   1.00
O369   O     0.25000   0.42845   0.54562   0.00000  Uiso   1.00
O370   O     0.25000   0.57155   0.45438   0.00000  Uiso   1.00
O371   O     0.25000   0.57155   0.54562   0.00000  Uiso   1.00
O372   O     0.25000   0.42845   0.45438   0.00000  Uiso   1.00
O373   O     0.18392   0.50000   0.54563   0.00000  Uiso   1.00
O374   O     0.31607   0.50000   0.45437   0.00000  Uiso   1.00
O375   O     0.31607   0.50000   0.54563   0.00000  Uiso   1.00
O376   O     0.18392   0.50000   0.45437   0.00000  Uiso   1.00
Zn377  Zn    0.25000   0.50000   0.56093   0.00000  Uiso   1.00
Zn378  Zn    0.25000   0.50000   0.43907   0.00000  Uiso   1.00
C379   C     0.75000   0.40600   0.50000   0.00000  Uiso   1.00
C380   C     0.61524   0.50000   0.50000   0.00000  Uiso   1.00
C381   C     0.95365   0.48639   0.54821   0.00000  Uiso   1.00
C382   C     0.54634   0.51361   0.45179   0.00000  Uiso   1.00
C383   C     0.95365   0.51362   0.45179   0.00000  Uiso   1.00
C384   C     0.54634   0.48638   0.54821   0.00000  Uiso   1.00
C385   C     0.97683   0.50000   0.50000   0.00000  Uiso   1.00
C386   C     0.52317   0.50000   0.50000   0.00000  Uiso   1.00
C387   C     0.97686   0.47263   0.59579   0.00000  Uiso   1.00
C388   C     0.52314   0.52737   0.40421   0.00000  Uiso   1.00
C389   C     0.97686   0.52737   0.40421   0.00000  Uiso   1.00
C390   C     0.75000   0.59400   0.50000   0.00000  Uiso   1.00
C391   C     0.52314   0.47263   0.59579   0.00000  Uiso   1.00
C392   C     0.75000   0.35506   0.50000   0.00000  Uiso   1.00
C393   C     0.75000   0.64494   0.50000   0.00000  Uiso   1.00
C394   C     0.66308   0.50000   0.50000   0.00000  Uiso   1.00
C395   C     0.83691   0.50000   0.50000   0.00000  Uiso   1.00
C396   C     0.90757   0.51333   0.45209   0.00000  Uiso   1.00
C397   C     0.59243   0.48667   0.54791   0.00000  Uiso   1.00
C398   C     0.90757   0.48668   0.54791   0.00000  Uiso   1.00
C399   C     0.59243   0.51332   0.45209   0.00000  Uiso   1.00
C400   C     0.88476   0.50000   0.50000   0.00000  Uiso   1.00
H401   H     0.95924   0.46186   0.63283   0.00000  Uiso   1.00
H402   H     0.54076   0.53814   0.36717   0.00000  Uiso   1.00
H403   H     0.95924   0.53814   0.36717   0.00000  Uiso   1.00
H404   H     0.54076   0.46186   0.63283   0.00000  Uiso   1.00
H405   H     0.88950   0.52390   0.41526   0.00000  Uiso   1.00
H406   H     0.61050   0.47610   0.58474   0.00000  Uiso   1.00
H407   H     0.88950   0.47611   0.58474   0.00000  Uiso   1.00
H408   H     0.61050   0.52389   0.41526   0.00000  Uiso   1.00
N409   N     0.75000   0.50000   0.35788   0.00000  Uiso   1.00
N410   N     0.75000   0.50000   0.64212   0.00000  Uiso   1.00
O411   O     0.75000   0.42845   0.54562   0.00000  Uiso   1.00
O412   O     0.75000   0.57155   0.45438   0.00000  Uiso   1.00
O413   O     0.75000   0.57155   0.54562   0.00000  Uiso   1.00
O414   O     0.75000   0.42845   0.45438   0.00000  Uiso   1.00
O415   O     0.68392   0.50000   0.54563   0.00000  Uiso   1.00
O416   O     0.81607   0.50000   0.45437   0.00000  Uiso   1.00
O417   O     0.81607   0.50000   0.54563   0.00000  Uiso   1.00
O418   O     0.68392   0.50000   0.45437   0.00000  Uiso   1.00
Zn419  Zn    0.75000   0.50000   0.56093   0.00000  Uiso   1.00
Zn420  Zn    0.75000   0.50000   0.43907   0.00000  Uiso   1.00
C421   C     0.25000   0.73933   0.50000   0.00000  Uiso   1.00
C422   C     0.11524   0.83333   0.50000   0.00000  Uiso   1.00
C423   C     0.45365   0.81972   0.54821   0.00000  Uiso   1.00
C424   C     0.04634   0.84695   0.45179   0.00000  Uiso   1.00
C425   C     0.45365   0.84695   0.45179   0.00000  Uiso   1.00
C426   C     0.04634   0.81972   0.54821   0.00000  Uiso   1.00
C427   C     0.47683   0.83333   0.50000   0.00000  Uiso   1.00
C428   C     0.02317   0.83333   0.50000   0.00000  Uiso   1.00
C429   C     0.47686   0.80596   0.59579   0.00000  Uiso   1.00
C430   C     0.02314   0.86070   0.40421   0.00000  Uiso   1.00
C431   C     0.47686   0.86070   0.40421   0.00000  Uiso   1.00
C432   C     0.25000   0.92734   0.50000   0.00000  Uiso   1.00
C433   C     0.02314   0.80596   0.59579   0.00000  Uiso   1.00
C434   C     0.25000   0.68840   0.50000   0.00000  Uiso   1.00
C435   C     0.25000   0.97827   0.50000   0.00000  Uiso   1.00
C436   C     0.16308   0.83333   0.50000   0.00000  Uiso   1.00
C437   C     0.33691   0.83333   0.50000   0.00000  Uiso   1.00
C438   C     0.40757   0.84666   0.45209   0.00000  Uiso   1.00
C439   C     0.09243   0.82001   0.54791   0.00000  Uiso   1.00
C440   C     0.40757   0.82001   0.54791   0.00000  Uiso   1.00
C441   C     0.09243   0.84666   0.45209   0.00000  Uiso   1.00
C442   C     0.38476   0.83333   0.50000   0.00000  Uiso   1.00
H443   H     0.45924   0.79519   0.63283   0.00000  Uiso   1.00
H444   H     0.04076   0.87148   0.36717   0.00000  Uiso   1.00
H445   H     0.45924   0.87148   0.36717   0.00000  Uiso   1.00
H446   H     0.04076   0.79519   0.63283   0.00000  Uiso   1.00
H447   H     0.38950   0.85723   0.41526   0.00000  Uiso   1.00
H448   H     0.11050   0.80944   0.58474   0.00000  Uiso   1.00
H449   H     0.38950   0.80944   0.58474   0.00000  Uiso   1.00
H450   H     0.11050   0.85723   0.41526   0.00000  Uiso   1.00
N451   N     0.25000   0.83333   0.35788   0.00000  Uiso   1.00
N452   N     0.25000   0.83333   0.64212   0.00000  Uiso   1.00
O453   O     0.25000   0.76178   0.54562   0.00000  Uiso   1.00
O454   O     0.25000   0.90488   0.45438   0.00000  Uiso   1.00
O455   O     0.25000   0.90488   0.54562   0.00000  Uiso   1.00
O456   O     0.25000   0.76178   0.45438   0.00000  Uiso   1.00
O457   O     0.18392   0.83333   0.54563   0.00000  Uiso   1.00
O458   O     0.31607   0.83333   0.45437   0.00000  Uiso   1.00
O459   O     0.31607   0.83333   0.54563   0.00000  Uiso   1.00
O460   O     0.18392   0.83333   0.45437   0.00000  Uiso   1.00
Zn461  Zn    0.25000   0.83333   0.56093   0.00000  Uiso   1.00
Zn462  Zn    0.25000   0.83333   0.43907   0.00000  Uiso   1.00
C463   C     0.75000   0.73933   0.50000   0.00000  Uiso   1.00
C464   C     0.61524   0.83333   0.50000   0.00000  Uiso   1.00
C465   C     0.95365   0.81972   0.54821   0.00000  Uiso   1.00
C466   C     0.54634   0.84695   0.45179   0.00000  Uiso   1.00
C467   C     0.95365   0.84695   0.45179   0.00000  Uiso   1.00
C468   C     0.54634   0.81972   0.54821   0.00000  Uiso   1.00
C469   C     0.97683   0.83333   0.50000   0.00000  Uiso   1.00
C470   C     0.52317   0.83333   0.50000   0.00000  Uiso   1.00
C471   C     0.97686   0.80596   0.59579   0.00000  Uiso   1.00
C472   C     0.52314   0.86070   0.40421   0.00000  Uiso   1.00
C473   C     0.97686   0.86070   0.40421   0.00000  Uiso   1.00
C474   C     0.75000   0.92734   0.50000   0.00000  Uiso   1.00
C475   C     0.52314   0.80596   0.59579   0.00000  Uiso   1.00
C476   C     0.75000   0.68840   0.50000   0.00000  Uiso   1.00
C477   C     0.75000   0.97827   0.50000   0.00000  Uiso   1.00
C478   C     0.66308   0.83333   0.50000   0.00000  Uiso   1.00
C479   C     0.83691   0.83333   0.50000   0.00000  Uiso   1.00
C480   C     0.90757   0.84666   0.45209   0.00000  Uiso   1.00
C481   C     0.59243   0.82001   0.54791   0.00000  Uiso   1.00
C482   C     0.90757   0.82001   0.54791   0.00000  Uiso   1.00
C483   C     0.59243   0.84666   0.45209   0.00000  Uiso   1.00
C484   C     0.88476   0.83333   0.50000   0.00000  Uiso   1.00
H485   H     0.95924   0.79519   0.63283   0.00000  Uiso   1.00
H486   H     0.54076   0.87148   0.36717   0.00000  Uiso   1.00
H487   H     0.95924   0.87148   0.36717   0.00000  Uiso   1.00
H488   H     0.54076   0.79519   0.63283   0.00000  Uiso   1.00
H489   H     0.88950   0.85723   0.41526   0.00000  Uiso   1.00
H490   H     0.61050   0.80944   0.58474   0.00000  Uiso   1.00
H491   H     0.88950   0.80944   0.58474   0.00000  Uiso   1.00
H492   H     0.61050   0.85723   0.41526   0.00000  Uiso   1.00
N493   N     0.75000   0.83333   0.35788   0.00000  Uiso   1.00
N494   N     0.75000   0.83333   0.64212   0.00000  Uiso   1.00
O495   O     0.75000   0.76178   0.54562   0.00000  Uiso   1.00
O496   O     0.75000   0.90488   0.45438   0.00000  Uiso   1.00
O497   O     0.75000   0.90488   0.54562   0.00000  Uiso   1.00
O498   O     0.75000   0.76178   0.45438   0.00000  Uiso   1.00
O499   O     0.68392   0.83333   0.54563   0.00000  Uiso   1.00
O500   O     0.81607   0.83333   0.45437   0.00000  Uiso   1.00
O501   O     0.81607   0.83333   0.54563   0.00000  Uiso   1.00
O502   O     0.68392   0.83333   0.45437   0.00000  Uiso   1.00
Zn503  Zn    0.75000   0.83333   0.56093   0.00000  Uiso   1.00
Zn504  Zn    0.75000   0.83333   0.43907   0.00000  Uiso   1.00
C505   C     0.25000   0.07266   0.83333   0.00000  Uiso   1.00
C506   C     0.11524   0.16667   0.83333   0.00000  Uiso   1.00
C507   C     0.45365   0.15305   0.88155   0.00000  Uiso   1.00
C508   C     0.04634   0.18028   0.78512   0.00000  Uiso   1.00
C509   C     0.45365   0.18028   0.78512   0.00000  Uiso   1.00
C510   C     0.04634   0.15305   0.88155   0.00000  Uiso   1.00
C511   C     0.47683   0.16667   0.83333   0.00000  Uiso   1.00
C512   C     0.02317   0.16667   0.83333   0.00000  Uiso   1.00
C513   C     0.47686   0.13930   0.92912   0.00000  Uiso   1.00
C514   C     0.02314   0.19404   0.73754   0.00000  Uiso   1.00
C515   C     0.47686   0.19404   0.73754   0.00000  Uiso   1.00
C516   C     0.25000   0.26067   0.83334   0.00000  Uiso   1.00
C517   C     0.02314   0.13930   0.92912   0.00000  Uiso   1.00
C518   C     0.25000   0.02173   0.83333   0.00000  Uiso   1.00
C519   C     0.25000   0.31160   0.83334   0.00000  Uiso   1.00
C520   C     0.16308   0.16667   0.83333   0.00000  Uiso   1.00
C521   C     0.33691   0.16667   0.83333   0.00000  Uiso   1.00
C522   C     0.40757   0.17999   0.78543   0.00000  Uiso   1.00
C523   C     0.09243   0.15334   0.88124   0.00000  Uiso   1.00
C524   C     0.40757   0.15334   0.88124   0.00000  Uiso   1.00
C525   C     0.09243   0.17999   0.78543   0.00000  Uiso   1.00
C526   C     0.38476   0.16667   0.83333   0.00000  Uiso   1.00
H527   H     0.45924   0.12852   0.96616   0.00000  Uiso   1.00
H528   H     0.04076   0.20481   0.70051   0.00000  Uiso   1.00
H529   H     0.45924   0.20481   0.70051   0.00000  Uiso   1.00
H530   H     0.04076   0.12852   0.96616   0.00000  Uiso   1.00
H531   H     0.38950   0.19056   0.74859   0.00000  Uiso   1.00
H532   H     0.11050   0.14277   0.91807   0.00000  Uiso   1.00
H533   H     0.38950   0.14277   0.91807   0.00000  Uiso   1.00
H534   H     0.11050   0.19056   0.74859   0.00000  Uiso   1.00
N535   N     0.25000   0.16667   0.69121   0.00000  Uiso   1.00
N536   N     0.25000   0.16667   0.97545   0.00000  Uiso   1.00
O537   O     0.25000   0.09512   0.87895   0.00000  Uiso   1.00
O538   O     0.25000   0.23822   0.78772   0.00000  Uiso   1.00
O539   O     0.25000   0.23822   0.87895   0.00000  Uiso   1.00
O540   O     0.25000   0.09512   0.78772   0.00000  Uiso   1.00
O541   O     0.18392   0.16667   0.87896   0.00000  Uiso   1.00
O542   O     0.31607   0.16667   0.78770   0.00000  Uiso   1.00
O543   O     0.31607   0.16667   0.87896   0.00000  Uiso   1.00
O544   O     0.18392   0.16667   0.78770   0.00000  Uiso   1.00
Zn545  Zn    0.25000   0.16667   0.89426   0.00000  Uiso   1.00
Zn546  Zn    0.25000   0.16667   0.77241   0.00000  Uiso   1.00
C547   C     0.75000   0.07266   0.83333   0.00000  Uiso   1.00
C548   C     0.61524   0.16667   0.83333   0.00000  Uiso   1.00
C549   C     0.95365   0.15305   0.88155   0.00000  Uiso   1.00
C550   C     0.54634   0.18028   0.78512   0.00000  Uiso   1.00
C551   C     0.95365   0.18028   0.78512   0.00000  Uiso   1.00
C552   C     0.54634   0.15305   0.88155   0.00000  Uiso   1.00
C553   C     0.97683   0.16667   0.83333   0.00000  Uiso   1.00
C554   C     0.52317   0.16667   0.83333   0.00000  Uiso   1.00
C555   C     0.97686   0.13930   0.92912   0.00000  Uiso   1.00
C556   C     0.52314   0.19404   0.73754   0.00000  Uiso   1.00
C557   C     0.97686   0.19404   0.73754   0.00000  Uiso   1.00
C558   C     0.75000   0.26067   0.83334   0.00000  Uiso   1.00
C559   C     0.52314   0.13930   0.92912   0.00000  Uiso   1.00
C560   C     0.75000   0.02173   0.83333   0.00000  Uiso   1.00
C561   C     0.75000   0.31160   0.83334   0.00000  Uiso   1.00
C562   C     0.66308   0.16667   0.83333   0.00000  Uiso   1.00
C563   C     0.83691   0.16667   0.83333   0.00000  Uiso   1.00
C564   C     0.90757   0.17999   0.78543   0.00000  Uiso   1.00
C565   C     0.59243   0.15334   0.88124   0.00000  Uiso   1.00
C566   C     0.90757   0.15334   0.88124   0.00000  Uiso   1.00
C567   C     0.59243   0.17999   0.78543   0.00000  Uiso   1.00
C568   C     0.88476   0.16667   0.83333   0.00000  Uiso   1.00
H569   H     0.95924   0.12852   0.96616   0.00000  Uiso   1.00
H570   H     0.54076   0.20481   0.70051   0.00000  Uiso   1.00
H571   H     0.95924   0.20481   0.70051   0.00000  Uiso   1.00
H572   H     0.54076   0.12852   0.96616   0.00000  Uiso   1.00
H573   H     0.88950   0.19056   0.74859   0.00000  Uiso   1.00
H574   H     0.61050   0.14277   0.91807   0.00000  Uiso   1.00
H575   H     0.88950   0.14277   0.91807   0.00000  Uiso   1.00
H576   H     0.61050   0.19056   0.74859   0.00000  Uiso   1.00
N577   N     0.75000   0.16667   0.69121   0.00000  Uiso   1.00
N578   N     0.75000   0.16667   0.97545   0.00000  Uiso   1.00
O579   O     0.75000   0.09512   0.87895   0.00000  Uiso   1.00
O580   O     0.75000   0.23822   0.78772   0.00000  Uiso   1.00
O581   O     0.75000   0.23822   0.87895   0.00000  Uiso   1.00
O582   O     0.75000   0.09512   0.78772   0.00000  Uiso   1.00
O583   O     0.68392   0.16667   0.87896   0.00000  Uiso   1.00
O584   O     0.81607   0.16667   0.78770   0.00000  Uiso   1.00
O585   O     0.81607   0.16667   0.87896   0.00000  Uiso   1.00
O586   O     0.68392   0.16667   0.78770   0.00000  Uiso   1.00
Zn587  Zn    0.75000   0.16667   0.89426   0.00000  Uiso   1.00
Zn588  Zn    0.75000   0.16667   0.77241   0.00000  Uiso   1.00
C589   C     0.25000   0.40600   0.83333   0.00000  Uiso   1.00
C590   C     0.11524   0.50000   0.83333   0.00000  Uiso   1.00
C591   C     0.45365   0.48639   0.88155   0.00000  Uiso   1.00
C592   C     0.04634   0.51361   0.78512   0.00000  Uiso   1.00
C593   C     0.45365   0.51362   0.78512   0.00000  Uiso   1.00
C594   C     0.04634   0.48638   0.88155   0.00000  Uiso   1.00
C595   C     0.47683   0.50000   0.83333   0.00000  Uiso   1.00
C596   C     0.02317   0.50000   0.83333   0.00000  Uiso   1.00
C597   C     0.47686   0.47263   0.92912   0.00000  Uiso   1.00
C598   C     0.02314   0.52737   0.73754   0.00000  Uiso   1.00
C599   C     0.47686   0.52737   0.73754   0.00000  Uiso   1.00
C600   C     0.25000   0.59400   0.83334   0.00000  Uiso   1.00
C601   C     0.02314   0.47263   0.92912   0.00000  Uiso   1.00
C602   C     0.25000   0.35506   0.83333   0.00000  Uiso   1.00
C603   C     0.25000   0.64494   0.83334   0.00000  Uiso   1.00
C604   C     0.16308   0.50000   0.83333   0.00000  Uiso   1.00
C605   C     0.33691   0.50000   0.83333   0.00000  Uiso   1.00
C606   C     0.40757   0.51333   0.78543   0.00000  Uiso   1.00
C607   C     0.09243   0.48667   0.88124   0.00000  Uiso   1.00
C608   C     0.40757   0.48668   0.88124   0.00000  Uiso   1.00
C609   C     0.09243   0.51332   0.78543   0.00000  Uiso   1.00
C610   C     0.38476   0.50000   0.83333   0.00000  Uiso   1.00
H611   H     0.45924   0.46186   0.96616   0.00000  Uiso   1.00
H612   H     0.04076   0.53814   0.70051   0.00000  Uiso   1.00
H613   H     0.45924   0.53814   0.70051   0.00000  Uiso   1.00
H614   H     0.04076   0.46186   0.96616   0.00000  Uiso   1.00
H615   H     0.38950   0.52390   0.74859   0.00000  Uiso   1.00
H616   H     0.11050   0.47610   0.91807   0.00000  Uiso   1.00
H617   H     0.38950   0.47611   0.91807   0.00000  Uiso   1.00
H618   H     0.11050   0.52389   0.74859   0.00000  Uiso   1.00
N619   N     0.25000   0.50000   0.69121   0.00000  Uiso   1.00
N620   N     0.25000   0.50000   0.97545   0.00000  Uiso   1.00
O621   O     0.25000   0.42845   0.87895   0.00000  Uiso   1.00
O622   O     0.25000   0.57155   0.78772   0.00000  Uiso   1.00
O623   O     0.25000   0.57155   0.87895   0.00000  Uiso   1.00
O624   O     0.25000   0.42845   0.78772   0.00000  Uiso   1.00
O625   O     0.18392   0.50000   0.87896   0.00000  Uiso   1.00
O626   O     0.31607   0.50000   0.78770   0.00000  Uiso   1.00
O627   O     0.31607   0.50000   0.87896   0.00000  Uiso   1.00
O628   O     0.18392   0.50000   0.78770   0.00000  Uiso   1.00
Zn629  Zn    0.25000   0.50000   0.89426   0.00000  Uiso   1.00
Zn630  Zn    0.25000   0.50000   0.77241   0.00000  Uiso   1.00
C631   C     0.75000   0.40600   0.83333   0.00000  Uiso   1.00
C632   C     0.61524   0.50000   0.83333   0.00000  Uiso   1.00
C633   C     0.95365   0.48639   0.88155   0.00000  Uiso   1.00
C634   C     0.54634   0.51361   0.78512   0.00000  Uiso   1.00
C635   C     0.95365   0.51362   0.78512   0.00000  Uiso   1.00
C636   C     0.54634   0.48638   0.88155   0.00000  Uiso   1.00
C637   C     0.97683   0.50000   0.83333   0.00000  Uiso   1.00
C638   C     0.52317   0.50000   0.83333   0.00000  Uiso   1.00
C639   C     0.97686   0.47263   0.92912   0.00000  Uiso   1.00
C640   C     0.52314   0.52737   0.73754   0.00000  Uiso   1.00
C641   C     0.97686   0.52737   0.73754   0.00000  Uiso   1.00
C642   C     0.75000   0.59400   0.83334   0.00000  Uiso   1.00
C643   C     0.52314   0.47263   0.92912   0.00000  Uiso   1.00
C644   C     0.75000   0.35506   0.83333   0.00000  Uiso   1.00
C645   C     0.75000   0.64494   0.83334   0.00000  Uiso   1.00
C646   C     0.66308   0.50000   0.83333   0.00000  Uiso   1.00
C647   C     0.83691   0.50000   0.83333   0.00000  Uiso   1.00
C648   C     0.90757   0.51333   0.78543   0.00000  Uiso   1.00
C649   C     0.59243   0.48667   0.88124   0.00000  Uiso   1.00
C650   C     0.90757   0.48668   0.88124   0.00000  Uiso   1.00
C651   C     0.59243   0.51332   0.78543   0.00000  Uiso   1.00
C652   C     0.88476   0.50000   0.83333   0.00000  Uiso   1.00
H653   H     0.95924   0.46186   0.96616   0.00000  Uiso   1.00
H654   H     0.54076   0.53814   0.70051   0.00000  Uiso   1.00
H655   H     0.95924   0.53814   0.70051   0.00000  Uiso   1.00
H656   H     0.54076   0.46186   0.96616   0.00000  Uiso   1.00
H657   H     0.88950   0.52390   0.74859   0.00000  Uiso   1.00
H658   H     0.61050   0.47610   0.91807   0.00000  Uiso   1.00
H659   H     0.88950   0.47611   0.91807   0.00000  Uiso   1.00
H660   H     0.61050   0.52389   0.74859   0.00000  Uiso   1.00
N661   N     0.75000   0.50000   0.69121   0.00000  Uiso   1.00
N662   N     0.75000   0.50000   0.97545   0.00000  Uiso   1.00
O663   O     0.75000   0.42845   0.87895   0.00000  Uiso   1.00
O664   O     0.75000   0.57155   0.78772   0.00000  Uiso   1.00
O665   O     0.75000   0.57155   0.87895   0.00000  Uiso   1.00
O666   O     0.75000   0.42845   0.78772   0.00000  Uiso   1.00
O667   O     0.68392   0.50000   0.87896   0.00000  Uiso   1.00
O668   O     0.81607   0.50000   0.78770   0.00000  Uiso   1.00
O669   O     0.81607   0.50000   0.87896   0.00000  Uiso   1.00
O670   O     0.68392   0.50000   0.78770   0.00000  Uiso   1.00
Zn671  Zn    0.75000   0.50000   0.89426   0.00000  Uiso   1.00
Zn672  Zn    0.75000   0.50000   0.77241   0.00000  Uiso   1.00
C673   C     0.25000   0.73933   0.83333   0.00000  Uiso   1.00
C674   C     0.11524   0.83333   0.83333   0.00000  Uiso   1.00
C675   C     0.45365   0.81972   0.88155   0.00000  Uiso   1.00
C676   C     0.04634   0.84695   0.78512   0.00000  Uiso   1.00
C677   C     0.45365   0.84695   0.78512   0.00000  Uiso   1.00
C678   C     0.04634   0.81972   0.88155   0.00000  Uiso   1.00
C679   C     0.47683   0.83333   0.83333   0.00000  Uiso   1.00
C680   C     0.02317   0.83333   0.83333   0.00000  Uiso   1.00
C681   C     0.47686   0.80596   0.92912   0.00000  Uiso   1.00
C682   C     0.02314   0.86070   0.73754   0.00000  Uiso   1.00
C683   C     0.47686   0.86070   0.73754   0.00000  Uiso   1.00
C684   C     0.25000   0.92734   0.83334   0.00000  Uiso   1.00
C685   C     0.02314   0.80596   0.92912   0.00000  Uiso   1.00
C686   C     0.25000   0.68840   0.83333   0.00000  Uiso   1.00
C687   C     0.25000   0.97827   0.83334   0.00000  Uiso   1.00
C688   C     0.16308   0.83333   0.83333   0.00000  Uiso   1.00
C689   C     0.33691   0.83333   0.83333   0.00000  Uiso   1.00
C690   C     0.40757   0.84666   0.78543   0.00000  Uiso   1.00
C691   C     0.09243   0.82001   0.88124   0.00000  Uiso   1.00
C692   C     0.40757   0.82001   0.88124   0.00000  Uiso   1.00
C693   C     0.09243   0.84666   0.78543   0.00000  Uiso   1.00
C694   C     0.38476   0.83333   0.83333   0.00000  Uiso   1.00
H695   H     0.45924   0.79519   0.96616   0.00000  Uiso   1.00
H696   H     0.04076   0.87148   0.70051   0.00000  Uiso   1.00
H697   H     0.45924   0.87148   0.70051   0.00000  Uiso   1.00
H698   H     0.04076   0.79519   0.96616   0.00000  Uiso   1.00
H699   H     0.38950   0.85723   0.74859   0.00000  Uiso   1.00
H700   H     0.11050   0.80944   0.91807   0.00000  Uiso   1.00
H701   H     0.38950   0.80944   0.91807   0.00000  Uiso   1.00
H702   H     0.11050   0.85723   0.74859   0.00000  Uiso   1.00
N703   N     0.25000   0.83333   0.69121   0.00000  Uiso   1.00
N704   N     0.25000   0.83333   0.97545   0.00000  Uiso   1.00
O705   O     0.25000   0.76178   0.87895   0.00000  Uiso   1.00
O706   O     0.25000   0.90488   0.78772   0.00000  Uiso   1.00
O707   O     0.25000   0.90488   0.87895   0.00000  Uiso   1.00
O708   O     0.25000   0.76178   0.78772   0.00000  Uiso   1.00
O709   O     0.18392   0.83333   0.87896   0.00000  Uiso   1.00
O710   O     0.31607   0.83333   0.78770   0.00000  Uiso   1.00
O711   O     0.31607   0.83333   0.87896   0.00000  Uiso   1.00
O712   O     0.18392   0.83333   0.78770   0.00000  Uiso   1.00
Zn713  Zn    0.25000   0.83333   0.89426   0.00000  Uiso   1.00
Zn714  Zn    0.25000   0.83333   0.77241   0.00000  Uiso   1.00
C715   C     0.75000   0.73933   0.83333   0.00000  Uiso   1.00
C716   C     0.61524   0.83333   0.83333   0.00000  Uiso   1.00
C717   C     0.95365   0.81972   0.88155   0.00000  Uiso   1.00
C718   C     0.54634   0.84695   0.78512   0.00000  Uiso   1.00
C719   C     0.95365   0.84695   0.78512   0.00000  Uiso   1.00
C720   C     0.54634   0.81972   0.88155   0.00000  Uiso   1.00
C721   C     0.97683   0.83333   0.83333   0.00000  Uiso   1.00
C722   C     0.52317   0.83333   0.83333   0.00000  Uiso   1.00
C723   C     0.97686   0.80596   0.92912   0.00000  Uiso   1.00
C724   C     0.52314   0.86070   0.73754   0.00000  Uiso   1.00
C725   C     0.97686   0.86070   0.73754   0.00000  Uiso   1.00
C726   C     0.75000   0.92734   0.83334   0.00000  Uiso   1.00
C727   C     0.52314   0.80596   0.92912   0.00000  Uiso   1.00
C728   C     0.75000   0.68840   0.83333   0.00000  Uiso   1.00
C729   C     0.75000   0.97827   0.83334   0.00000  Uiso   1.00
C730   C     0.66308   0.83333   0.83333   0.00000  Uiso   1.00
C731   C     0.83691   0.83333   0.83333   0.00000  Uiso   1.00
C732   C     0.90757   0.84666   0.78543   0.00000  Uiso   1.00
C733   C     0.59243   0.82001   0.88124   0.00000  Uiso   1.00
C734   C     0.90757   0.82001   0.88124   0.00000  Uiso   1.00
C735   C     0.59243   0.84666   0.78543   0.00000  Uiso   1.00
C736   C     0.88476   0.83333   0.83333   0.00000  Uiso   1.00
H737   H     0.95924   0.79519   0.96616   0.00000  Uiso   1.00
H738   H     0.54076   0.87148   0.70051   0.00000  Uiso   1.00
H739   H     0.95924   0.87148   0.70051   0.00000  Uiso   1.00
H740   H     0.54076   0.79519   0.96616   0.00000  Uiso   1.00
H741   H     0.88950   0.85723   0.74859   0.00000  Uiso   1.00
H742   H     0.61050   0.80944   0.91807   0.00000  Uiso   1.00
H743   H     0.88950   0.80944   0.91807   0.00000  Uiso   1.00
H744   H     0.61050   0.85723   0.74859   0.00000  Uiso   1.00
N745   N     0.75000   0.83333   0.69121   0.00000  Uiso   1.00
N746   N     0.75000   0.83333   0.97545   0.00000  Uiso   1.00
O747   O     0.75000   0.76178   0.87895   0.00000  Uiso   1.00
O748   O     0.75000   0.90488   0.78772   0.00000  Uiso   1.00
O749   O     0.75000   0.90488   0.87895   0.00000  Uiso   1.00
O750   O     0.75000   0.76178   0.78772   0.00000  Uiso   1.00
O751   O     0.68392   0.83333   0.87896   0.00000  Uiso   1.00
O752   O     0.81607   0.83333   0.78770   0.00000  Uiso   1.00
O753   O     0.81607   0.83333   0.87896   0.00000  Uiso   1.00
O754   O     0.68392   0.83333   0.78770   0.00000  Uiso   1.00
Zn755  Zn    0.75000   0.83333   0.89426   0.00000  Uiso   1.00
Zn756  Zn    0.75000   0.83333   0.77241   0.00000  Uiso   1.00
loop_
_geom_bond_atom_site_label_1
_geom_bond_atom_site_label_2
_geom_bond_distance
_geom_bond_site_symmetry_2
_ccdc_geom_bond_type
C1     C14     1.365   .     S
C1     O33     1.262   .     A
C1     O36     1.262   .     A
C2     C16     1.436   .     S
C2     C21     1.398   .     A
C2     C19     1.398   .     A
C3     C9      1.400   .     A
C3     C7      1.411   .     A
C3     C20     1.384   .     A
C4     C21     1.384   .     A
C4     C8      1.411   .     A
C4     C10     1.400   .     A
C5     C11     1.400   .     A
C5     C7      1.411   .     A
C5     C18     1.384   .     A
C6     C13     1.400   .     A
C6     C19     1.384   .     A
C6     C8      1.411   .     A
C7     C50     1.391   .     S
C8     C49     1.391   1_455 S
C9     H23     1.084   .     S
C9     C55     1.389   .     S
C10    H24     1.084   .     S
C10    C53     1.389   1_455 S
C11    H25     1.084   .     S
C11    C52     1.389   .     S
C12    C15     1.365   .     S
C12    O34     1.262   .     A
C12    O35     1.262   .     A
C13    H26     1.084   .     S
C13    C51     1.389   1_455 S
C14    C183    1.165   1_545 S
C15    C98     1.165   .     S
C16    O37     1.274   .     A
C16    O40     1.274   .     A
C17    O38     1.274   .     A
C17    O39     1.274   .     A
C17    C22     1.436   .     S
C18    C22     1.398   .     A
C18    H27     1.085   .     S
C19    H28     1.085   .     S
C20    H29     1.085   .     S
C20    C22     1.398   .     A
C21    H30     1.085   .     S
N31    Zn42    1.974   .     S
N31    N536    1.194   1_554 S
N32    Zn41    1.974   .     S
N32    N283    1.194   .     S
O33    Zn41    1.954   .     S
O34    Zn42    1.954   .     S
O35    Zn41    1.954   .     S
O36    Zn42    1.954   .     S
O37    Zn41    2.018   .     S
O38    Zn42    2.018   .     S
O39    Zn41    2.018   .     S
O40    Zn42    2.018   .     S
C43    C56     1.365   .     S
C43    O75     1.262   .     A
C43    O78     1.262   .     A
C44    C58     1.436   .     S
C44    C63     1.398   .     A
C44    C61     1.398   .     A
C45    C51     1.400   .     A
C45    C49     1.411   .     A
C45    C62     1.384   .     A
C46    C63     1.384   .     A
C46    C50     1.411   .     A
C46    C52     1.400   .     A
C47    C53     1.400   .     A
C47    C49     1.411   .     A
C47    C60     1.384   .     A
C48    C55     1.400   .     A
C48    C61     1.384   .     A
C48    C50     1.411   .     A
C49    C8      1.391   1_655 S
C51    H65     1.084   .     S
C51    C13     1.389   1_655 S
C52    H66     1.084   .     S
C53    H67     1.084   .     S
C53    C10     1.389   1_655 S
C54    C57     1.365   .     S
C54    O76     1.262   .     A
C54    O77     1.262   .     A
C55    H68     1.084   .     S
C56    C225    1.165   1_545 S
C57    C140    1.165   .     S
C58    O79     1.274   .     A
C58    O82     1.274   .     A
C59    O80     1.274   .     A
C59    O81     1.274   .     A
C59    C64     1.436   .     S
C60    C64     1.398   .     A
C60    H69     1.085   .     S
C61    H70     1.085   .     S
C62    H71     1.085   .     S
C62    C64     1.398   .     A
C63    H72     1.085   .     S
N73    Zn84    1.974   .     S
N73    N578    1.194   1_554 S
N74    Zn83    1.974   .     S
N74    N325    1.194   .     S
O75    Zn83    1.954   .     S
O76    Zn84    1.954   .     S
O77    Zn83    1.954   .     S
O78    Zn84    1.954   .     S
O79    Zn83    2.018   .     S
O80    Zn84    2.018   .     S
O81    Zn83    2.018   .     S
O82    Zn84    2.018   .     S
C85    C98     1.365   .     S
C85    O117    1.262   .     A
C85    O120    1.262   .     A
C86    C100    1.436   .     S
C86    C105    1.398   .     A
C86    C103    1.398   .     A
C87    C93     1.400   .     A
C87    C91     1.411   .     A
C87    C104    1.384   .     A
C88    C105    1.384   .     A
C88    C92     1.411   .     A
C88    C94     1.400   .     A
C89    C95     1.400   .     A
C89    C91     1.411   .     A
C89    C102    1.384   .     A
C90    C97     1.400   .     A
C90    C103    1.384   .     A
C90    C92     1.411   .     A
C91    C134    1.391   .     S
C92    C133    1.391   1_455 S
C93    H107    1.084   .     S
C93    C139    1.389   .     S
C94    H108    1.084   .     S
C94    C137    1.389   1_455 S
C95    H109    1.084   .     S
C95    C136    1.389   .     S
C96    C99     1.365   .     S
C96    O118    1.262   .     A
C96    O119    1.262   .     A
C97    H110    1.084   .     S
C97    C135    1.389   1_455 S
C99    C182    1.165   .     S
C100   O121    1.274   .     A
C100   O124    1.274   .     A
C101   O122    1.274   .     A
C101   O123    1.274   .     A
C101   C106    1.436   .     S
C102   C106    1.398   .     A
C102   H111    1.085   .     S
C103   H112    1.085   .     S
C104   H113    1.085   .     S
C104   C106    1.398   .     A
C105   H114    1.085   .     S
N115   Zn126   1.974   .     S
N115   N620    1.194   1_554 S
N116   Zn125   1.974   .     S
N116   N367    1.194   .     S
O117   Zn125   1.954   .     S
O118   Zn126   1.954   .     S
O119   Zn125   1.954   .     S
O120   Zn126   1.954   .     S
O121   Zn125   2.018   .     S
O122   Zn126   2.018   .     S
O123   Zn125   2.018   .     S
O124   Zn126   2.018   .     S
C127   C140    1.365   .     S
C127   O159    1.262   .     A
C127   O162    1.262   .     A
C128   C142    1.436   .     S
C128   C147    1.398   .     A
C128   C145    1.398   .     A
C129   C135    1.400   .     A
C129   C133    1.411   .     A
C129   C146    1.384   .     A
C130   C147    1.384   .     A
C130   C134    1.411   .     A
C130   C136    1.400   .     A
C131   C137    1.400   .     A
C131   C133    1.411   .     A
C131   C144    1.384   .     A
C132   C139    1.400   .     A
C132   C145    1.384   .     A
C132   C134    1.411   .     A
C133   C92     1.391   1_655 S
C135   H149    1.084   .     S
C135   C97     1.389   1_655 S
C136   H150    1.084   .     S
C137   H151    1.084   .     S
C137   C94     1.389   1_655 S
C138   C141    1.365   .     S
C138   O160    1.262   .     A
C138   O161    1.262   .     A
C139   H152    1.084   .     S
C141   C224    1.165   .     S
C142   O163    1.274   .     A
C142   O166    1.274   .     A
C143   O164    1.274   .     A
C143   O165    1.274   .     A
C143   C148    1.436   .     S
C144   C148    1.398   .     A
C144   H153    1.085   .     S
C145   H154    1.085   .     S
C146   H155    1.085   .     S
C146   C148    1.398   .     A
C147   H156    1.085   .     S
N157   Zn168   1.974   .     S
N157   N662    1.194   1_554 S
N158   Zn167   1.974   .     S
N158   N409    1.194   .     S
O159   Zn167   1.954   .     S
O160   Zn168   1.954   .     S
O161   Zn167   1.954   .     S
O162   Zn168   1.954   .     S
O163   Zn167   2.018   .     S
O164   Zn168   2.018   .     S
O165   Zn167   2.018   .     S
O166   Zn168   2.018   .     S
C169   C182    1.365   .     S
C169   O201    1.262   .     A
C169   O204    1.262   .     A
C170   C184    1.436   .     S
C170   C189    1.398   .     A
C170   C187    1.398   .     A
C171   C177    1.400   .     A
C171   C175    1.411   .     A
C171   C188    1.384   .     A
C172   C189    1.384   .     A
C172   C176    1.411   .     A
C172   C178    1.400   .     A
C173   C179    1.400   .     A
C173   C175    1.411   .     A
C173   C186    1.384   .     A
C174   C181    1.400   .     A
C174   C187    1.384   .     A
C174   C176    1.411   .     A
C175   C218    1.391   .     S
C176   C217    1.391   1_455 S
C177   H191    1.084   .     S
C177   C223    1.389   .     S
C178   H192    1.084   .     S
C178   C221    1.389   1_455 S
C179   H193    1.084   .     S
C179   C220    1.389   .     S
C180   C183    1.365   .     S
C180   O202    1.262   .     A
C180   O203    1.262   .     A
C181   H194    1.084   .     S
C181   C219    1.389   1_455 S
C183   C14     1.165   1_565 S
C184   O205    1.274   .     A
C184   O208    1.274   .     A
C185   O206    1.274   .     A
C185   O207    1.274   .     A
C185   C190    1.436   .     S
C186   C190    1.398   .     A
C186   H195    1.085   .     S
C187   H196    1.085   .     S
C188   H197    1.085   .     S
C188   C190    1.398   .     A
C189   H198    1.085   .     S
N199   Zn210   1.974   .     S
N199   N704    1.194   1_554 S
N200   Zn209   1.974   .     S
N200   N451    1.194   .     S
O201   Zn209   1.954   .     S
O202   Zn210   1.954   .     S
O203   Zn209   1.954   .     S
O204   Zn210   1.954   .     S
O205   Zn209   2.018   .     S
O206   Zn210   2.018   .     S
O207   Zn209   2.018   .     S
O208   Zn210   2.018   .     S
C211   C224    1.365   .     S
C211   O243    1.262   .     A
C211   O246    1.262   .     A
C212   C226    1.436   .     S
C212   C231    1.398   .     A
C212   C229    1.398   .     A
C213   C219    1.400   .     A
C213   C217    1.411   .     A
C213   C230    1.384   .     A
C214   C231    1.384   .     A
C214   C218    1.411   .     A
C214   C220    1.400   .     A
C215   C221    1.400   .     A
C215   C217    1.411   .     A
C215   C228    1.384   .     A
C216   C223    1.400   .     A
C216   C229    1.384   .     A
C216   C218    1.411   .     A
C217   C176    1.391   1_655 S
C219   H233    1.084   .     S
C219   C181    1.389   1_655 S
C220   H234    1.084   .     S
C221   H235    1.084   .     S
C221   C178    1.389   1_655 S
C222   C225    1.365   .     S
C222   O244    1.262   .     A
C222   O245    1.262   .     A
C223   H236    1.084   .     S
C225   C56     1.165   1_565 S
C226   O247    1.274   .     A
C226   O250    1.274   .     A
C227   O248    1.274   .     A
C227   O249    1.274   .     A
C227   C232    1.436   .     S
C228   C232    1.398   .     A
C228   H237    1.085   .     S
C229   H238    1.085   .     S
C230   H239    1.085   .     S
C230   C232    1.398   .     A
C231   H240    1.085   .     S
N241   Zn252   1.974   .     S
N241   N746    1.194   1_554 S
N242   Zn251   1.974   .     S
N242   N493    1.194   .     S
O243   Zn251   1.954   .     S
O244   Zn252   1.954   .     S
O245   Zn251   1.954   .     S
O246   Zn252   1.954   .     S
O247   Zn251   2.018   .     S
O248   Zn252   2.018   .     S
O249   Zn251   2.018   .     S
O250   Zn252   2.018   .     S
C253   C266    1.365   .     S
C253   O285    1.262   .     A
C253   O288    1.262   .     A
C254   C268    1.436   .     S
C254   C273    1.398   .     A
C254   C271    1.398   .     A
C255   C261    1.400   .     A
C255   C259    1.411   .     A
C255   C272    1.384   .     A
C256   C273    1.384   .     A
C256   C260    1.411   .     A
C256   C262    1.400   .     A
C257   C263    1.400   .     A
C257   C259    1.411   .     A
C257   C270    1.384   .     A
C258   C265    1.400   .     A
C258   C271    1.384   .     A
C258   C260    1.411   .     A
C259   C302    1.391   .     S
C260   C301    1.391   1_455 S
C261   H275    1.084   .     S
C261   C307    1.389   .     S
C262   H276    1.084   .     S
C262   C305    1.389   1_455 S
C263   H277    1.084   .     S
C263   C304    1.389   .     S
C264   C267    1.365   .     S
C264   O286    1.262   .     A
C264   O287    1.262   .     A
C265   H278    1.084   .     S
C265   C303    1.389   1_455 S
C266   C435    1.165   1_545 S
C267   C350    1.165   .     S
C268   O289    1.274   .     A
C268   O292    1.274   .     A
C269   O290    1.274   .     A
C269   O291    1.274   .     A
C269   C274    1.436   .     S
C270   C274    1.398   .     A
C270   H279    1.085   .     S
C271   H280    1.085   .     S
C272   H281    1.085   .     S
C272   C274    1.398   .     A
C273   H282    1.085   .     S
N283   Zn294   1.974   .     S
N284   Zn293   1.974   .     S
N284   N535    1.194   .     S
O285   Zn293   1.954   .     S
O286   Zn294   1.954   .     S
O287   Zn293   1.954   .     S
O288   Zn294   1.954   .     S
O289   Zn293   2.018   .     S
O290   Zn294   2.018   .     S
O291   Zn293   2.018   .     S
O292   Zn294   2.018   .     S
C295   C308    1.365   .     S
C295   O327    1.262   .     A
C295   O330    1.262   .     A
C296   C310    1.436   .     S
C296   C315    1.398   .     A
C296   C313    1.398   .     A
C297   C303    1.400   .     A
C297   C301    1.411   .     A
C297   C314    1.384   .     A
C298   C315    1.384   .     A
C298   C302    1.411   .     A
C298   C304    1.400   .     A
C299   C305    1.400   .     A
C299   C301    1.411   .     A
C299   C312    1.384   .     A
C300   C307    1.400   .     A
C300   C313    1.384   .     A
C300   C302    1.411   .     A
C301   C260    1.391   1_655 S
C303   H317    1.084   .     S
C303   C265    1.389   1_655 S
C304   H318    1.084   .     S
C305   H319    1.084   .     S
C305   C262    1.389   1_655 S
C306   C309    1.365   .     S
C306   O328    1.262   .     A
C306   O329    1.262   .     A
C307   H320    1.084   .     S
C308   C477    1.165   1_545 S
C309   C392    1.165   .     S
C310   O331    1.274   .     A
C310   O334    1.274   .     A
C311   O332    1.274   .     A
C311   O333    1.274   .     A
C311   C316    1.436   .     S
C312   C316    1.398   .     A
C312   H321    1.085   .     S
C313   H322    1.085   .     S
C314   H323    1.085   .     S
C314   C316    1.398   .     A
C315   H324    1.085   .     S
N325   Zn336   1.974   .     S
N326   Zn335   1.974   .     S
N326   N577    1.194   .     S
O327   Zn335   1.954   .     S
O328   Zn336   1.954   .     S
O329   Zn335   1.954   .     S
O330   Zn336   1.954   .     S
O331   Zn335   2.018   .     S
O332   Zn336   2.018   .     S
O333   Zn335   2.018   .     S
O334   Zn336   2.018   .     S
C337   C350    1.365   .     S
C337   O369    1.262   .     A
C337   O372    1.262   .     A
C338   C352    1.436   .     S
C338   C357    1.398   .     A
C338   C355    1.398   .     A
C339   C345    1.400   .     A
C339   C343    1.411   .     A
C339   C356    1.384   .     A
C340   C357    1.384   .     A
C340   C344    1.411   .     A
C340   C346    1.400   .     A
C341   C347    1.400   .     A
C341   C343    1.411   .     A
C341   C354    1.384   .     A
C342   C349    1.400   .     A
C342   C355    1.384   .     A
C342   C344    1.411   .     A
C343   C386    1.391   .     S
C344   C385    1.391   1_455 S
C345   H359    1.084   .     S
C345   C391    1.389   .     S
C346   H360    1.084   .     S
C346   C389    1.389   1_455 S
C347   H361    1.084   .     S
C347   C388    1.389   .     S
C348   C351    1.365   .     S
C348   O370    1.262   .     A
C348   O371    1.262   .     A
C349   H362    1.084   .     S
C349   C387    1.389   1_455 S
C351   C434    1.165   .     S
C352   O373    1.274   .     A
C352   O376    1.274   .     A
C353   O374    1.274   .     A
C353   O375    1.274   .     A
C353   C358    1.436   .     S
C354   C358    1.398   .     A
C354   H363    1.085   .     S
C355   H364    1.085   .     S
C356   H365    1.085   .     S
C356   C358    1.398   .     A
C357   H366    1.085   .     S
N367   Zn378   1.974   .     S
N368   Zn377   1.974   .     S
N368   N619    1.194   .     S
O369   Zn377   1.954   .     S
O370   Zn378   1.954   .     S
O371   Zn377   1.954   .     S
O372   Zn378   1.954   .     S
O373   Zn377   2.018   .     S
O374   Zn378   2.018   .     S
O375   Zn377   2.018   .     S
O376   Zn378   2.018   .     S
C379   C392    1.365   .     S
C379   O411    1.262   .     A
C379   O414    1.262   .     A
C380   C394    1.436   .     S
C380   C399    1.398   .     A
C380   C397    1.398   .     A
C381   C387    1.400   .     A
C381   C385    1.411   .     A
C381   C398    1.384   .     A
C382   C399    1.384   .     A
C382   C386    1.411   .     A
C382   C388    1.400   .     A
C383   C389    1.400   .     A
C383   C385    1.411   .     A
C383   C396    1.384   .     A
C384   C391    1.400   .     A
C384   C397    1.384   .     A
C384   C386    1.411   .     A
C385   C344    1.391   1_655 S
C387   H401    1.084   .     S
C387   C349    1.389   1_655 S
C388   H402    1.084   .     S
C389   H403    1.084   .     S
C389   C346    1.389   1_655 S
C390   C393    1.365   .     S
C390   O412    1.262   .     A
C390   O413    1.262   .     A
C391   H404    1.084   .     S
C393   C476    1.165   .     S
C394   O415    1.274   .     A
C394   O418    1.274   .     A
C395   O416    1.274   .     A
C395   O417    1.274   .     A
C395   C400    1.436   .     S
C396   C400    1.398   .     A
C396   H405    1.085   .     S
C397   H406    1.085   .     S
C398   H407    1.085   .     S
C398   C400    1.398   .     A
C399   H408    1.085   .     S
N409   Zn420   1.974   .     S
N410   Zn419   1.974   .     S
N410   N661    1.194   .     S
O411   Zn419   1.954   .     S
O412   Zn420   1.954   .     S
O413   Zn419   1.954   .     S
O414   Zn420   1.954   .     S
O415   Zn419   2.018   .     S
O416   Zn420   2.018   .     S
O417   Zn419   2.018   .     S
O418   Zn420   2.018   .     S
C421   C434    1.365   .     S
C421   O453    1.262   .     A
C421   O456    1.262   .     A
C422   C436    1.436   .     S
C422   C441    1.398   .     A
C422   C439    1.398   .     A
C423   C429    1.400   .     A
C423   C427    1.411   .     A
C423   C440    1.384   .     A
C424   C441    1.384   .     A
C424   C428    1.411   .     A
C424   C430    1.400   .     A
C425   C431    1.400   .     A
C425   C427    1.411   .     A
C425   C438    1.384   .     A
C426   C433    1.400   .     A
C426   C439    1.384   .     A
C426   C428    1.411   .     A
C427   C470    1.391   .     S
C428   C469    1.391   1_455 S
C429   H443    1.084   .     S
C429   C475    1.389   .     S
C430   H444    1.084   .     S
C430   C473    1.389   1_455 S
C431   H445    1.084   .     S
C431   C472    1.389   .     S
C432   C435    1.365   .     S
C432   O454    1.262   .     A
C432   O455    1.262   .     A
C433   H446    1.084   .     S
C433   C471    1.389   1_455 S
C435   C266    1.165   1_565 S
C436   O457    1.274   .     A
C436   O460    1.274   .     A
C437   O458    1.274   .     A
C437   O459    1.274   .     A
C437   C442    1.436   .     S
C438   C442    1.398   .     A
C438   H447    1.085   .     S
C439   H448    1.085   .     S
C440   H449    1.085   .     S
C440   C442    1.398   .     A
C441   H450    1.085   .     S
N451   Zn462   1.974   .     S
N452   Zn461   1.974   .     S
N452   N703    1.194   .     S
O453   Zn461   1.954   .     S
O454   Zn462   1.954   .     S
O455   Zn461   1.954   .     S
O456   Zn462   1.954   .     S
O457   Zn461   2.018   .     S
O458   Zn462   2.018   .     S
O459   Zn461   2.018   .     S
O460   Zn462   2.018   .     S
C463   C476    1.365   .     S
C463   O495    1.262   .     A
C463   O498    1.262   .     A
C464   C478    1.436   .     S
C464   C483    1.398   .     A
C464   C481    1.398   .     A
C465   C471    1.400   .     A
C465   C469    1.411   .     A
C465   C482    1.384   .     A
C466   C483    1.384   .     A
C466   C470    1.411   .     A
C466   C472    1.400   .     A
C467   C473    1.400   .     A
C467   C469    1.411   .     A
C467   C480    1.384   .     A
C468   C475    1.400   .     A
C468   C481    1.384   .     A
C468   C470    1.411   .     A
C469   C428    1.391   1_655 S
C471   H485    1.084   .     S
C471   C433    1.389   1_655 S
C472   H486    1.084   .     S
C473   H487    1.084   .     S
C473   C430    1.389   1_655 S
C474   C477    1.365   .     S
C474   O496    1.262   .     A
C474   O497    1.262   .     A
C475   H488    1.084   .     S
C477   C308    1.165   1_565 S
C478   O499    1.274   .     A
C478   O502    1.274   .     A
C479   O500    1.274   .     A
C479   O501    1.274   .     A
C479   C484    1.436   .     S
C480   C484    1.398   .     A
C480   H489    1.085   .     S
C481   H490    1.085   .     S
C482   H491    1.085   .     S
C482   C484    1.398   .     A
C483   H492    1.085   .     S
N493   Zn504   1.974   .     S
N494   Zn503   1.974   .     S
N494   N745    1.194   .     S
O495   Zn503   1.954   .     S
O496   Zn504   1.954   .     S
O497   Zn503   1.954   .     S
O498   Zn504   1.954   .     S
O499   Zn503   2.018   .     S
O500   Zn504   2.018   .     S
O501   Zn503   2.018   .     S
O502   Zn504   2.018   .     S
C505   C518    1.365   .     S
C505   O537    1.262   .     A
C505   O540    1.262   .     A
C506   C520    1.436   .     S
C506   C525    1.398   .     A
C506   C523    1.398   .     A
C507   C513    1.400   .     A
C507   C511    1.411   .     A
C507   C524    1.384   .     A
C508   C525    1.384   .     A
C508   C512    1.411   .     A
C508   C514    1.400   .     A
C509   C515    1.400   .     A
C509   C511    1.411   .     A
C509   C522    1.384   .     A
C510   C517    1.400   .     A
C510   C523    1.384   .     A
C510   C512    1.411   .     A
C511   C554    1.391   .     S
C512   C553    1.391   1_455 S
C513   H527    1.084   .     S
C513   C559    1.389   .     S
C514   H528    1.084   .     S
C514   C557    1.389   1_455 S
C515   H529    1.084   .     S
C515   C556    1.389   .     S
C516   C519    1.365   .     S
C516   O538    1.262   .     A
C516   O539    1.262   .     A
C517   H530    1.084   .     S
C517   C555    1.389   1_455 S
C518   C687    1.165   1_545 S
C519   C602    1.165   .     S
C520   O541    1.274   .     A
C520   O544    1.274   .     A
C521   O542    1.274   .     A
C521   O543    1.274   .     A
C521   C526    1.436   .     S
C522   C526    1.398   .     A
C522   H531    1.085   .     S
C523   H532    1.085   .     S
C524   H533    1.085   .     S
C524   C526    1.398   .     A
C525   H534    1.085   .     S
N535   Zn546   1.974   .     S
N536   Zn545   1.974   .     S
N536   N31     1.194   1_556 S
O537   Zn545   1.954   .     S
O538   Zn546   1.954   .     S
O539   Zn545   1.954   .     S
O540   Zn546   1.954   .     S
O541   Zn545   2.018   .     S
O542   Zn546   2.018   .     S
O543   Zn545   2.018   .     S
O544   Zn546   2.018   .     S
C547   C560    1.365   .     S
C547   O579    1.262   .     A
C547   O582    1.262   .     A
C548   C562    1.436   .     S
C548   C567    1.398   .     A
C548   C565    1.398   .     A
C549   C555    1.400   .     A
C549   C553    1.411   .     A
C549   C566    1.384   .     A
C550   C567    1.384   .     A
C550   C554    1.411   .     A
C550   C556    1.400   .     A
C551   C557    1.400   .     A
C551   C553    1.411   .     A
C551   C564    1.384   .     A
C552   C559    1.400   .     A
C552   C565    1.384   .     A
C552   C554    1.411   .     A
C553   C512    1.391   1_655 S
C555   H569    1.084   .     S
C555   C517    1.389   1_655 S
C556   H570    1.084   .     S
C557   H571    1.084   .     S
C557   C514    1.389   1_655 S
C558   C561    1.365   .     S
C558   O580    1.262   .     A
C558   O581    1.262   .     A
C559   H572    1.084   .     S
C560   C729    1.165   1_545 S
C561   C644    1.165   .     S
C562   O583    1.274   .     A
C562   O586    1.274   .     A
C563   O584    1.274   .     A
C563   O585    1.274   .     A
C563   C568    1.436   .     S
C564   C568    1.398   .     A
C564   H573    1.085   .     S
C565   H574    1.085   .     S
C566   H575    1.085   .     S
C566   C568    1.398   .     A
C567   H576    1.085   .     S
N577   Zn588   1.974   .     S
N578   Zn587   1.974   .     S
N578   N73     1.194   1_556 S
O579   Zn587   1.954   .     S
O580   Zn588   1.954   .     S
O581   Zn587   1.954   .     S
O582   Zn588   1.954   .     S
O583   Zn587   2.018   .     S
O584   Zn588   2.018   .     S
O585   Zn587   2.018   .     S
O586   Zn588   2.018   .     S
C589   C602    1.365   .     S
C589   O621    1.262   .     A
C589   O624    1.262   .     A
C590   C604    1.436   .     S
C590   C609    1.398   .     A
C590   C607    1.398   .     A
C591   C597    1.400   .     A
C591   C595    1.411   .     A
C591   C608    1.384   .     A
C592   C609    1.384   .     A
C592   C596    1.411   .     A
C592   C598    1.400   .     A
C593   C599    1.400   .     A
C593   C595    1.411   .     A
C593   C606    1.384   .     A
C594   C601    1.400   .     A
C594   C607    1.384   .     A
C594   C596    1.411   .     A
C595   C638    1.391   .     S
C596   C637    1.391   1_455 S
C597   H611    1.084   .     S
C597   C643    1.389   .     S
C598   H612    1.084   .     S
C598   C641    1.389   1_455 S
C599   H613    1.084   .     S
C599   C640    1.389   .     S
C600   C603    1.365   .     S
C600   O622    1.262   .     A
C600   O623    1.262   .     A
C601   H614    1.084   .     S
C601   C639    1.389   1_455 S
C603   C686    1.165   .     S
C604   O625    1.274   .     A
C604   O628    1.274   .     A
C605   O626    1.274   .     A
C605   O627    1.274   .     A
C605   C610    1.436   .     S
C606   C610    1.398   .     A
C606   H615    1.085   .     S
C607   H616    1.085   .     S
C608   H617    1.085   .     S
C608   C610    1.398   .     A
C609   H618    1.085   .     S
N619   Zn630   1.974   .     S
N620   Zn629   1.974   .     S
N620   N115    1.194   1_556 S
O621   Zn629   1.954   .     S
O622   Zn630   1.954   .     S
O623   Zn629   1.954   .     S
O624   Zn630   1.954   .     S
O625   Zn629   2.018   .     S
O626   Zn630   2.018   .     S
O627   Zn629   2.018   .     S
O628   Zn630   2.018   .     S
C631   C644    1.365   .     S
C631   O663    1.262   .     A
C631   O666    1.262   .     A
C632   C646    1.436   .     S
C632   C651    1.398   .     A
C632   C649    1.398   .     A
C633   C639    1.400   .     A
C633   C637    1.411   .     A
C633   C650    1.384   .     A
C634   C651    1.384   .     A
C634   C638    1.411   .     A
C634   C640    1.400   .     A
C635   C641    1.400   .     A
C635   C637    1.411   .     A
C635   C648    1.384   .     A
C636   C643    1.400   .     A
C636   C649    1.384   .     A
C636   C638    1.411   .     A
C637   C596    1.391   1_655 S
C639   H653    1.084   .     S
C639   C601    1.389   1_655 S
C640   H654    1.084   .     S
C641   H655    1.084   .     S
C641   C598    1.389   1_655 S
C642   C645    1.365   .     S
C642   O664    1.262   .     A
C642   O665    1.262   .     A
C643   H656    1.084   .     S
C645   C728    1.165   .     S
C646   O667    1.274   .     A
C646   O670    1.274   .     A
C647   O668    1.274   .     A
C647   O669    1.274   .     A
C647   C652    1.436   .     S
C648   C652    1.398   .     A
C648   H657    1.085   .     S
C649   H658    1.085   .     S
C650   H659    1.085   .     S
C650   C652    1.398   .     A
C651   H660    1.085   .     S
N661   Zn672   1.974   .     S
N662   Zn671   1.974   .     S
N662   N157    1.194   1_556 S
O663   Zn671   1.954   .     S
O664   Zn672   1.954   .     S
O665   Zn671   1.954   .     S
O666   Zn672   1.954   .     S
O667   Zn671   2.018   .     S
O668   Zn672   2.018   .     S
O669   Zn671   2.018   .     S
O670   Zn672   2.018   .     S
C673   C686    1.365   .     S
C673   O705    1.262   .     A
C673   O708    1.262   .     A
C674   C688    1.436   .     S
C674   C693    1.398   .     A
C674   C691    1.398   .     A
C675   C681    1.400   .     A
C675   C679    1.411   .     A
C675   C692    1.384   .     A
C676   C693    1.384   .     A
C676   C680    1.411   .     A
C676   C682    1.400   .     A
C677   C683    1.400   .     A
C677   C679    1.411   .     A
C677   C690    1.384   .     A
C678   C685    1.400   .     A
C678   C691    1.384   .     A
C678   C680    1.411   .     A
C679   C722    1.391   .     S
C680   C721    1.391   1_455 S
C681   H695    1.084   .     S
C681   C727    1.389   .     S
C682   H696    1.084   .     S
C682   C725    1.389   1_455 S
C683   H697    1.084   .     S
C683   C724    1.389   .     S
C684   C687    1.365   .     S
C684   O706    1.262   .     A
C684   O707    1.262   .     A
C685   H698    1.084   .     S
C685   C723    1.389   1_455 S
C687   C518    1.165   1_565 S
C688   O709    1.274   .     A
C688   O712    1.274   .     A
C689   O710    1.274   .     A
C689   O711    1.274   .     A
C689   C694    1.436   .     S
C690   C694    1.398   .     A
C690   H699    1.085   .     S
C691   H700    1.085   .     S
C692   H701    1.085   .     S
C692   C694    1.398   .     A
C693   H702    1.085   .     S
N703   Zn714   1.974   .     S
N704   Zn713   1.974   .     S
N704   N199    1.194   1_556 S
O705   Zn713   1.954   .     S
O706   Zn714   1.954   .     S
O707   Zn713   1.954   .     S
O708   Zn714   1.954   .     S
O709   Zn713   2.018   .     S
O710   Zn714   2.018   .     S
O711   Zn713   2.018   .     S
O712   Zn714   2.018   .     S
C715   C728    1.365   .     S
C715   O747    1.262   .     A
C715   O750    1.262   .     A
C716   C730    1.436   .     S
C716   C735    1.398   .     A
C716   C733    1.398   .     A
C717   C723    1.400   .     A
C717   C721    1.411   .     A
C717   C734    1.384   .     A
C718   C735    1.384   .     A
C718   C722    1.411   .     A
C718   C724    1.400   .     A
C719   C725    1.400   .     A
C719   C721    1.411   .     A
C719   C732    1.384   .     A
C720   C727    1.400   .     A
C720   C733    1.384   .     A
C720   C722    1.411   .     A
C721   C680    1.391   1_655 S
C723   H737    1.084   .     S
C723   C685    1.389   1_655 S
C724   H738    1.084   .     S
C725   H739    1.084   .     S
C725   C682    1.389   1_655 S
C726   C729    1.365   .     S
C726   O748    1.262   .     A
C726   O749    1.262   .     A
C727   H740    1.084   .     S
C729   C560    1.165   1_565 S
C730   O751    1.274   .     A
C730   O754    1.274   .     A
C731   O752    1.274   .     A
C731   O753    1.274   .     A
C731   C736    1.436   .     S
C732   C736    1.398   .     A
C732   H741    1.085   .     S
C733   H742    1.085   .     S
C734   H743    1.085   .     S
C734   C736    1.398   .     A
C735   H744    1.085   .     S
N745   Zn756   1.974   .     S
N746   Zn755   1.974   .     S
N746   N241    1.194   1_556 S
O747   Zn755   1.954   .     S
O748   Zn756   1.954   .     S
O749   Zn755   1.954   .     S
O750   Zn756   1.954   .     S
O751   Zn755   2.018   .     S
O752   Zn756   2.018   .     S
O753   Zn755   2.018   .     S
O754   Zn756   2.018   .     S
