data_str_m2_o2_o10_pcu_sym.125
_audit_creation_date              2020-01-03
_audit_creation_method            'Materials Studio'
_symmetry_space_group_name_H-M    'P1'
_symmetry_Int_Tables_number       1
_symmetry_cell_setting            triclinic
loop_
_symmetry_equiv_pos_as_xyz
  x,y,z
_cell_length_a                    26.3204
_cell_length_b                    30.1866
_cell_length_c                    27.7157
_cell_angle_alpha                 89.8462
_cell_angle_beta                  97.7490
_cell_angle_gamma                 90.1886
loop_
_atom_site_label
_atom_site_type_symbol
_atom_site_fract_x
_atom_site_fract_y
_atom_site_fract_z
_atom_site_U_iso_or_equiv
_atom_site_adp_type
_atom_site_occupancy
C1     C     0.16704   0.16496   0.25008   0.00000  Uiso   1.00
C2     C     0.20669   0.27001   0.45107   0.00000  Uiso   1.00
C3     C     0.16680   0.25000   0.02738   0.00000  Uiso   1.00
C4     C     0.16672   0.25007   0.47267   0.00000  Uiso   1.00
C5     C     0.06810   0.24928   0.23775   0.00000  Uiso   1.00
C6     C     0.26522   0.25075   0.26225   0.00000  Uiso   1.00
C7     C     0.01320   0.24523   0.23133   0.00000  Uiso   1.00
C8     C     0.32012   0.25487   0.26870   0.00000  Uiso   1.00
C9     C     0.14756   0.04673   0.28463   0.00000  Uiso   1.00
C10    C     0.15547   0.45337   0.20808   0.00000  Uiso   1.00
C11    C     0.14591   0.09271   0.28471   0.00000  Uiso   1.00
C12    C     0.16715   0.33511   0.25002   0.00000  Uiso   1.00
C13    C     0.15374   0.40737   0.20755   0.00000  Uiso   1.00
C14    C     0.16915   0.11680   0.25040   0.00000  Uiso   1.00
C15    C     0.16938   0.38342   0.25031   0.00000  Uiso   1.00
C16    C     0.19521   0.09473   0.21677   0.00000  Uiso   1.00
C17    C     0.18790   0.40586   0.29335   0.00000  Uiso   1.00
C18    C     0.19911   0.04854   0.21798   0.00000  Uiso   1.00
C19    C     0.19154   0.45205   0.29367   0.00000  Uiso   1.00
C20    C     0.17377   0.02444   0.25121   0.00000  Uiso   1.00
C21    C     0.17392   0.47591   0.25104   0.00000  Uiso   1.00
C22    C     0.32434   0.18624   0.18182   0.00000  Uiso   1.00
C23    C     0.19187   0.28349   0.05714   0.00000  Uiso   1.00
C24    C     0.29184   0.17190   0.13486   0.00000  Uiso   1.00
C25    C     0.00717   0.31382   0.31878   0.00000  Uiso   1.00
C26    C     0.03884   0.32846   0.36605   0.00000  Uiso   1.00
C27    C     0.27911   0.03346   0.19998   0.00000  Uiso   1.00
C28    C     0.30910   0.00241   0.17127   0.00000  Uiso   1.00
C29    C     0.26416   0.46938   0.34428   0.00000  Uiso   1.00
C30    C     0.28601   0.00028   0.38516   0.00000  Uiso   1.00
C31    C     0.12666   0.23018   0.44101   0.00000  Uiso   1.00
C32    C     0.19167   0.28268   0.10785   0.00000  Uiso   1.00
C33    C     0.12764   0.23014   0.39040   0.00000  Uiso   1.00
C34    C     0.14182   0.21728   0.10161   0.00000  Uiso   1.00
C35    C     0.20569   0.26994   0.40020   0.00000  Uiso   1.00
C36    C     0.14177   0.21645   0.05087   0.00000  Uiso   1.00
Cu37   Cu    0.16667   0.25000   0.29821   0.00000  Uiso   1.00
Cu38   Cu    0.16667   0.25001   0.20178   0.00000  Uiso   1.00
H39    H     0.12797   0.02845   0.31034   0.00000  Uiso   1.00
H40    H     0.09676   0.21431   0.36692   0.00000  Uiso   1.00
H41    H     0.12204   0.19142   0.11881   0.00000  Uiso   1.00
H42    H     0.23651   0.28579   0.38445   0.00000  Uiso   1.00
H43    H     0.12268   0.18922   0.03052   0.00000  Uiso   1.00
H44    H     0.23912   0.28516   0.47311   0.00000  Uiso   1.00
H45    H     0.30884   0.16956   0.21273   0.00000  Uiso   1.00
H46    H     0.03115   0.17515   0.18072   0.00000  Uiso   1.00
H47    H     0.30625   0.18777   0.10313   0.00000  Uiso   1.00
H48    H     0.29368   0.13535   0.13101   0.00000  Uiso   1.00
H49    H     0.25130   0.18168   0.13547   0.00000  Uiso   1.00
H50    H     0.14178   0.47148   0.17510   0.00000  Uiso   1.00
H51    H     0.29996   0.32376   0.31983   0.00000  Uiso   1.00
H52    H     0.02220   0.33136   0.28814   0.00000  Uiso   1.00
H53    H     0.07987   0.32039   0.36536   0.00000  Uiso   1.00
H54    H     0.03509   0.36480   0.37055   0.00000  Uiso   1.00
H55    H     0.02517   0.31136   0.39744   0.00000  Uiso   1.00
H56    H     0.29037   0.02631   0.23947   0.00000  Uiso   1.00
H57    H     0.29001   0.06813   0.19215   0.00000  Uiso   1.00
H58    H     0.29963   0.00912   0.13167   0.00000  Uiso   1.00
H59    H     0.01756   0.00754   0.18212   0.00000  Uiso   1.00
H60    H     0.29935   0.46745   0.17876   0.00000  Uiso   1.00
H61    H     0.12551   0.10943   0.31079   0.00000  Uiso   1.00
H62    H     0.28203   0.47823   0.31126   0.00000  Uiso   1.00
H63    H     0.27473   0.43479   0.35537   0.00000  Uiso   1.00
H64    H     0.26973   0.49196   0.41901   0.00000  Uiso   1.00
H65    H     0.32836   0.49677   0.39208   0.00000  Uiso   1.00
H66    H     0.27646   0.03516   0.37485   0.00000  Uiso   1.00
H67    H     0.13923   0.39057   0.17399   0.00000  Uiso   1.00
H68    H     0.21344   0.11331   0.19030   0.00000  Uiso   1.00
H69    H     0.20028   0.38764   0.32657   0.00000  Uiso   1.00
H70    H     0.21103   0.31070   0.04157   0.00000  Uiso   1.00
H71    H     0.09422   0.21511   0.45489   0.00000  Uiso   1.00
H72    H     0.21146   0.30850   0.13001   0.00000  Uiso   1.00
N73    N     0.16667   0.25001   0.12935   0.00000  Uiso   1.00
N74    N     0.16667   0.24999   0.37065   0.00000  Uiso   1.00
O75    O     0.16667   0.18573   0.29071   0.00000  Uiso   1.00
O76    O     0.01113   0.26740   0.31423   0.00000  Uiso   1.00
O77    O     0.22607   0.02662   0.18578   0.00000  Uiso   1.00
O78    O     0.21033   0.47417   0.33601   0.00000  Uiso   1.00
O79    O     0.16666   0.31428   0.20928   0.00000  Uiso   1.00
O80    O     0.16667   0.18573   0.20928   0.00000  Uiso   1.00
O81    O     0.16666   0.31427   0.29072   0.00000  Uiso   1.00
O82    O     0.09161   0.25000   0.28132   0.00000  Uiso   1.00
O83    O     0.24172   0.25001   0.21868   0.00000  Uiso   1.00
O84    O     0.09161   0.25000   0.19988   0.00000  Uiso   1.00
O85    O     0.24172   0.25000   0.30011   0.00000  Uiso   1.00
O86    O     0.32221   0.23283   0.18576   0.00000  Uiso   1.00
C87    C     0.50037   0.16496   0.25008   0.00000  Uiso   1.00
C88    C     0.54002   0.27001   0.45107   0.00000  Uiso   1.00
C89    C     0.50013   0.25000   0.02738   0.00000  Uiso   1.00
C90    C     0.50005   0.25007   0.47267   0.00000  Uiso   1.00
C91    C     0.40144   0.24928   0.23775   0.00000  Uiso   1.00
C92    C     0.59856   0.25075   0.26225   0.00000  Uiso   1.00
C93    C     0.34654   0.24523   0.23133   0.00000  Uiso   1.00
C94    C     0.65346   0.25487   0.26870   0.00000  Uiso   1.00
C95    C     0.48090   0.04673   0.28463   0.00000  Uiso   1.00
C96    C     0.48880   0.45337   0.20808   0.00000  Uiso   1.00
C97    C     0.47925   0.09271   0.28471   0.00000  Uiso   1.00
C98    C     0.50048   0.33511   0.25002   0.00000  Uiso   1.00
C99    C     0.48707   0.40737   0.20755   0.00000  Uiso   1.00
C100   C     0.50248   0.11680   0.25040   0.00000  Uiso   1.00
C101   C     0.50271   0.38342   0.25031   0.00000  Uiso   1.00
C102   C     0.52854   0.09473   0.21677   0.00000  Uiso   1.00
C103   C     0.52123   0.40586   0.29335   0.00000  Uiso   1.00
C104   C     0.53244   0.04854   0.21798   0.00000  Uiso   1.00
C105   C     0.52487   0.45205   0.29367   0.00000  Uiso   1.00
C106   C     0.50710   0.02444   0.25121   0.00000  Uiso   1.00
C107   C     0.50725   0.47591   0.25104   0.00000  Uiso   1.00
C108   C     0.65768   0.18624   0.18182   0.00000  Uiso   1.00
C109   C     0.52521   0.28349   0.05714   0.00000  Uiso   1.00
C110   C     0.62517   0.17190   0.13486   0.00000  Uiso   1.00
C111   C     0.34051   0.31382   0.31878   0.00000  Uiso   1.00
C112   C     0.37217   0.32846   0.36605   0.00000  Uiso   1.00
C113   C     0.61245   0.03346   0.19998   0.00000  Uiso   1.00
C114   C     0.64243   0.00241   0.17127   0.00000  Uiso   1.00
C115   C     0.59749   0.46938   0.34428   0.00000  Uiso   1.00
C116   C     0.61935   0.00028   0.38516   0.00000  Uiso   1.00
C117   C     0.45999   0.23018   0.44101   0.00000  Uiso   1.00
C118   C     0.52501   0.28268   0.10785   0.00000  Uiso   1.00
C119   C     0.46097   0.23014   0.39040   0.00000  Uiso   1.00
C120   C     0.47515   0.21728   0.10161   0.00000  Uiso   1.00
C121   C     0.53902   0.26994   0.40020   0.00000  Uiso   1.00
C122   C     0.47510   0.21645   0.05087   0.00000  Uiso   1.00
Cu123  Cu    0.50000   0.25000   0.29821   0.00000  Uiso   1.00
Cu124  Cu    0.50000   0.25001   0.20178   0.00000  Uiso   1.00
H125   H     0.46130   0.02845   0.31034   0.00000  Uiso   1.00
H126   H     0.43010   0.21431   0.36692   0.00000  Uiso   1.00
H127   H     0.45538   0.19142   0.11881   0.00000  Uiso   1.00
H128   H     0.56985   0.28579   0.38445   0.00000  Uiso   1.00
H129   H     0.45601   0.18922   0.03052   0.00000  Uiso   1.00
H130   H     0.57246   0.28516   0.47311   0.00000  Uiso   1.00
H131   H     0.64218   0.16956   0.21273   0.00000  Uiso   1.00
H132   H     0.36448   0.17515   0.18072   0.00000  Uiso   1.00
H133   H     0.63958   0.18777   0.10313   0.00000  Uiso   1.00
H134   H     0.62701   0.13535   0.13101   0.00000  Uiso   1.00
H135   H     0.58463   0.18168   0.13547   0.00000  Uiso   1.00
H136   H     0.47512   0.47148   0.17510   0.00000  Uiso   1.00
H137   H     0.63329   0.32376   0.31983   0.00000  Uiso   1.00
H138   H     0.35553   0.33136   0.28814   0.00000  Uiso   1.00
H139   H     0.41321   0.32039   0.36536   0.00000  Uiso   1.00
H140   H     0.36843   0.36480   0.37055   0.00000  Uiso   1.00
H141   H     0.35851   0.31136   0.39744   0.00000  Uiso   1.00
H142   H     0.62370   0.02631   0.23947   0.00000  Uiso   1.00
H143   H     0.62335   0.06813   0.19215   0.00000  Uiso   1.00
H144   H     0.63296   0.00912   0.13167   0.00000  Uiso   1.00
H145   H     0.35089   0.00754   0.18212   0.00000  Uiso   1.00
H146   H     0.63269   0.46745   0.17876   0.00000  Uiso   1.00
H147   H     0.45884   0.10943   0.31079   0.00000  Uiso   1.00
H148   H     0.61536   0.47823   0.31126   0.00000  Uiso   1.00
H149   H     0.60806   0.43479   0.35537   0.00000  Uiso   1.00
H150   H     0.60306   0.49196   0.41901   0.00000  Uiso   1.00
H151   H     0.66169   0.49677   0.39208   0.00000  Uiso   1.00
H152   H     0.60979   0.03516   0.37485   0.00000  Uiso   1.00
H153   H     0.47256   0.39057   0.17399   0.00000  Uiso   1.00
H154   H     0.54677   0.11331   0.19030   0.00000  Uiso   1.00
H155   H     0.53361   0.38764   0.32657   0.00000  Uiso   1.00
H156   H     0.54436   0.31070   0.04157   0.00000  Uiso   1.00
H157   H     0.42755   0.21511   0.45489   0.00000  Uiso   1.00
H158   H     0.54479   0.30850   0.13001   0.00000  Uiso   1.00
N159   N     0.50000   0.25001   0.12935   0.00000  Uiso   1.00
N160   N     0.50000   0.24999   0.37065   0.00000  Uiso   1.00
O161   O     0.50000   0.18573   0.29071   0.00000  Uiso   1.00
O162   O     0.34446   0.26740   0.31423   0.00000  Uiso   1.00
O163   O     0.55941   0.02662   0.18578   0.00000  Uiso   1.00
O164   O     0.54367   0.47417   0.33601   0.00000  Uiso   1.00
O165   O     0.50000   0.31428   0.20928   0.00000  Uiso   1.00
O166   O     0.50000   0.18573   0.20928   0.00000  Uiso   1.00
O167   O     0.50000   0.31427   0.29072   0.00000  Uiso   1.00
O168   O     0.42495   0.25000   0.28132   0.00000  Uiso   1.00
O169   O     0.57505   0.25001   0.21868   0.00000  Uiso   1.00
O170   O     0.42495   0.25000   0.19988   0.00000  Uiso   1.00
O171   O     0.57505   0.25000   0.30011   0.00000  Uiso   1.00
O172   O     0.65554   0.23283   0.18576   0.00000  Uiso   1.00
C173   C     0.83370   0.16496   0.25008   0.00000  Uiso   1.00
C174   C     0.87336   0.27001   0.45107   0.00000  Uiso   1.00
C175   C     0.83346   0.25000   0.02738   0.00000  Uiso   1.00
C176   C     0.83338   0.25007   0.47267   0.00000  Uiso   1.00
C177   C     0.73477   0.24928   0.23775   0.00000  Uiso   1.00
C178   C     0.93189   0.25075   0.26225   0.00000  Uiso   1.00
C179   C     0.67987   0.24523   0.23133   0.00000  Uiso   1.00
C180   C     0.98679   0.25487   0.26870   0.00000  Uiso   1.00
C181   C     0.81423   0.04673   0.28463   0.00000  Uiso   1.00
C182   C     0.82214   0.45337   0.20808   0.00000  Uiso   1.00
C183   C     0.81258   0.09271   0.28471   0.00000  Uiso   1.00
C184   C     0.83382   0.33511   0.25002   0.00000  Uiso   1.00
C185   C     0.82041   0.40737   0.20755   0.00000  Uiso   1.00
C186   C     0.83582   0.11680   0.25040   0.00000  Uiso   1.00
C187   C     0.83604   0.38342   0.25031   0.00000  Uiso   1.00
C188   C     0.86188   0.09473   0.21677   0.00000  Uiso   1.00
C189   C     0.85456   0.40586   0.29335   0.00000  Uiso   1.00
C190   C     0.86577   0.04854   0.21798   0.00000  Uiso   1.00
C191   C     0.85820   0.45205   0.29367   0.00000  Uiso   1.00
C192   C     0.84044   0.02444   0.25121   0.00000  Uiso   1.00
C193   C     0.84059   0.47591   0.25104   0.00000  Uiso   1.00
C194   C     0.99101   0.18624   0.18182   0.00000  Uiso   1.00
C195   C     0.85854   0.28349   0.05714   0.00000  Uiso   1.00
C196   C     0.95851   0.17190   0.13486   0.00000  Uiso   1.00
C197   C     0.67384   0.31382   0.31878   0.00000  Uiso   1.00
C198   C     0.70550   0.32846   0.36605   0.00000  Uiso   1.00
C199   C     0.94578   0.03346   0.19998   0.00000  Uiso   1.00
C200   C     0.97577   0.00241   0.17127   0.00000  Uiso   1.00
C201   C     0.93083   0.46938   0.34428   0.00000  Uiso   1.00
C202   C     0.95268   0.00028   0.38516   0.00000  Uiso   1.00
C203   C     0.79333   0.23018   0.44101   0.00000  Uiso   1.00
C204   C     0.85834   0.28268   0.10785   0.00000  Uiso   1.00
C205   C     0.79430   0.23014   0.39040   0.00000  Uiso   1.00
C206   C     0.80849   0.21728   0.10161   0.00000  Uiso   1.00
C207   C     0.87235   0.26994   0.40020   0.00000  Uiso   1.00
C208   C     0.80843   0.21645   0.05087   0.00000  Uiso   1.00
Cu209  Cu    0.83333   0.25000   0.29821   0.00000  Uiso   1.00
Cu210  Cu    0.83333   0.25001   0.20178   0.00000  Uiso   1.00
H211   H     0.79463   0.02845   0.31034   0.00000  Uiso   1.00
H212   H     0.76343   0.21431   0.36692   0.00000  Uiso   1.00
H213   H     0.78871   0.19142   0.11881   0.00000  Uiso   1.00
H214   H     0.90318   0.28579   0.38445   0.00000  Uiso   1.00
H215   H     0.78934   0.18922   0.03052   0.00000  Uiso   1.00
H216   H     0.90579   0.28516   0.47311   0.00000  Uiso   1.00
H217   H     0.97551   0.16956   0.21273   0.00000  Uiso   1.00
H218   H     0.69782   0.17515   0.18072   0.00000  Uiso   1.00
H219   H     0.97292   0.18777   0.10313   0.00000  Uiso   1.00
H220   H     0.96034   0.13535   0.13101   0.00000  Uiso   1.00
H221   H     0.91796   0.18168   0.13547   0.00000  Uiso   1.00
H222   H     0.80845   0.47148   0.17510   0.00000  Uiso   1.00
H223   H     0.96662   0.32376   0.31983   0.00000  Uiso   1.00
H224   H     0.68887   0.33136   0.28814   0.00000  Uiso   1.00
H225   H     0.74654   0.32039   0.36536   0.00000  Uiso   1.00
H226   H     0.70176   0.36480   0.37055   0.00000  Uiso   1.00
H227   H     0.69184   0.31136   0.39744   0.00000  Uiso   1.00
H228   H     0.95703   0.02631   0.23947   0.00000  Uiso   1.00
H229   H     0.95668   0.06813   0.19215   0.00000  Uiso   1.00
H230   H     0.96630   0.00912   0.13167   0.00000  Uiso   1.00
H231   H     0.68422   0.00754   0.18212   0.00000  Uiso   1.00
H232   H     0.96602   0.46745   0.17876   0.00000  Uiso   1.00
H233   H     0.79218   0.10943   0.31079   0.00000  Uiso   1.00
H234   H     0.94870   0.47823   0.31126   0.00000  Uiso   1.00
H235   H     0.94140   0.43479   0.35537   0.00000  Uiso   1.00
H236   H     0.93639   0.49196   0.41901   0.00000  Uiso   1.00
H237   H     0.99503   0.49677   0.39208   0.00000  Uiso   1.00
H238   H     0.94313   0.03516   0.37485   0.00000  Uiso   1.00
H239   H     0.80590   0.39057   0.17399   0.00000  Uiso   1.00
H240   H     0.88010   0.11331   0.19030   0.00000  Uiso   1.00
H241   H     0.86694   0.38764   0.32657   0.00000  Uiso   1.00
H242   H     0.87770   0.31070   0.04157   0.00000  Uiso   1.00
H243   H     0.76088   0.21511   0.45489   0.00000  Uiso   1.00
H244   H     0.87812   0.30850   0.13001   0.00000  Uiso   1.00
N245   N     0.83333   0.25001   0.12935   0.00000  Uiso   1.00
N246   N     0.83333   0.24999   0.37065   0.00000  Uiso   1.00
O247   O     0.83334   0.18573   0.29071   0.00000  Uiso   1.00
O248   O     0.67780   0.26740   0.31423   0.00000  Uiso   1.00
O249   O     0.89274   0.02662   0.18578   0.00000  Uiso   1.00
O250   O     0.87700   0.47417   0.33601   0.00000  Uiso   1.00
O251   O     0.83333   0.31428   0.20928   0.00000  Uiso   1.00
O252   O     0.83334   0.18573   0.20928   0.00000  Uiso   1.00
O253   O     0.83333   0.31427   0.29072   0.00000  Uiso   1.00
O254   O     0.75828   0.25000   0.28132   0.00000  Uiso   1.00
O255   O     0.90839   0.25001   0.21868   0.00000  Uiso   1.00
O256   O     0.75828   0.25000   0.19988   0.00000  Uiso   1.00
O257   O     0.90839   0.25000   0.30011   0.00000  Uiso   1.00
O258   O     0.98887   0.23283   0.18576   0.00000  Uiso   1.00
C259   C     0.16704   0.66496   0.25008   0.00000  Uiso   1.00
C260   C     0.20669   0.77001   0.45107   0.00000  Uiso   1.00
C261   C     0.16680   0.75000   0.02738   0.00000  Uiso   1.00
C262   C     0.16672   0.75007   0.47267   0.00000  Uiso   1.00
C263   C     0.06810   0.74928   0.23775   0.00000  Uiso   1.00
C264   C     0.26522   0.75075   0.26225   0.00000  Uiso   1.00
C265   C     0.01320   0.74523   0.23133   0.00000  Uiso   1.00
C266   C     0.32012   0.75487   0.26870   0.00000  Uiso   1.00
C267   C     0.14756   0.54673   0.28463   0.00000  Uiso   1.00
C268   C     0.15547   0.95337   0.20808   0.00000  Uiso   1.00
C269   C     0.14591   0.59271   0.28471   0.00000  Uiso   1.00
C270   C     0.16715   0.83511   0.25002   0.00000  Uiso   1.00
C271   C     0.15374   0.90737   0.20755   0.00000  Uiso   1.00
C272   C     0.16915   0.61680   0.25040   0.00000  Uiso   1.00
C273   C     0.16938   0.88342   0.25031   0.00000  Uiso   1.00
C274   C     0.19521   0.59473   0.21677   0.00000  Uiso   1.00
C275   C     0.18790   0.90586   0.29335   0.00000  Uiso   1.00
C276   C     0.19911   0.54854   0.21798   0.00000  Uiso   1.00
C277   C     0.19154   0.95205   0.29367   0.00000  Uiso   1.00
C278   C     0.17377   0.52444   0.25121   0.00000  Uiso   1.00
C279   C     0.17392   0.97591   0.25104   0.00000  Uiso   1.00
C280   C     0.32434   0.68624   0.18182   0.00000  Uiso   1.00
C281   C     0.19187   0.78349   0.05714   0.00000  Uiso   1.00
C282   C     0.29184   0.67190   0.13486   0.00000  Uiso   1.00
C283   C     0.00717   0.81382   0.31878   0.00000  Uiso   1.00
C284   C     0.03884   0.82846   0.36605   0.00000  Uiso   1.00
C285   C     0.27911   0.53346   0.19998   0.00000  Uiso   1.00
C286   C     0.30910   0.50241   0.17127   0.00000  Uiso   1.00
C287   C     0.26416   0.96938   0.34428   0.00000  Uiso   1.00
C288   C     0.28601   0.50028   0.38516   0.00000  Uiso   1.00
C289   C     0.12666   0.73018   0.44101   0.00000  Uiso   1.00
C290   C     0.19167   0.78268   0.10785   0.00000  Uiso   1.00
C291   C     0.12764   0.73014   0.39040   0.00000  Uiso   1.00
C292   C     0.14182   0.71728   0.10161   0.00000  Uiso   1.00
C293   C     0.20569   0.76994   0.40020   0.00000  Uiso   1.00
C294   C     0.14177   0.71645   0.05087   0.00000  Uiso   1.00
Cu295  Cu    0.16667   0.75000   0.29821   0.00000  Uiso   1.00
Cu296  Cu    0.16667   0.75001   0.20178   0.00000  Uiso   1.00
H297   H     0.12797   0.52845   0.31034   0.00000  Uiso   1.00
H298   H     0.09676   0.71431   0.36692   0.00000  Uiso   1.00
H299   H     0.12204   0.69142   0.11881   0.00000  Uiso   1.00
H300   H     0.23651   0.78579   0.38445   0.00000  Uiso   1.00
H301   H     0.12268   0.68922   0.03052   0.00000  Uiso   1.00
H302   H     0.23912   0.78516   0.47311   0.00000  Uiso   1.00
H303   H     0.30884   0.66956   0.21273   0.00000  Uiso   1.00
H304   H     0.03115   0.67515   0.18072   0.00000  Uiso   1.00
H305   H     0.30625   0.68777   0.10313   0.00000  Uiso   1.00
H306   H     0.29368   0.63535   0.13101   0.00000  Uiso   1.00
H307   H     0.25130   0.68168   0.13547   0.00000  Uiso   1.00
H308   H     0.14178   0.97148   0.17510   0.00000  Uiso   1.00
H309   H     0.29996   0.82376   0.31983   0.00000  Uiso   1.00
H310   H     0.02220   0.83136   0.28814   0.00000  Uiso   1.00
H311   H     0.07987   0.82039   0.36536   0.00000  Uiso   1.00
H312   H     0.03509   0.86480   0.37055   0.00000  Uiso   1.00
H313   H     0.02517   0.81136   0.39744   0.00000  Uiso   1.00
H314   H     0.29037   0.52631   0.23947   0.00000  Uiso   1.00
H315   H     0.29001   0.56813   0.19215   0.00000  Uiso   1.00
H316   H     0.29963   0.50912   0.13167   0.00000  Uiso   1.00
H317   H     0.01756   0.50754   0.18212   0.00000  Uiso   1.00
H318   H     0.29935   0.96745   0.17876   0.00000  Uiso   1.00
H319   H     0.12551   0.60943   0.31079   0.00000  Uiso   1.00
H320   H     0.28203   0.97823   0.31126   0.00000  Uiso   1.00
H321   H     0.27473   0.93479   0.35537   0.00000  Uiso   1.00
H322   H     0.26973   0.99196   0.41901   0.00000  Uiso   1.00
H323   H     0.32836   0.99677   0.39208   0.00000  Uiso   1.00
H324   H     0.27646   0.53516   0.37485   0.00000  Uiso   1.00
H325   H     0.13923   0.89057   0.17399   0.00000  Uiso   1.00
H326   H     0.21344   0.61331   0.19030   0.00000  Uiso   1.00
H327   H     0.20028   0.88764   0.32657   0.00000  Uiso   1.00
H328   H     0.21103   0.81070   0.04157   0.00000  Uiso   1.00
H329   H     0.09422   0.71511   0.45489   0.00000  Uiso   1.00
H330   H     0.21146   0.80850   0.13001   0.00000  Uiso   1.00
N331   N     0.16667   0.75001   0.12935   0.00000  Uiso   1.00
N332   N     0.16667   0.74999   0.37065   0.00000  Uiso   1.00
O333   O     0.16667   0.68573   0.29071   0.00000  Uiso   1.00
O334   O     0.01113   0.76740   0.31423   0.00000  Uiso   1.00
O335   O     0.22607   0.52662   0.18578   0.00000  Uiso   1.00
O336   O     0.21033   0.97417   0.33601   0.00000  Uiso   1.00
O337   O     0.16666   0.81428   0.20928   0.00000  Uiso   1.00
O338   O     0.16667   0.68573   0.20928   0.00000  Uiso   1.00
O339   O     0.16666   0.81427   0.29072   0.00000  Uiso   1.00
O340   O     0.09161   0.75000   0.28132   0.00000  Uiso   1.00
O341   O     0.24172   0.75001   0.21868   0.00000  Uiso   1.00
O342   O     0.09161   0.75000   0.19988   0.00000  Uiso   1.00
O343   O     0.24172   0.75000   0.30011   0.00000  Uiso   1.00
O344   O     0.32221   0.73283   0.18576   0.00000  Uiso   1.00
C345   C     0.50037   0.66496   0.25008   0.00000  Uiso   1.00
C346   C     0.54002   0.77001   0.45107   0.00000  Uiso   1.00
C347   C     0.50013   0.75000   0.02738   0.00000  Uiso   1.00
C348   C     0.50005   0.75007   0.47267   0.00000  Uiso   1.00
C349   C     0.40144   0.74928   0.23775   0.00000  Uiso   1.00
C350   C     0.59856   0.75075   0.26225   0.00000  Uiso   1.00
C351   C     0.34654   0.74523   0.23133   0.00000  Uiso   1.00
C352   C     0.65346   0.75487   0.26870   0.00000  Uiso   1.00
C353   C     0.48090   0.54673   0.28463   0.00000  Uiso   1.00
C354   C     0.48880   0.95337   0.20808   0.00000  Uiso   1.00
C355   C     0.47925   0.59271   0.28471   0.00000  Uiso   1.00
C356   C     0.50048   0.83511   0.25002   0.00000  Uiso   1.00
C357   C     0.48707   0.90737   0.20755   0.00000  Uiso   1.00
C358   C     0.50248   0.61680   0.25040   0.00000  Uiso   1.00
C359   C     0.50271   0.88342   0.25031   0.00000  Uiso   1.00
C360   C     0.52854   0.59473   0.21677   0.00000  Uiso   1.00
C361   C     0.52123   0.90586   0.29335   0.00000  Uiso   1.00
C362   C     0.53244   0.54854   0.21798   0.00000  Uiso   1.00
C363   C     0.52487   0.95205   0.29367   0.00000  Uiso   1.00
C364   C     0.50710   0.52444   0.25121   0.00000  Uiso   1.00
C365   C     0.50725   0.97591   0.25104   0.00000  Uiso   1.00
C366   C     0.65768   0.68624   0.18182   0.00000  Uiso   1.00
C367   C     0.52521   0.78349   0.05714   0.00000  Uiso   1.00
C368   C     0.62517   0.67190   0.13486   0.00000  Uiso   1.00
C369   C     0.34051   0.81382   0.31878   0.00000  Uiso   1.00
C370   C     0.37217   0.82846   0.36605   0.00000  Uiso   1.00
C371   C     0.61245   0.53346   0.19998   0.00000  Uiso   1.00
C372   C     0.64243   0.50241   0.17127   0.00000  Uiso   1.00
C373   C     0.59749   0.96938   0.34428   0.00000  Uiso   1.00
C374   C     0.61935   0.50028   0.38516   0.00000  Uiso   1.00
C375   C     0.45999   0.73018   0.44101   0.00000  Uiso   1.00
C376   C     0.52501   0.78268   0.10785   0.00000  Uiso   1.00
C377   C     0.46097   0.73014   0.39040   0.00000  Uiso   1.00
C378   C     0.47515   0.71728   0.10161   0.00000  Uiso   1.00
C379   C     0.53902   0.76994   0.40020   0.00000  Uiso   1.00
C380   C     0.47510   0.71645   0.05087   0.00000  Uiso   1.00
Cu381  Cu    0.50000   0.75000   0.29821   0.00000  Uiso   1.00
Cu382  Cu    0.50000   0.75001   0.20178   0.00000  Uiso   1.00
H383   H     0.46130   0.52845   0.31034   0.00000  Uiso   1.00
H384   H     0.43010   0.71431   0.36692   0.00000  Uiso   1.00
H385   H     0.45538   0.69142   0.11881   0.00000  Uiso   1.00
H386   H     0.56985   0.78579   0.38445   0.00000  Uiso   1.00
H387   H     0.45601   0.68922   0.03052   0.00000  Uiso   1.00
H388   H     0.57246   0.78516   0.47311   0.00000  Uiso   1.00
H389   H     0.64218   0.66956   0.21273   0.00000  Uiso   1.00
H390   H     0.36448   0.67515   0.18072   0.00000  Uiso   1.00
H391   H     0.63958   0.68777   0.10313   0.00000  Uiso   1.00
H392   H     0.62701   0.63535   0.13101   0.00000  Uiso   1.00
H393   H     0.58463   0.68168   0.13547   0.00000  Uiso   1.00
H394   H     0.47512   0.97148   0.17510   0.00000  Uiso   1.00
H395   H     0.63329   0.82376   0.31983   0.00000  Uiso   1.00
H396   H     0.35553   0.83136   0.28814   0.00000  Uiso   1.00
H397   H     0.41321   0.82039   0.36536   0.00000  Uiso   1.00
H398   H     0.36843   0.86480   0.37055   0.00000  Uiso   1.00
H399   H     0.35851   0.81136   0.39744   0.00000  Uiso   1.00
H400   H     0.62370   0.52631   0.23947   0.00000  Uiso   1.00
H401   H     0.62335   0.56813   0.19215   0.00000  Uiso   1.00
H402   H     0.63296   0.50912   0.13167   0.00000  Uiso   1.00
H403   H     0.35089   0.50754   0.18212   0.00000  Uiso   1.00
H404   H     0.63269   0.96745   0.17876   0.00000  Uiso   1.00
H405   H     0.45884   0.60943   0.31079   0.00000  Uiso   1.00
H406   H     0.61536   0.97823   0.31126   0.00000  Uiso   1.00
H407   H     0.60806   0.93479   0.35537   0.00000  Uiso   1.00
H408   H     0.60306   0.99196   0.41901   0.00000  Uiso   1.00
H409   H     0.66169   0.99677   0.39208   0.00000  Uiso   1.00
H410   H     0.60979   0.53516   0.37485   0.00000  Uiso   1.00
H411   H     0.47256   0.89057   0.17399   0.00000  Uiso   1.00
H412   H     0.54677   0.61331   0.19030   0.00000  Uiso   1.00
H413   H     0.53361   0.88764   0.32657   0.00000  Uiso   1.00
H414   H     0.54436   0.81070   0.04157   0.00000  Uiso   1.00
H415   H     0.42755   0.71511   0.45489   0.00000  Uiso   1.00
H416   H     0.54479   0.80850   0.13001   0.00000  Uiso   1.00
N417   N     0.50000   0.75001   0.12935   0.00000  Uiso   1.00
N418   N     0.50000   0.74999   0.37065   0.00000  Uiso   1.00
O419   O     0.50000   0.68573   0.29071   0.00000  Uiso   1.00
O420   O     0.34446   0.76740   0.31423   0.00000  Uiso   1.00
O421   O     0.55941   0.52662   0.18578   0.00000  Uiso   1.00
O422   O     0.54367   0.97417   0.33601   0.00000  Uiso   1.00
O423   O     0.50000   0.81428   0.20928   0.00000  Uiso   1.00
O424   O     0.50000   0.68573   0.20928   0.00000  Uiso   1.00
O425   O     0.50000   0.81427   0.29072   0.00000  Uiso   1.00
O426   O     0.42495   0.75000   0.28132   0.00000  Uiso   1.00
O427   O     0.57505   0.75001   0.21868   0.00000  Uiso   1.00
O428   O     0.42495   0.75000   0.19988   0.00000  Uiso   1.00
O429   O     0.57505   0.75000   0.30011   0.00000  Uiso   1.00
O430   O     0.65554   0.73283   0.18576   0.00000  Uiso   1.00
C431   C     0.83370   0.66496   0.25008   0.00000  Uiso   1.00
C432   C     0.87336   0.77001   0.45107   0.00000  Uiso   1.00
C433   C     0.83346   0.75000   0.02738   0.00000  Uiso   1.00
C434   C     0.83338   0.75007   0.47267   0.00000  Uiso   1.00
C435   C     0.73477   0.74928   0.23775   0.00000  Uiso   1.00
C436   C     0.93189   0.75075   0.26225   0.00000  Uiso   1.00
C437   C     0.67987   0.74523   0.23133   0.00000  Uiso   1.00
C438   C     0.98679   0.75487   0.26870   0.00000  Uiso   1.00
C439   C     0.81423   0.54673   0.28463   0.00000  Uiso   1.00
C440   C     0.82214   0.95337   0.20808   0.00000  Uiso   1.00
C441   C     0.81258   0.59271   0.28471   0.00000  Uiso   1.00
C442   C     0.83382   0.83511   0.25002   0.00000  Uiso   1.00
C443   C     0.82041   0.90737   0.20755   0.00000  Uiso   1.00
C444   C     0.83582   0.61680   0.25040   0.00000  Uiso   1.00
C445   C     0.83604   0.88342   0.25031   0.00000  Uiso   1.00
C446   C     0.86188   0.59473   0.21677   0.00000  Uiso   1.00
C447   C     0.85456   0.90586   0.29335   0.00000  Uiso   1.00
C448   C     0.86577   0.54854   0.21798   0.00000  Uiso   1.00
C449   C     0.85820   0.95205   0.29367   0.00000  Uiso   1.00
C450   C     0.84044   0.52444   0.25121   0.00000  Uiso   1.00
C451   C     0.84059   0.97591   0.25104   0.00000  Uiso   1.00
C452   C     0.99101   0.68624   0.18182   0.00000  Uiso   1.00
C453   C     0.85854   0.78349   0.05714   0.00000  Uiso   1.00
C454   C     0.95851   0.67190   0.13486   0.00000  Uiso   1.00
C455   C     0.67384   0.81382   0.31878   0.00000  Uiso   1.00
C456   C     0.70550   0.82846   0.36605   0.00000  Uiso   1.00
C457   C     0.94578   0.53346   0.19998   0.00000  Uiso   1.00
C458   C     0.97577   0.50241   0.17127   0.00000  Uiso   1.00
C459   C     0.93083   0.96938   0.34428   0.00000  Uiso   1.00
C460   C     0.95268   0.50028   0.38516   0.00000  Uiso   1.00
C461   C     0.79333   0.73018   0.44101   0.00000  Uiso   1.00
C462   C     0.85834   0.78268   0.10785   0.00000  Uiso   1.00
C463   C     0.79430   0.73014   0.39040   0.00000  Uiso   1.00
C464   C     0.80849   0.71728   0.10161   0.00000  Uiso   1.00
C465   C     0.87235   0.76994   0.40020   0.00000  Uiso   1.00
C466   C     0.80843   0.71645   0.05087   0.00000  Uiso   1.00
Cu467  Cu    0.83333   0.75000   0.29821   0.00000  Uiso   1.00
Cu468  Cu    0.83333   0.75001   0.20178   0.00000  Uiso   1.00
H469   H     0.79463   0.52845   0.31034   0.00000  Uiso   1.00
H470   H     0.76343   0.71431   0.36692   0.00000  Uiso   1.00
H471   H     0.78871   0.69142   0.11881   0.00000  Uiso   1.00
H472   H     0.90318   0.78579   0.38445   0.00000  Uiso   1.00
H473   H     0.78934   0.68922   0.03052   0.00000  Uiso   1.00
H474   H     0.90579   0.78516   0.47311   0.00000  Uiso   1.00
H475   H     0.97551   0.66956   0.21273   0.00000  Uiso   1.00
H476   H     0.69782   0.67515   0.18072   0.00000  Uiso   1.00
H477   H     0.97292   0.68777   0.10313   0.00000  Uiso   1.00
H478   H     0.96034   0.63535   0.13101   0.00000  Uiso   1.00
H479   H     0.91796   0.68168   0.13547   0.00000  Uiso   1.00
H480   H     0.80845   0.97148   0.17510   0.00000  Uiso   1.00
H481   H     0.96662   0.82376   0.31983   0.00000  Uiso   1.00
H482   H     0.68887   0.83136   0.28814   0.00000  Uiso   1.00
H483   H     0.74654   0.82039   0.36536   0.00000  Uiso   1.00
H484   H     0.70176   0.86480   0.37055   0.00000  Uiso   1.00
H485   H     0.69184   0.81136   0.39744   0.00000  Uiso   1.00
H486   H     0.95703   0.52631   0.23947   0.00000  Uiso   1.00
H487   H     0.95668   0.56813   0.19215   0.00000  Uiso   1.00
H488   H     0.96630   0.50912   0.13167   0.00000  Uiso   1.00
H489   H     0.68422   0.50754   0.18212   0.00000  Uiso   1.00
H490   H     0.96602   0.96745   0.17876   0.00000  Uiso   1.00
H491   H     0.79218   0.60943   0.31079   0.00000  Uiso   1.00
H492   H     0.94870   0.97823   0.31126   0.00000  Uiso   1.00
H493   H     0.94140   0.93479   0.35537   0.00000  Uiso   1.00
H494   H     0.93639   0.99196   0.41901   0.00000  Uiso   1.00
H495   H     0.99503   0.99677   0.39208   0.00000  Uiso   1.00
H496   H     0.94313   0.53516   0.37485   0.00000  Uiso   1.00
H497   H     0.80590   0.89057   0.17399   0.00000  Uiso   1.00
H498   H     0.88010   0.61331   0.19030   0.00000  Uiso   1.00
H499   H     0.86694   0.88764   0.32657   0.00000  Uiso   1.00
H500   H     0.87770   0.81070   0.04157   0.00000  Uiso   1.00
H501   H     0.76088   0.71511   0.45489   0.00000  Uiso   1.00
H502   H     0.87812   0.80850   0.13001   0.00000  Uiso   1.00
N503   N     0.83333   0.75001   0.12935   0.00000  Uiso   1.00
N504   N     0.83333   0.74999   0.37065   0.00000  Uiso   1.00
O505   O     0.83334   0.68573   0.29071   0.00000  Uiso   1.00
O506   O     0.67780   0.76740   0.31423   0.00000  Uiso   1.00
O507   O     0.89274   0.52662   0.18578   0.00000  Uiso   1.00
O508   O     0.87700   0.97417   0.33601   0.00000  Uiso   1.00
O509   O     0.83333   0.81428   0.20928   0.00000  Uiso   1.00
O510   O     0.83334   0.68573   0.20928   0.00000  Uiso   1.00
O511   O     0.83333   0.81427   0.29072   0.00000  Uiso   1.00
O512   O     0.75828   0.75000   0.28132   0.00000  Uiso   1.00
O513   O     0.90839   0.75001   0.21868   0.00000  Uiso   1.00
O514   O     0.75828   0.75000   0.19988   0.00000  Uiso   1.00
O515   O     0.90839   0.75000   0.30011   0.00000  Uiso   1.00
O516   O     0.98887   0.73283   0.18576   0.00000  Uiso   1.00
C517   C     0.16704   0.16496   0.75008   0.00000  Uiso   1.00
C518   C     0.20669   0.27001   0.95107   0.00000  Uiso   1.00
C519   C     0.16680   0.25000   0.52738   0.00000  Uiso   1.00
C520   C     0.16672   0.25007   0.97267   0.00000  Uiso   1.00
C521   C     0.06810   0.24928   0.73775   0.00000  Uiso   1.00
C522   C     0.26522   0.25075   0.76225   0.00000  Uiso   1.00
C523   C     0.01320   0.24523   0.73133   0.00000  Uiso   1.00
C524   C     0.32012   0.25487   0.76870   0.00000  Uiso   1.00
C525   C     0.14756   0.04673   0.78463   0.00000  Uiso   1.00
C526   C     0.15547   0.45337   0.70808   0.00000  Uiso   1.00
C527   C     0.14591   0.09271   0.78471   0.00000  Uiso   1.00
C528   C     0.16715   0.33511   0.75002   0.00000  Uiso   1.00
C529   C     0.15374   0.40737   0.70755   0.00000  Uiso   1.00
C530   C     0.16915   0.11680   0.75040   0.00000  Uiso   1.00
C531   C     0.16938   0.38342   0.75031   0.00000  Uiso   1.00
C532   C     0.19521   0.09473   0.71677   0.00000  Uiso   1.00
C533   C     0.18790   0.40586   0.79335   0.00000  Uiso   1.00
C534   C     0.19911   0.04854   0.71798   0.00000  Uiso   1.00
C535   C     0.19154   0.45205   0.79367   0.00000  Uiso   1.00
C536   C     0.17377   0.02444   0.75121   0.00000  Uiso   1.00
C537   C     0.17392   0.47591   0.75104   0.00000  Uiso   1.00
C538   C     0.32434   0.18624   0.68182   0.00000  Uiso   1.00
C539   C     0.19187   0.28349   0.55714   0.00000  Uiso   1.00
C540   C     0.29184   0.17190   0.63486   0.00000  Uiso   1.00
C541   C     0.00717   0.31382   0.81878   0.00000  Uiso   1.00
C542   C     0.03884   0.32846   0.86605   0.00000  Uiso   1.00
C543   C     0.27911   0.03346   0.69998   0.00000  Uiso   1.00
C544   C     0.30910   0.00241   0.67127   0.00000  Uiso   1.00
C545   C     0.26416   0.46938   0.84428   0.00000  Uiso   1.00
C546   C     0.28601   0.00028   0.88516   0.00000  Uiso   1.00
C547   C     0.12666   0.23018   0.94101   0.00000  Uiso   1.00
C548   C     0.19167   0.28268   0.60785   0.00000  Uiso   1.00
C549   C     0.12764   0.23014   0.89040   0.00000  Uiso   1.00
C550   C     0.14182   0.21728   0.60161   0.00000  Uiso   1.00
C551   C     0.20569   0.26994   0.90020   0.00000  Uiso   1.00
C552   C     0.14177   0.21645   0.55087   0.00000  Uiso   1.00
Cu553  Cu    0.16667   0.25000   0.79821   0.00000  Uiso   1.00
Cu554  Cu    0.16667   0.25001   0.70178   0.00000  Uiso   1.00
H555   H     0.12797   0.02845   0.81034   0.00000  Uiso   1.00
H556   H     0.09676   0.21431   0.86692   0.00000  Uiso   1.00
H557   H     0.12204   0.19142   0.61881   0.00000  Uiso   1.00
H558   H     0.23651   0.28579   0.88445   0.00000  Uiso   1.00
H559   H     0.12268   0.18922   0.53052   0.00000  Uiso   1.00
H560   H     0.23912   0.28516   0.97311   0.00000  Uiso   1.00
H561   H     0.30884   0.16956   0.71273   0.00000  Uiso   1.00
H562   H     0.03115   0.17515   0.68072   0.00000  Uiso   1.00
H563   H     0.30625   0.18777   0.60313   0.00000  Uiso   1.00
H564   H     0.29368   0.13535   0.63101   0.00000  Uiso   1.00
H565   H     0.25130   0.18168   0.63547   0.00000  Uiso   1.00
H566   H     0.14178   0.47148   0.67510   0.00000  Uiso   1.00
H567   H     0.29996   0.32376   0.81983   0.00000  Uiso   1.00
H568   H     0.02220   0.33136   0.78814   0.00000  Uiso   1.00
H569   H     0.07987   0.32039   0.86536   0.00000  Uiso   1.00
H570   H     0.03509   0.36480   0.87055   0.00000  Uiso   1.00
H571   H     0.02517   0.31136   0.89744   0.00000  Uiso   1.00
H572   H     0.29037   0.02631   0.73947   0.00000  Uiso   1.00
H573   H     0.29001   0.06813   0.69215   0.00000  Uiso   1.00
H574   H     0.29963   0.00912   0.63167   0.00000  Uiso   1.00
H575   H     0.01756   0.00754   0.68212   0.00000  Uiso   1.00
H576   H     0.29935   0.46745   0.67876   0.00000  Uiso   1.00
H577   H     0.12551   0.10943   0.81079   0.00000  Uiso   1.00
H578   H     0.28203   0.47823   0.81126   0.00000  Uiso   1.00
H579   H     0.27473   0.43479   0.85537   0.00000  Uiso   1.00
H580   H     0.26973   0.49196   0.91901   0.00000  Uiso   1.00
H581   H     0.32836   0.49677   0.89208   0.00000  Uiso   1.00
H582   H     0.27646   0.03516   0.87485   0.00000  Uiso   1.00
H583   H     0.13923   0.39057   0.67399   0.00000  Uiso   1.00
H584   H     0.21344   0.11331   0.69030   0.00000  Uiso   1.00
H585   H     0.20028   0.38764   0.82657   0.00000  Uiso   1.00
H586   H     0.21103   0.31070   0.54157   0.00000  Uiso   1.00
H587   H     0.09422   0.21511   0.95489   0.00000  Uiso   1.00
H588   H     0.21146   0.30850   0.63001   0.00000  Uiso   1.00
N589   N     0.16667   0.25001   0.62935   0.00000  Uiso   1.00
N590   N     0.16667   0.24999   0.87065   0.00000  Uiso   1.00
O591   O     0.16667   0.18573   0.79071   0.00000  Uiso   1.00
O592   O     0.01113   0.26740   0.81423   0.00000  Uiso   1.00
O593   O     0.22607   0.02662   0.68578   0.00000  Uiso   1.00
O594   O     0.21033   0.47417   0.83601   0.00000  Uiso   1.00
O595   O     0.16666   0.31428   0.70928   0.00000  Uiso   1.00
O596   O     0.16667   0.18573   0.70928   0.00000  Uiso   1.00
O597   O     0.16666   0.31427   0.79072   0.00000  Uiso   1.00
O598   O     0.09161   0.25000   0.78132   0.00000  Uiso   1.00
O599   O     0.24172   0.25001   0.71868   0.00000  Uiso   1.00
O600   O     0.09161   0.25000   0.69988   0.00000  Uiso   1.00
O601   O     0.24172   0.25000   0.80011   0.00000  Uiso   1.00
O602   O     0.32221   0.23283   0.68576   0.00000  Uiso   1.00
C603   C     0.50037   0.16496   0.75008   0.00000  Uiso   1.00
C604   C     0.54002   0.27001   0.95107   0.00000  Uiso   1.00
C605   C     0.50013   0.25000   0.52738   0.00000  Uiso   1.00
C606   C     0.50005   0.25007   0.97267   0.00000  Uiso   1.00
C607   C     0.40144   0.24928   0.73775   0.00000  Uiso   1.00
C608   C     0.59856   0.25075   0.76225   0.00000  Uiso   1.00
C609   C     0.34654   0.24523   0.73133   0.00000  Uiso   1.00
C610   C     0.65346   0.25487   0.76870   0.00000  Uiso   1.00
C611   C     0.48090   0.04673   0.78463   0.00000  Uiso   1.00
C612   C     0.48880   0.45337   0.70808   0.00000  Uiso   1.00
C613   C     0.47925   0.09271   0.78471   0.00000  Uiso   1.00
C614   C     0.50048   0.33511   0.75002   0.00000  Uiso   1.00
C615   C     0.48707   0.40737   0.70755   0.00000  Uiso   1.00
C616   C     0.50248   0.11680   0.75040   0.00000  Uiso   1.00
C617   C     0.50271   0.38342   0.75031   0.00000  Uiso   1.00
C618   C     0.52854   0.09473   0.71677   0.00000  Uiso   1.00
C619   C     0.52123   0.40586   0.79335   0.00000  Uiso   1.00
C620   C     0.53244   0.04854   0.71798   0.00000  Uiso   1.00
C621   C     0.52487   0.45205   0.79367   0.00000  Uiso   1.00
C622   C     0.50710   0.02444   0.75121   0.00000  Uiso   1.00
C623   C     0.50725   0.47591   0.75104   0.00000  Uiso   1.00
C624   C     0.65768   0.18624   0.68182   0.00000  Uiso   1.00
C625   C     0.52521   0.28349   0.55714   0.00000  Uiso   1.00
C626   C     0.62517   0.17190   0.63486   0.00000  Uiso   1.00
C627   C     0.34051   0.31382   0.81878   0.00000  Uiso   1.00
C628   C     0.37217   0.32846   0.86605   0.00000  Uiso   1.00
C629   C     0.61245   0.03346   0.69998   0.00000  Uiso   1.00
C630   C     0.64243   0.00241   0.67127   0.00000  Uiso   1.00
C631   C     0.59749   0.46938   0.84428   0.00000  Uiso   1.00
C632   C     0.61935   0.00028   0.88516   0.00000  Uiso   1.00
C633   C     0.45999   0.23018   0.94101   0.00000  Uiso   1.00
C634   C     0.52501   0.28268   0.60785   0.00000  Uiso   1.00
C635   C     0.46097   0.23014   0.89040   0.00000  Uiso   1.00
C636   C     0.47515   0.21728   0.60161   0.00000  Uiso   1.00
C637   C     0.53902   0.26994   0.90020   0.00000  Uiso   1.00
C638   C     0.47510   0.21645   0.55087   0.00000  Uiso   1.00
Cu639  Cu    0.50000   0.25000   0.79821   0.00000  Uiso   1.00
Cu640  Cu    0.50000   0.25001   0.70178   0.00000  Uiso   1.00
H641   H     0.46130   0.02845   0.81034   0.00000  Uiso   1.00
H642   H     0.43010   0.21431   0.86692   0.00000  Uiso   1.00
H643   H     0.45538   0.19142   0.61881   0.00000  Uiso   1.00
H644   H     0.56985   0.28579   0.88445   0.00000  Uiso   1.00
H645   H     0.45601   0.18922   0.53052   0.00000  Uiso   1.00
H646   H     0.57246   0.28516   0.97311   0.00000  Uiso   1.00
H647   H     0.64218   0.16956   0.71273   0.00000  Uiso   1.00
H648   H     0.36448   0.17515   0.68072   0.00000  Uiso   1.00
H649   H     0.63958   0.18777   0.60313   0.00000  Uiso   1.00
H650   H     0.62701   0.13535   0.63101   0.00000  Uiso   1.00
H651   H     0.58463   0.18168   0.63547   0.00000  Uiso   1.00
H652   H     0.47512   0.47148   0.67510   0.00000  Uiso   1.00
H653   H     0.63329   0.32376   0.81983   0.00000  Uiso   1.00
H654   H     0.35553   0.33136   0.78814   0.00000  Uiso   1.00
H655   H     0.41321   0.32039   0.86536   0.00000  Uiso   1.00
H656   H     0.36843   0.36480   0.87055   0.00000  Uiso   1.00
H657   H     0.35851   0.31136   0.89744   0.00000  Uiso   1.00
H658   H     0.62370   0.02631   0.73947   0.00000  Uiso   1.00
H659   H     0.62335   0.06813   0.69215   0.00000  Uiso   1.00
H660   H     0.63296   0.00912   0.63167   0.00000  Uiso   1.00
H661   H     0.35089   0.00754   0.68212   0.00000  Uiso   1.00
H662   H     0.63269   0.46745   0.67876   0.00000  Uiso   1.00
H663   H     0.45884   0.10943   0.81079   0.00000  Uiso   1.00
H664   H     0.61536   0.47823   0.81126   0.00000  Uiso   1.00
H665   H     0.60806   0.43479   0.85537   0.00000  Uiso   1.00
H666   H     0.60306   0.49196   0.91901   0.00000  Uiso   1.00
H667   H     0.66169   0.49677   0.89208   0.00000  Uiso   1.00
H668   H     0.60979   0.03516   0.87485   0.00000  Uiso   1.00
H669   H     0.47256   0.39057   0.67399   0.00000  Uiso   1.00
H670   H     0.54677   0.11331   0.69030   0.00000  Uiso   1.00
H671   H     0.53361   0.38764   0.82657   0.00000  Uiso   1.00
H672   H     0.54436   0.31070   0.54157   0.00000  Uiso   1.00
H673   H     0.42755   0.21511   0.95489   0.00000  Uiso   1.00
H674   H     0.54479   0.30850   0.63001   0.00000  Uiso   1.00
N675   N     0.50000   0.25001   0.62935   0.00000  Uiso   1.00
N676   N     0.50000   0.24999   0.87065   0.00000  Uiso   1.00
O677   O     0.50000   0.18573   0.79071   0.00000  Uiso   1.00
O678   O     0.34446   0.26740   0.81423   0.00000  Uiso   1.00
O679   O     0.55941   0.02662   0.68578   0.00000  Uiso   1.00
O680   O     0.54367   0.47417   0.83601   0.00000  Uiso   1.00
O681   O     0.50000   0.31428   0.70928   0.00000  Uiso   1.00
O682   O     0.50000   0.18573   0.70928   0.00000  Uiso   1.00
O683   O     0.50000   0.31427   0.79072   0.00000  Uiso   1.00
O684   O     0.42495   0.25000   0.78132   0.00000  Uiso   1.00
O685   O     0.57505   0.25001   0.71868   0.00000  Uiso   1.00
O686   O     0.42495   0.25000   0.69988   0.00000  Uiso   1.00
O687   O     0.57505   0.25000   0.80011   0.00000  Uiso   1.00
O688   O     0.65554   0.23283   0.68576   0.00000  Uiso   1.00
C689   C     0.83370   0.16496   0.75008   0.00000  Uiso   1.00
C690   C     0.87336   0.27001   0.95107   0.00000  Uiso   1.00
C691   C     0.83346   0.25000   0.52738   0.00000  Uiso   1.00
C692   C     0.83338   0.25007   0.97267   0.00000  Uiso   1.00
C693   C     0.73477   0.24928   0.73775   0.00000  Uiso   1.00
C694   C     0.93189   0.25075   0.76225   0.00000  Uiso   1.00
C695   C     0.67987   0.24523   0.73133   0.00000  Uiso   1.00
C696   C     0.98679   0.25487   0.76870   0.00000  Uiso   1.00
C697   C     0.81423   0.04673   0.78463   0.00000  Uiso   1.00
C698   C     0.82214   0.45337   0.70808   0.00000  Uiso   1.00
C699   C     0.81258   0.09271   0.78471   0.00000  Uiso   1.00
C700   C     0.83382   0.33511   0.75002   0.00000  Uiso   1.00
C701   C     0.82041   0.40737   0.70755   0.00000  Uiso   1.00
C702   C     0.83582   0.11680   0.75040   0.00000  Uiso   1.00
C703   C     0.83604   0.38342   0.75031   0.00000  Uiso   1.00
C704   C     0.86188   0.09473   0.71677   0.00000  Uiso   1.00
C705   C     0.85456   0.40586   0.79335   0.00000  Uiso   1.00
C706   C     0.86577   0.04854   0.71798   0.00000  Uiso   1.00
C707   C     0.85820   0.45205   0.79367   0.00000  Uiso   1.00
C708   C     0.84044   0.02444   0.75121   0.00000  Uiso   1.00
C709   C     0.84059   0.47591   0.75104   0.00000  Uiso   1.00
C710   C     0.99101   0.18624   0.68182   0.00000  Uiso   1.00
C711   C     0.85854   0.28349   0.55714   0.00000  Uiso   1.00
C712   C     0.95851   0.17190   0.63486   0.00000  Uiso   1.00
C713   C     0.67384   0.31382   0.81878   0.00000  Uiso   1.00
C714   C     0.70550   0.32846   0.86605   0.00000  Uiso   1.00
C715   C     0.94578   0.03346   0.69998   0.00000  Uiso   1.00
C716   C     0.97577   0.00241   0.67127   0.00000  Uiso   1.00
C717   C     0.93083   0.46938   0.84428   0.00000  Uiso   1.00
C718   C     0.95268   0.00028   0.88516   0.00000  Uiso   1.00
C719   C     0.79333   0.23018   0.94101   0.00000  Uiso   1.00
C720   C     0.85834   0.28268   0.60785   0.00000  Uiso   1.00
C721   C     0.79430   0.23014   0.89040   0.00000  Uiso   1.00
C722   C     0.80849   0.21728   0.60161   0.00000  Uiso   1.00
C723   C     0.87235   0.26994   0.90020   0.00000  Uiso   1.00
C724   C     0.80843   0.21645   0.55087   0.00000  Uiso   1.00
Cu725  Cu    0.83333   0.25000   0.79821   0.00000  Uiso   1.00
Cu726  Cu    0.83333   0.25001   0.70178   0.00000  Uiso   1.00
H727   H     0.79463   0.02845   0.81034   0.00000  Uiso   1.00
H728   H     0.76343   0.21431   0.86692   0.00000  Uiso   1.00
H729   H     0.78871   0.19142   0.61881   0.00000  Uiso   1.00
H730   H     0.90318   0.28579   0.88445   0.00000  Uiso   1.00
H731   H     0.78934   0.18922   0.53052   0.00000  Uiso   1.00
H732   H     0.90579   0.28516   0.97311   0.00000  Uiso   1.00
H733   H     0.97551   0.16956   0.71273   0.00000  Uiso   1.00
H734   H     0.69782   0.17515   0.68072   0.00000  Uiso   1.00
H735   H     0.97292   0.18777   0.60313   0.00000  Uiso   1.00
H736   H     0.96034   0.13535   0.63101   0.00000  Uiso   1.00
H737   H     0.91796   0.18168   0.63547   0.00000  Uiso   1.00
H738   H     0.80845   0.47148   0.67510   0.00000  Uiso   1.00
H739   H     0.96662   0.32376   0.81983   0.00000  Uiso   1.00
H740   H     0.68887   0.33136   0.78814   0.00000  Uiso   1.00
H741   H     0.74654   0.32039   0.86536   0.00000  Uiso   1.00
H742   H     0.70176   0.36480   0.87055   0.00000  Uiso   1.00
H743   H     0.69184   0.31136   0.89744   0.00000  Uiso   1.00
H744   H     0.95703   0.02631   0.73947   0.00000  Uiso   1.00
H745   H     0.95668   0.06813   0.69215   0.00000  Uiso   1.00
H746   H     0.96630   0.00912   0.63167   0.00000  Uiso   1.00
H747   H     0.68422   0.00754   0.68212   0.00000  Uiso   1.00
H748   H     0.96602   0.46745   0.67876   0.00000  Uiso   1.00
H749   H     0.79218   0.10943   0.81079   0.00000  Uiso   1.00
H750   H     0.94870   0.47823   0.81126   0.00000  Uiso   1.00
H751   H     0.94140   0.43479   0.85537   0.00000  Uiso   1.00
H752   H     0.93639   0.49196   0.91901   0.00000  Uiso   1.00
H753   H     0.99503   0.49677   0.89208   0.00000  Uiso   1.00
H754   H     0.94313   0.03516   0.87485   0.00000  Uiso   1.00
H755   H     0.80590   0.39057   0.67399   0.00000  Uiso   1.00
H756   H     0.88010   0.11331   0.69030   0.00000  Uiso   1.00
H757   H     0.86694   0.38764   0.82657   0.00000  Uiso   1.00
H758   H     0.87770   0.31070   0.54157   0.00000  Uiso   1.00
H759   H     0.76088   0.21511   0.95489   0.00000  Uiso   1.00
H760   H     0.87812   0.30850   0.63001   0.00000  Uiso   1.00
N761   N     0.83333   0.25001   0.62935   0.00000  Uiso   1.00
N762   N     0.83333   0.24999   0.87065   0.00000  Uiso   1.00
O763   O     0.83334   0.18573   0.79071   0.00000  Uiso   1.00
O764   O     0.67780   0.26740   0.81423   0.00000  Uiso   1.00
O765   O     0.89274   0.02662   0.68578   0.00000  Uiso   1.00
O766   O     0.87700   0.47417   0.83601   0.00000  Uiso   1.00
O767   O     0.83333   0.31428   0.70928   0.00000  Uiso   1.00
O768   O     0.83334   0.18573   0.70928   0.00000  Uiso   1.00
O769   O     0.83333   0.31427   0.79072   0.00000  Uiso   1.00
O770   O     0.75828   0.25000   0.78132   0.00000  Uiso   1.00
O771   O     0.90839   0.25001   0.71868   0.00000  Uiso   1.00
O772   O     0.75828   0.25000   0.69988   0.00000  Uiso   1.00
O773   O     0.90839   0.25000   0.80011   0.00000  Uiso   1.00
O774   O     0.98887   0.23283   0.68576   0.00000  Uiso   1.00
C775   C     0.16704   0.66496   0.75008   0.00000  Uiso   1.00
C776   C     0.20669   0.77001   0.95107   0.00000  Uiso   1.00
C777   C     0.16680   0.75000   0.52738   0.00000  Uiso   1.00
C778   C     0.16672   0.75007   0.97267   0.00000  Uiso   1.00
C779   C     0.06810   0.74928   0.73775   0.00000  Uiso   1.00
C780   C     0.26522   0.75075   0.76225   0.00000  Uiso   1.00
C781   C     0.01320   0.74523   0.73133   0.00000  Uiso   1.00
C782   C     0.32012   0.75487   0.76870   0.00000  Uiso   1.00
C783   C     0.14756   0.54673   0.78463   0.00000  Uiso   1.00
C784   C     0.15547   0.95337   0.70808   0.00000  Uiso   1.00
C785   C     0.14591   0.59271   0.78471   0.00000  Uiso   1.00
C786   C     0.16715   0.83511   0.75002   0.00000  Uiso   1.00
C787   C     0.15374   0.90737   0.70755   0.00000  Uiso   1.00
C788   C     0.16915   0.61680   0.75040   0.00000  Uiso   1.00
C789   C     0.16938   0.88342   0.75031   0.00000  Uiso   1.00
C790   C     0.19521   0.59473   0.71677   0.00000  Uiso   1.00
C791   C     0.18790   0.90586   0.79335   0.00000  Uiso   1.00
C792   C     0.19911   0.54854   0.71798   0.00000  Uiso   1.00
C793   C     0.19154   0.95205   0.79367   0.00000  Uiso   1.00
C794   C     0.17377   0.52444   0.75121   0.00000  Uiso   1.00
C795   C     0.17392   0.97591   0.75104   0.00000  Uiso   1.00
C796   C     0.32434   0.68624   0.68182   0.00000  Uiso   1.00
C797   C     0.19187   0.78349   0.55714   0.00000  Uiso   1.00
C798   C     0.29184   0.67190   0.63486   0.00000  Uiso   1.00
C799   C     0.00717   0.81382   0.81878   0.00000  Uiso   1.00
C800   C     0.03884   0.82846   0.86605   0.00000  Uiso   1.00
C801   C     0.27911   0.53346   0.69998   0.00000  Uiso   1.00
C802   C     0.30910   0.50241   0.67127   0.00000  Uiso   1.00
C803   C     0.26416   0.96938   0.84428   0.00000  Uiso   1.00
C804   C     0.28601   0.50028   0.88516   0.00000  Uiso   1.00
C805   C     0.12666   0.73018   0.94101   0.00000  Uiso   1.00
C806   C     0.19167   0.78268   0.60785   0.00000  Uiso   1.00
C807   C     0.12764   0.73014   0.89040   0.00000  Uiso   1.00
C808   C     0.14182   0.71728   0.60161   0.00000  Uiso   1.00
C809   C     0.20569   0.76994   0.90020   0.00000  Uiso   1.00
C810   C     0.14177   0.71645   0.55087   0.00000  Uiso   1.00
Cu811  Cu    0.16667   0.75000   0.79821   0.00000  Uiso   1.00
Cu812  Cu    0.16667   0.75001   0.70178   0.00000  Uiso   1.00
H813   H     0.12797   0.52845   0.81034   0.00000  Uiso   1.00
H814   H     0.09676   0.71431   0.86692   0.00000  Uiso   1.00
H815   H     0.12204   0.69142   0.61881   0.00000  Uiso   1.00
H816   H     0.23651   0.78579   0.88445   0.00000  Uiso   1.00
H817   H     0.12268   0.68922   0.53052   0.00000  Uiso   1.00
H818   H     0.23912   0.78516   0.97311   0.00000  Uiso   1.00
H819   H     0.30884   0.66956   0.71273   0.00000  Uiso   1.00
H820   H     0.03115   0.67515   0.68072   0.00000  Uiso   1.00
H821   H     0.30625   0.68777   0.60313   0.00000  Uiso   1.00
H822   H     0.29368   0.63535   0.63101   0.00000  Uiso   1.00
H823   H     0.25130   0.68168   0.63547   0.00000  Uiso   1.00
H824   H     0.14178   0.97148   0.67510   0.00000  Uiso   1.00
H825   H     0.29996   0.82376   0.81983   0.00000  Uiso   1.00
H826   H     0.02220   0.83136   0.78814   0.00000  Uiso   1.00
H827   H     0.07987   0.82039   0.86536   0.00000  Uiso   1.00
H828   H     0.03509   0.86480   0.87055   0.00000  Uiso   1.00
H829   H     0.02517   0.81136   0.89744   0.00000  Uiso   1.00
H830   H     0.29037   0.52631   0.73947   0.00000  Uiso   1.00
H831   H     0.29001   0.56813   0.69215   0.00000  Uiso   1.00
H832   H     0.29963   0.50912   0.63167   0.00000  Uiso   1.00
H833   H     0.01756   0.50754   0.68212   0.00000  Uiso   1.00
H834   H     0.29935   0.96745   0.67876   0.00000  Uiso   1.00
H835   H     0.12551   0.60943   0.81079   0.00000  Uiso   1.00
H836   H     0.28203   0.97823   0.81126   0.00000  Uiso   1.00
H837   H     0.27473   0.93479   0.85537   0.00000  Uiso   1.00
H838   H     0.26973   0.99196   0.91901   0.00000  Uiso   1.00
H839   H     0.32836   0.99677   0.89208   0.00000  Uiso   1.00
H840   H     0.27646   0.53516   0.87485   0.00000  Uiso   1.00
H841   H     0.13923   0.89057   0.67399   0.00000  Uiso   1.00
H842   H     0.21344   0.61331   0.69030   0.00000  Uiso   1.00
H843   H     0.20028   0.88764   0.82657   0.00000  Uiso   1.00
H844   H     0.21103   0.81070   0.54157   0.00000  Uiso   1.00
H845   H     0.09422   0.71511   0.95489   0.00000  Uiso   1.00
H846   H     0.21146   0.80850   0.63001   0.00000  Uiso   1.00
N847   N     0.16667   0.75001   0.62935   0.00000  Uiso   1.00
N848   N     0.16667   0.74999   0.87065   0.00000  Uiso   1.00
O849   O     0.16667   0.68573   0.79071   0.00000  Uiso   1.00
O850   O     0.01113   0.76740   0.81423   0.00000  Uiso   1.00
O851   O     0.22607   0.52662   0.68578   0.00000  Uiso   1.00
O852   O     0.21033   0.97417   0.83601   0.00000  Uiso   1.00
O853   O     0.16666   0.81428   0.70928   0.00000  Uiso   1.00
O854   O     0.16667   0.68573   0.70928   0.00000  Uiso   1.00
O855   O     0.16666   0.81427   0.79072   0.00000  Uiso   1.00
O856   O     0.09161   0.75000   0.78132   0.00000  Uiso   1.00
O857   O     0.24172   0.75001   0.71868   0.00000  Uiso   1.00
O858   O     0.09161   0.75000   0.69988   0.00000  Uiso   1.00
O859   O     0.24172   0.75000   0.80011   0.00000  Uiso   1.00
O860   O     0.32221   0.73283   0.68576   0.00000  Uiso   1.00
C861   C     0.50037   0.66496   0.75008   0.00000  Uiso   1.00
C862   C     0.54002   0.77001   0.95107   0.00000  Uiso   1.00
C863   C     0.50013   0.75000   0.52738   0.00000  Uiso   1.00
C864   C     0.50005   0.75007   0.97267   0.00000  Uiso   1.00
C865   C     0.40144   0.74928   0.73775   0.00000  Uiso   1.00
C866   C     0.59856   0.75075   0.76225   0.00000  Uiso   1.00
C867   C     0.34654   0.74523   0.73133   0.00000  Uiso   1.00
C868   C     0.65346   0.75487   0.76870   0.00000  Uiso   1.00
C869   C     0.48090   0.54673   0.78463   0.00000  Uiso   1.00
C870   C     0.48880   0.95337   0.70808   0.00000  Uiso   1.00
C871   C     0.47925   0.59271   0.78471   0.00000  Uiso   1.00
C872   C     0.50048   0.83511   0.75002   0.00000  Uiso   1.00
C873   C     0.48707   0.90737   0.70755   0.00000  Uiso   1.00
C874   C     0.50248   0.61680   0.75040   0.00000  Uiso   1.00
C875   C     0.50271   0.88342   0.75031   0.00000  Uiso   1.00
C876   C     0.52854   0.59473   0.71677   0.00000  Uiso   1.00
C877   C     0.52123   0.90586   0.79335   0.00000  Uiso   1.00
C878   C     0.53244   0.54854   0.71798   0.00000  Uiso   1.00
C879   C     0.52487   0.95205   0.79367   0.00000  Uiso   1.00
C880   C     0.50710   0.52444   0.75121   0.00000  Uiso   1.00
C881   C     0.50725   0.97591   0.75104   0.00000  Uiso   1.00
C882   C     0.65768   0.68624   0.68182   0.00000  Uiso   1.00
C883   C     0.52521   0.78349   0.55714   0.00000  Uiso   1.00
C884   C     0.62517   0.67190   0.63486   0.00000  Uiso   1.00
C885   C     0.34051   0.81382   0.81878   0.00000  Uiso   1.00
C886   C     0.37217   0.82846   0.86605   0.00000  Uiso   1.00
C887   C     0.61245   0.53346   0.69998   0.00000  Uiso   1.00
C888   C     0.64243   0.50241   0.67127   0.00000  Uiso   1.00
C889   C     0.59749   0.96938   0.84428   0.00000  Uiso   1.00
C890   C     0.61935   0.50028   0.88516   0.00000  Uiso   1.00
C891   C     0.45999   0.73018   0.94101   0.00000  Uiso   1.00
C892   C     0.52501   0.78268   0.60785   0.00000  Uiso   1.00
C893   C     0.46097   0.73014   0.89040   0.00000  Uiso   1.00
C894   C     0.47515   0.71728   0.60161   0.00000  Uiso   1.00
C895   C     0.53902   0.76994   0.90020   0.00000  Uiso   1.00
C896   C     0.47510   0.71645   0.55087   0.00000  Uiso   1.00
Cu897  Cu    0.50000   0.75000   0.79821   0.00000  Uiso   1.00
Cu898  Cu    0.50000   0.75001   0.70178   0.00000  Uiso   1.00
H899   H     0.46130   0.52845   0.81034   0.00000  Uiso   1.00
H900   H     0.43010   0.71431   0.86692   0.00000  Uiso   1.00
H901   H     0.45538   0.69142   0.61881   0.00000  Uiso   1.00
H902   H     0.56985   0.78579   0.88445   0.00000  Uiso   1.00
H903   H     0.45601   0.68922   0.53052   0.00000  Uiso   1.00
H904   H     0.57246   0.78516   0.97311   0.00000  Uiso   1.00
H905   H     0.64218   0.66956   0.71273   0.00000  Uiso   1.00
H906   H     0.36448   0.67515   0.68072   0.00000  Uiso   1.00
H907   H     0.63958   0.68777   0.60313   0.00000  Uiso   1.00
H908   H     0.62701   0.63535   0.63101   0.00000  Uiso   1.00
H909   H     0.58463   0.68168   0.63547   0.00000  Uiso   1.00
H910   H     0.47512   0.97148   0.67510   0.00000  Uiso   1.00
H911   H     0.63329   0.82376   0.81983   0.00000  Uiso   1.00
H912   H     0.35553   0.83136   0.78814   0.00000  Uiso   1.00
H913   H     0.41321   0.82039   0.86536   0.00000  Uiso   1.00
H914   H     0.36843   0.86480   0.87055   0.00000  Uiso   1.00
H915   H     0.35851   0.81136   0.89744   0.00000  Uiso   1.00
H916   H     0.62370   0.52631   0.73947   0.00000  Uiso   1.00
H917   H     0.62335   0.56813   0.69215   0.00000  Uiso   1.00
H918   H     0.63296   0.50912   0.63167   0.00000  Uiso   1.00
H919   H     0.35089   0.50754   0.68212   0.00000  Uiso   1.00
H920   H     0.63269   0.96745   0.67876   0.00000  Uiso   1.00
H921   H     0.45884   0.60943   0.81079   0.00000  Uiso   1.00
H922   H     0.61536   0.97823   0.81126   0.00000  Uiso   1.00
H923   H     0.60806   0.93479   0.85537   0.00000  Uiso   1.00
H924   H     0.60306   0.99196   0.91901   0.00000  Uiso   1.00
H925   H     0.66169   0.99677   0.89208   0.00000  Uiso   1.00
H926   H     0.60979   0.53516   0.87485   0.00000  Uiso   1.00
H927   H     0.47256   0.89057   0.67399   0.00000  Uiso   1.00
H928   H     0.54677   0.61331   0.69030   0.00000  Uiso   1.00
H929   H     0.53361   0.88764   0.82657   0.00000  Uiso   1.00
H930   H     0.54436   0.81070   0.54157   0.00000  Uiso   1.00
H931   H     0.42755   0.71511   0.95489   0.00000  Uiso   1.00
H932   H     0.54479   0.80850   0.63001   0.00000  Uiso   1.00
N933   N     0.50000   0.75001   0.62935   0.00000  Uiso   1.00
N934   N     0.50000   0.74999   0.87065   0.00000  Uiso   1.00
O935   O     0.50000   0.68573   0.79071   0.00000  Uiso   1.00
O936   O     0.34446   0.76740   0.81423   0.00000  Uiso   1.00
O937   O     0.55941   0.52662   0.68578   0.00000  Uiso   1.00
O938   O     0.54367   0.97417   0.83601   0.00000  Uiso   1.00
O939   O     0.50000   0.81428   0.70928   0.00000  Uiso   1.00
O940   O     0.50000   0.68573   0.70928   0.00000  Uiso   1.00
O941   O     0.50000   0.81427   0.79072   0.00000  Uiso   1.00
O942   O     0.42495   0.75000   0.78132   0.00000  Uiso   1.00
O943   O     0.57505   0.75001   0.71868   0.00000  Uiso   1.00
O944   O     0.42495   0.75000   0.69988   0.00000  Uiso   1.00
O945   O     0.57505   0.75000   0.80011   0.00000  Uiso   1.00
O946   O     0.65554   0.73283   0.68576   0.00000  Uiso   1.00
C947   C     0.83370   0.66496   0.75008   0.00000  Uiso   1.00
C948   C     0.87336   0.77001   0.95107   0.00000  Uiso   1.00
C949   C     0.83346   0.75000   0.52738   0.00000  Uiso   1.00
C950   C     0.83338   0.75007   0.97267   0.00000  Uiso   1.00
C951   C     0.73477   0.74928   0.73775   0.00000  Uiso   1.00
C952   C     0.93189   0.75075   0.76225   0.00000  Uiso   1.00
C953   C     0.67987   0.74523   0.73133   0.00000  Uiso   1.00
C954   C     0.98679   0.75487   0.76870   0.00000  Uiso   1.00
C955   C     0.81423   0.54673   0.78463   0.00000  Uiso   1.00
C956   C     0.82214   0.95337   0.70808   0.00000  Uiso   1.00
C957   C     0.81258   0.59271   0.78471   0.00000  Uiso   1.00
C958   C     0.83382   0.83511   0.75002   0.00000  Uiso   1.00
C959   C     0.82041   0.90737   0.70755   0.00000  Uiso   1.00
C960   C     0.83582   0.61680   0.75040   0.00000  Uiso   1.00
C961   C     0.83604   0.88342   0.75031   0.00000  Uiso   1.00
C962   C     0.86188   0.59473   0.71677   0.00000  Uiso   1.00
C963   C     0.85456   0.90586   0.79335   0.00000  Uiso   1.00
C964   C     0.86577   0.54854   0.71798   0.00000  Uiso   1.00
C965   C     0.85820   0.95205   0.79367   0.00000  Uiso   1.00
C966   C     0.84044   0.52444   0.75121   0.00000  Uiso   1.00
C967   C     0.84059   0.97591   0.75104   0.00000  Uiso   1.00
C968   C     0.99101   0.68624   0.68182   0.00000  Uiso   1.00
C969   C     0.85854   0.78349   0.55714   0.00000  Uiso   1.00
C970   C     0.95851   0.67190   0.63486   0.00000  Uiso   1.00
C971   C     0.67384   0.81382   0.81878   0.00000  Uiso   1.00
C972   C     0.70550   0.82846   0.86605   0.00000  Uiso   1.00
C973   C     0.94578   0.53346   0.69998   0.00000  Uiso   1.00
C974   C     0.97577   0.50241   0.67127   0.00000  Uiso   1.00
C975   C     0.93083   0.96938   0.84428   0.00000  Uiso   1.00
C976   C     0.95268   0.50028   0.88516   0.00000  Uiso   1.00
C977   C     0.79333   0.73018   0.94101   0.00000  Uiso   1.00
C978   C     0.85834   0.78268   0.60785   0.00000  Uiso   1.00
C979   C     0.79430   0.73014   0.89040   0.00000  Uiso   1.00
C980   C     0.80849   0.71728   0.60161   0.00000  Uiso   1.00
C981   C     0.87235   0.76994   0.90020   0.00000  Uiso   1.00
C982   C     0.80843   0.71645   0.55087   0.00000  Uiso   1.00
Cu983  Cu    0.83333   0.75000   0.79821   0.00000  Uiso   1.00
Cu984  Cu    0.83333   0.75001   0.70178   0.00000  Uiso   1.00
H985   H     0.79463   0.52845   0.81034   0.00000  Uiso   1.00
H986   H     0.76343   0.71431   0.86692   0.00000  Uiso   1.00
H987   H     0.78871   0.69142   0.61881   0.00000  Uiso   1.00
H988   H     0.90318   0.78579   0.88445   0.00000  Uiso   1.00
H989   H     0.78934   0.68922   0.53052   0.00000  Uiso   1.00
H990   H     0.90579   0.78516   0.97311   0.00000  Uiso   1.00
H991   H     0.97551   0.66956   0.71273   0.00000  Uiso   1.00
H992   H     0.69782   0.67515   0.68072   0.00000  Uiso   1.00
H993   H     0.97292   0.68777   0.60313   0.00000  Uiso   1.00
H994   H     0.96034   0.63535   0.63101   0.00000  Uiso   1.00
H995   H     0.91796   0.68168   0.63547   0.00000  Uiso   1.00
H996   H     0.80845   0.97148   0.67510   0.00000  Uiso   1.00
H997   H     0.96662   0.82376   0.81983   0.00000  Uiso   1.00
H998   H     0.68887   0.83136   0.78814   0.00000  Uiso   1.00
H999   H     0.74654   0.82039   0.86536   0.00000  Uiso   1.00
H1000  H     0.70176   0.86480   0.87055   0.00000  Uiso   1.00
H1001  H     0.69184   0.81136   0.89744   0.00000  Uiso   1.00
H1002  H     0.95703   0.52631   0.73947   0.00000  Uiso   1.00
H1003  H     0.95668   0.56813   0.69215   0.00000  Uiso   1.00
H1004  H     0.96630   0.50912   0.63167   0.00000  Uiso   1.00
H1005  H     0.68422   0.50754   0.68212   0.00000  Uiso   1.00
H1006  H     0.96602   0.96745   0.67876   0.00000  Uiso   1.00
H1007  H     0.79218   0.60943   0.81079   0.00000  Uiso   1.00
H1008  H     0.94870   0.97823   0.81126   0.00000  Uiso   1.00
H1009  H     0.94140   0.93479   0.85537   0.00000  Uiso   1.00
H1010  H     0.93639   0.99196   0.91901   0.00000  Uiso   1.00
H1011  H     0.99503   0.99677   0.89208   0.00000  Uiso   1.00
H1012  H     0.94313   0.53516   0.87485   0.00000  Uiso   1.00
H1013  H     0.80590   0.89057   0.67399   0.00000  Uiso   1.00
H1014  H     0.88010   0.61331   0.69030   0.00000  Uiso   1.00
H1015  H     0.86694   0.88764   0.82657   0.00000  Uiso   1.00
H1016  H     0.87770   0.81070   0.54157   0.00000  Uiso   1.00
H1017  H     0.76088   0.71511   0.95489   0.00000  Uiso   1.00
H1018  H     0.87812   0.80850   0.63001   0.00000  Uiso   1.00
N1019  N     0.83333   0.75001   0.62935   0.00000  Uiso   1.00
N1020  N     0.83333   0.74999   0.87065   0.00000  Uiso   1.00
O1021  O     0.83334   0.68573   0.79071   0.00000  Uiso   1.00
O1022  O     0.67780   0.76740   0.81423   0.00000  Uiso   1.00
O1023  O     0.89274   0.52662   0.68578   0.00000  Uiso   1.00
O1024  O     0.87700   0.97417   0.83601   0.00000  Uiso   1.00
O1025  O     0.83333   0.81428   0.70928   0.00000  Uiso   1.00
O1026  O     0.83334   0.68573   0.70928   0.00000  Uiso   1.00
O1027  O     0.83333   0.81427   0.79072   0.00000  Uiso   1.00
O1028  O     0.75828   0.75000   0.78132   0.00000  Uiso   1.00
O1029  O     0.90839   0.75001   0.71868   0.00000  Uiso   1.00
O1030  O     0.75828   0.75000   0.69988   0.00000  Uiso   1.00
O1031  O     0.90839   0.75000   0.80011   0.00000  Uiso   1.00
O1032  O     0.98887   0.73283   0.68576   0.00000  Uiso   1.00
loop_
_geom_bond_atom_site_label_1
_geom_bond_atom_site_label_2
_geom_bond_distance
_geom_bond_site_symmetry_2
_ccdc_geom_bond_type
C1     O75     1.291   .     A
C1     O80     1.290   .     A
C1     C14     1.455   .     S
C2     C35     1.407   .     A
C2     H44     1.081   .     S
C2     C4      1.411   .     A
C3     C23     1.411   .     A
C3     C36     1.411   .     A
C3     C520    1.516   1_554 S
C4     C31     1.411   .     A
C4     C519    1.516   .     S
C5     C7      1.437   .     S
C5     O84     1.288   .     A
C5     O82     1.281   .     A
C6     O85     1.288   .     A
C6     C8      1.437   .     S
C6     O83     1.281   .     A
C7     C180    1.356   1_455 S
C7     O258    1.389   1_455 S
C8     C93     1.356   .     S
C8     O162    1.389   .     S
C9     H39     1.083   .     S
C9     C20     1.402   .     A
C9     C11     1.389   .     A
C10    C21     1.401   .     A
C10    H50     1.083   .     S
C10    C13     1.389   .     A
C11    C14     1.399   .     A
C11    H61     1.083   .     S
C12    O79     1.292   .     A
C12    C15     1.459   .     S
C12    O81     1.292   .     A
C13    C15     1.401   .     A
C13    H67     1.083   .     S
C14    C16     1.401   .     A
C15    C17     1.402   .     A
C16    H68     1.084   .     S
C16    C18     1.398   .     A
C17    H69     1.084   .     S
C17    C19     1.397   .     A
C18    C20     1.408   .     A
C18    O77     1.384   .     S
C19    C21     1.407   .     A
C19    O78     1.383   .     S
C20    C279    1.465   1_545 S
C21    C278    1.465   .     S
C22    C24     1.521   .     S
C22    O86     1.413   .     S
C22    H45     1.116   .     S
C22    H132    1.114   .     S
C23    H70     1.081   .     S
C23    C32     1.406   .     A
C24    H48     1.110   .     S
C24    H49     1.111   .     S
C24    H47     1.111   .     S
C25    C26     1.521   .     S
C25    O76     1.413   .     S
C25    H52     1.115   .     S
C25    H223    1.114   1_455 S
C26    H55     1.111   .     S
C26    H54     1.111   .     S
C26    H53     1.111   .     S
C27    H57     1.113   .     S
C27    H56     1.115   .     S
C27    O77     1.413   .     S
C27    C28     1.521   .     S
C28    H58     1.111   .     S
C28    H145    1.111   .     S
C28    H318    1.111   1_545 S
C29    H63     1.113   .     S
C29    O78     1.412   .     S
C29    H62     1.115   .     S
C29    C288    1.520   .     S
C30    H66     1.111   .     S
C30    C287    1.520   1_545 S
C30    H322    1.111   1_545 S
C30    H323    1.111   1_545 S
C31    C33     1.406   .     A
C31    H71     1.081   .     S
C32    H72     1.081   .     S
C32    N73     1.363   .     A
C33    H40     1.081   .     S
C33    N74     1.364   .     A
C34    H41     1.082   .     S
C34    C36     1.406   .     A
C34    N73     1.363   .     A
C35    N74     1.364   .     A
C35    H42     1.081   .     S
C36    H43     1.081   .     S
Cu37   N74     2.008   .     S
Cu37   O85     1.969   .     S
Cu37   O75     1.952   .     S
Cu37   O81     1.951   .     S
Cu37   Cu38    2.673   .     S
Cu37   O82     1.968   .     S
Cu38   O83     1.968   .     S
Cu38   O79     1.952   .     S
Cu38   O84     1.969   .     S
Cu38   O80     1.951   .     S
Cu38   N73     2.008   .     S
H46    C194    1.114   1_455 S
H51    C111    1.114   .     S
H59    C200    1.111   1_455 S
H60    C286    1.111   .     S
H64    C288    1.111   .     S
H65    C288    1.111   .     S
O76    C180    1.389   1_455 S
O86    C93     1.389   .     S
C87    O161    1.291   .     A
C87    O166    1.290   .     A
C87    C100    1.455   .     S
C88    C121    1.407   .     A
C88    H130    1.081   .     S
C88    C90     1.411   .     A
C89    C109    1.411   .     A
C89    C122    1.411   .     A
C89    C606    1.516   1_554 S
C90    C117    1.411   .     A
C90    C605    1.516   .     S
C91    C93     1.437   .     S
C91    O170    1.288   .     A
C91    O168    1.281   .     A
C92    O171    1.288   .     A
C92    C94     1.437   .     S
C92    O169    1.281   .     A
C94    C179    1.356   .     S
C94    O248    1.389   .     S
C95    H125    1.083   .     S
C95    C106    1.402   .     A
C95    C97     1.389   .     A
C96    C107    1.401   .     A
C96    H136    1.083   .     S
C96    C99     1.389   .     A
C97    C100    1.399   .     A
C97    H147    1.083   .     S
C98    O165    1.292   .     A
C98    C101    1.459   .     S
C98    O167    1.292   .     A
C99    C101    1.401   .     A
C99    H153    1.083   .     S
C100   C102    1.401   .     A
C101   C103    1.402   .     A
C102   H154    1.084   .     S
C102   C104    1.398   .     A
C103   H155    1.084   .     S
C103   C105    1.397   .     A
C104   C106    1.408   .     A
C104   O163    1.384   .     S
C105   C107    1.407   .     A
C105   O164    1.383   .     S
C106   C365    1.465   1_545 S
C107   C364    1.465   .     S
C108   C110    1.521   .     S
C108   O172    1.413   .     S
C108   H131    1.116   .     S
C108   H218    1.114   .     S
C109   H156    1.081   .     S
C109   C118    1.406   .     A
C110   H134    1.110   .     S
C110   H135    1.111   .     S
C110   H133    1.111   .     S
C111   C112    1.521   .     S
C111   O162    1.413   .     S
C111   H138    1.115   .     S
C112   H141    1.111   .     S
C112   H140    1.111   .     S
C112   H139    1.111   .     S
C113   H143    1.113   .     S
C113   H142    1.115   .     S
C113   O163    1.413   .     S
C113   C114    1.521   .     S
C114   H144    1.111   .     S
C114   H231    1.111   .     S
C114   H404    1.111   1_545 S
C115   H149    1.113   .     S
C115   O164    1.412   .     S
C115   H148    1.115   .     S
C115   C374    1.520   .     S
C116   H152    1.111   .     S
C116   C373    1.520   1_545 S
C116   H408    1.111   1_545 S
C116   H409    1.111   1_545 S
C117   C119    1.406   .     A
C117   H157    1.081   .     S
C118   H158    1.081   .     S
C118   N159    1.363   .     A
C119   H126    1.081   .     S
C119   N160    1.364   .     A
C120   H127    1.082   .     S
C120   C122    1.406   .     A
C120   N159    1.363   .     A
C121   N160    1.364   .     A
C121   H128    1.081   .     S
C122   H129    1.081   .     S
Cu123  N160    2.008   .     S
Cu123  O171    1.969   .     S
Cu123  O161    1.952   .     S
Cu123  O167    1.951   .     S
Cu123  Cu124   2.673   .     S
Cu123  O168    1.968   .     S
Cu124  O169    1.968   .     S
Cu124  O165    1.952   .     S
Cu124  O170    1.969   .     S
Cu124  O166    1.951   .     S
Cu124  N159    2.008   .     S
H137   C197    1.114   .     S
H146   C372    1.111   .     S
H150   C374    1.111   .     S
H151   C374    1.111   .     S
O172   C179    1.389   .     S
C173   O247    1.291   .     A
C173   O252    1.290   .     A
C173   C186    1.455   .     S
C174   C207    1.407   .     A
C174   H216    1.081   .     S
C174   C176    1.411   .     A
C175   C195    1.411   .     A
C175   C208    1.411   .     A
C175   C692    1.516   1_554 S
C176   C203    1.411   .     A
C176   C691    1.516   .     S
C177   C179    1.437   .     S
C177   O256    1.288   .     A
C177   O254    1.281   .     A
C178   O257    1.288   .     A
C178   C180    1.437   .     S
C178   O255    1.281   .     A
C180   C7      1.356   1_655 S
C180   O76     1.389   1_655 S
C181   H211    1.083   .     S
C181   C192    1.402   .     A
C181   C183    1.389   .     A
C182   C193    1.401   .     A
C182   H222    1.083   .     S
C182   C185    1.389   .     A
C183   C186    1.399   .     A
C183   H233    1.083   .     S
C184   O251    1.292   .     A
C184   C187    1.459   .     S
C184   O253    1.292   .     A
C185   C187    1.401   .     A
C185   H239    1.083   .     S
C186   C188    1.401   .     A
C187   C189    1.402   .     A
C188   H240    1.084   .     S
C188   C190    1.398   .     A
C189   H241    1.084   .     S
C189   C191    1.397   .     A
C190   C192    1.408   .     A
C190   O249    1.384   .     S
C191   C193    1.407   .     A
C191   O250    1.383   .     S
C192   C451    1.465   1_545 S
C193   C450    1.465   .     S
C194   C196    1.521   .     S
C194   O258    1.413   .     S
C194   H217    1.116   .     S
C194   H46     1.114   1_655 S
C195   H242    1.081   .     S
C195   C204    1.406   .     A
C196   H220    1.110   .     S
C196   H221    1.111   .     S
C196   H219    1.111   .     S
C197   C198    1.521   .     S
C197   O248    1.413   .     S
C197   H224    1.115   .     S
C198   H227    1.111   .     S
C198   H226    1.111   .     S
C198   H225    1.111   .     S
C199   H229    1.113   .     S
C199   H228    1.115   .     S
C199   O249    1.413   .     S
C199   C200    1.521   .     S
C200   H230    1.111   .     S
C200   H59     1.111   1_655 S
C200   H490    1.111   1_545 S
C201   H235    1.113   .     S
C201   O250    1.412   .     S
C201   H234    1.115   .     S
C201   C460    1.520   .     S
C202   H238    1.111   .     S
C202   C459    1.520   1_545 S
C202   H494    1.111   1_545 S
C202   H495    1.111   1_545 S
C203   C205    1.406   .     A
C203   H243    1.081   .     S
C204   H244    1.081   .     S
C204   N245    1.363   .     A
C205   H212    1.081   .     S
C205   N246    1.364   .     A
C206   H213    1.082   .     S
C206   C208    1.406   .     A
C206   N245    1.363   .     A
C207   N246    1.364   .     A
C207   H214    1.081   .     S
C208   H215    1.081   .     S
Cu209  N246    2.008   .     S
Cu209  O257    1.969   .     S
Cu209  O247    1.952   .     S
Cu209  O253    1.951   .     S
Cu209  Cu210   2.673   .     S
Cu209  O254    1.968   .     S
Cu210  O255    1.968   .     S
Cu210  O251    1.952   .     S
Cu210  O256    1.969   .     S
Cu210  O252    1.951   .     S
Cu210  N245    2.008   .     S
H223   C25     1.114   1_655 S
H232   C458    1.111   .     S
H236   C460    1.111   .     S
H237   C460    1.111   .     S
O258   C7      1.389   1_655 S
C259   O333    1.291   .     A
C259   O338    1.290   .     A
C259   C272    1.455   .     S
C260   C293    1.407   .     A
C260   H302    1.081   .     S
C260   C262    1.411   .     A
C261   C281    1.411   .     A
C261   C294    1.411   .     A
C261   C778    1.516   1_554 S
C262   C289    1.411   .     A
C262   C777    1.516   .     S
C263   C265    1.437   .     S
C263   O342    1.288   .     A
C263   O340    1.281   .     A
C264   O343    1.288   .     A
C264   C266    1.437   .     S
C264   O341    1.281   .     A
C265   C438    1.356   1_455 S
C265   O516    1.389   1_455 S
C266   C351    1.356   .     S
C266   O420    1.389   .     S
C267   H297    1.083   .     S
C267   C278    1.402   .     A
C267   C269    1.389   .     A
C268   C279    1.401   .     A
C268   H308    1.083   .     S
C268   C271    1.389   .     A
C269   C272    1.399   .     A
C269   H319    1.083   .     S
C270   O337    1.292   .     A
C270   C273    1.459   .     S
C270   O339    1.292   .     A
C271   C273    1.401   .     A
C271   H325    1.083   .     S
C272   C274    1.401   .     A
C273   C275    1.402   .     A
C274   H326    1.084   .     S
C274   C276    1.398   .     A
C275   H327    1.084   .     S
C275   C277    1.397   .     A
C276   C278    1.408   .     A
C276   O335    1.384   .     S
C277   C279    1.407   .     A
C277   O336    1.383   .     S
C279   C20     1.465   1_565 S
C280   C282    1.521   .     S
C280   O344    1.413   .     S
C280   H303    1.116   .     S
C280   H390    1.114   .     S
C281   H328    1.081   .     S
C281   C290    1.406   .     A
C282   H306    1.110   .     S
C282   H307    1.111   .     S
C282   H305    1.111   .     S
C283   C284    1.521   .     S
C283   O334    1.413   .     S
C283   H310    1.115   .     S
C283   H481    1.114   1_455 S
C284   H313    1.111   .     S
C284   H312    1.111   .     S
C284   H311    1.111   .     S
C285   H315    1.113   .     S
C285   H314    1.115   .     S
C285   O335    1.413   .     S
C285   C286    1.521   .     S
C286   H316    1.111   .     S
C286   H403    1.111   .     S
C287   H321    1.113   .     S
C287   O336    1.412   .     S
C287   H320    1.115   .     S
C287   C30     1.520   1_565 S
C288   H324    1.111   .     S
C289   C291    1.406   .     A
C289   H329    1.081   .     S
C290   H330    1.081   .     S
C290   N331    1.363   .     A
C291   H298    1.081   .     S
C291   N332    1.364   .     A
C292   H299    1.082   .     S
C292   C294    1.406   .     A
C292   N331    1.363   .     A
C293   N332    1.364   .     A
C293   H300    1.081   .     S
C294   H301    1.081   .     S
Cu295  N332    2.008   .     S
Cu295  O343    1.969   .     S
Cu295  O333    1.952   .     S
Cu295  O339    1.951   .     S
Cu295  Cu296   2.673   .     S
Cu295  O340    1.968   .     S
Cu296  O341    1.968   .     S
Cu296  O337    1.952   .     S
Cu296  O342    1.969   .     S
Cu296  O338    1.951   .     S
Cu296  N331    2.008   .     S
H304   C452    1.114   1_455 S
H309   C369    1.114   .     S
H317   C458    1.111   1_455 S
H318   C28     1.111   1_565 S
H322   C30     1.111   1_565 S
H323   C30     1.111   1_565 S
O334   C438    1.389   1_455 S
O344   C351    1.389   .     S
C345   O419    1.291   .     A
C345   O424    1.290   .     A
C345   C358    1.455   .     S
C346   C379    1.407   .     A
C346   H388    1.081   .     S
C346   C348    1.411   .     A
C347   C367    1.411   .     A
C347   C380    1.411   .     A
C347   C864    1.516   1_554 S
C348   C375    1.411   .     A
C348   C863    1.516   .     S
C349   C351    1.437   .     S
C349   O428    1.288   .     A
C349   O426    1.281   .     A
C350   O429    1.288   .     A
C350   C352    1.437   .     S
C350   O427    1.281   .     A
C352   C437    1.356   .     S
C352   O506    1.389   .     S
C353   H383    1.083   .     S
C353   C364    1.402   .     A
C353   C355    1.389   .     A
C354   C365    1.401   .     A
C354   H394    1.083   .     S
C354   C357    1.389   .     A
C355   C358    1.399   .     A
C355   H405    1.083   .     S
C356   O423    1.292   .     A
C356   C359    1.459   .     S
C356   O425    1.292   .     A
C357   C359    1.401   .     A
C357   H411    1.083   .     S
C358   C360    1.401   .     A
C359   C361    1.402   .     A
C360   H412    1.084   .     S
C360   C362    1.398   .     A
C361   H413    1.084   .     S
C361   C363    1.397   .     A
C362   C364    1.408   .     A
C362   O421    1.384   .     S
C363   C365    1.407   .     A
C363   O422    1.383   .     S
C365   C106    1.465   1_565 S
C366   C368    1.521   .     S
C366   O430    1.413   .     S
C366   H389    1.116   .     S
C366   H476    1.114   .     S
C367   H414    1.081   .     S
C367   C376    1.406   .     A
C368   H392    1.110   .     S
C368   H393    1.111   .     S
C368   H391    1.111   .     S
C369   C370    1.521   .     S
C369   O420    1.413   .     S
C369   H396    1.115   .     S
C370   H399    1.111   .     S
C370   H398    1.111   .     S
C370   H397    1.111   .     S
C371   H401    1.113   .     S
C371   H400    1.115   .     S
C371   O421    1.413   .     S
C371   C372    1.521   .     S
C372   H402    1.111   .     S
C372   H489    1.111   .     S
C373   H407    1.113   .     S
C373   O422    1.412   .     S
C373   H406    1.115   .     S
C373   C116    1.520   1_565 S
C374   H410    1.111   .     S
C375   C377    1.406   .     A
C375   H415    1.081   .     S
C376   H416    1.081   .     S
C376   N417    1.363   .     A
C377   H384    1.081   .     S
C377   N418    1.364   .     A
C378   H385    1.082   .     S
C378   C380    1.406   .     A
C378   N417    1.363   .     A
C379   N418    1.364   .     A
C379   H386    1.081   .     S
C380   H387    1.081   .     S
Cu381  N418    2.008   .     S
Cu381  O429    1.969   .     S
Cu381  O419    1.952   .     S
Cu381  O425    1.951   .     S
Cu381  Cu382   2.673   .     S
Cu381  O426    1.968   .     S
Cu382  O427    1.968   .     S
Cu382  O423    1.952   .     S
Cu382  O428    1.969   .     S
Cu382  O424    1.951   .     S
Cu382  N417    2.008   .     S
H395   C455    1.114   .     S
H404   C114    1.111   1_565 S
H408   C116    1.111   1_565 S
H409   C116    1.111   1_565 S
O430   C437    1.389   .     S
C431   O505    1.291   .     A
C431   O510    1.290   .     A
C431   C444    1.455   .     S
C432   C465    1.407   .     A
C432   H474    1.081   .     S
C432   C434    1.411   .     A
C433   C453    1.411   .     A
C433   C466    1.411   .     A
C433   C950    1.516   1_554 S
C434   C461    1.411   .     A
C434   C949    1.516   .     S
C435   C437    1.437   .     S
C435   O514    1.288   .     A
C435   O512    1.281   .     A
C436   O515    1.288   .     A
C436   C438    1.437   .     S
C436   O513    1.281   .     A
C438   C265    1.356   1_655 S
C438   O334    1.389   1_655 S
C439   H469    1.083   .     S
C439   C450    1.402   .     A
C439   C441    1.389   .     A
C440   C451    1.401   .     A
C440   H480    1.083   .     S
C440   C443    1.389   .     A
C441   C444    1.399   .     A
C441   H491    1.083   .     S
C442   O509    1.292   .     A
C442   C445    1.459   .     S
C442   O511    1.292   .     A
C443   C445    1.401   .     A
C443   H497    1.083   .     S
C444   C446    1.401   .     A
C445   C447    1.402   .     A
C446   H498    1.084   .     S
C446   C448    1.398   .     A
C447   H499    1.084   .     S
C447   C449    1.397   .     A
C448   C450    1.408   .     A
C448   O507    1.384   .     S
C449   C451    1.407   .     A
C449   O508    1.383   .     S
C451   C192    1.465   1_565 S
C452   C454    1.521   .     S
C452   O516    1.413   .     S
C452   H475    1.116   .     S
C452   H304    1.114   1_655 S
C453   H500    1.081   .     S
C453   C462    1.406   .     A
C454   H478    1.110   .     S
C454   H479    1.111   .     S
C454   H477    1.111   .     S
C455   C456    1.521   .     S
C455   O506    1.413   .     S
C455   H482    1.115   .     S
C456   H485    1.111   .     S
C456   H484    1.111   .     S
C456   H483    1.111   .     S
C457   H487    1.113   .     S
C457   H486    1.115   .     S
C457   O507    1.413   .     S
C457   C458    1.521   .     S
C458   H488    1.111   .     S
C458   H317    1.111   1_655 S
C459   H493    1.113   .     S
C459   O508    1.412   .     S
C459   H492    1.115   .     S
C459   C202    1.520   1_565 S
C460   H496    1.111   .     S
C461   C463    1.406   .     A
C461   H501    1.081   .     S
C462   H502    1.081   .     S
C462   N503    1.363   .     A
C463   H470    1.081   .     S
C463   N504    1.364   .     A
C464   H471    1.082   .     S
C464   C466    1.406   .     A
C464   N503    1.363   .     A
C465   N504    1.364   .     A
C465   H472    1.081   .     S
C466   H473    1.081   .     S
Cu467  N504    2.008   .     S
Cu467  O515    1.969   .     S
Cu467  O505    1.952   .     S
Cu467  O511    1.951   .     S
Cu467  Cu468   2.673   .     S
Cu467  O512    1.968   .     S
Cu468  O513    1.968   .     S
Cu468  O509    1.952   .     S
Cu468  O514    1.969   .     S
Cu468  O510    1.951   .     S
Cu468  N503    2.008   .     S
H481   C283    1.114   1_655 S
H490   C200    1.111   1_565 S
H494   C202    1.111   1_565 S
H495   C202    1.111   1_565 S
O516   C265    1.389   1_655 S
C517   O591    1.291   .     A
C517   O596    1.290   .     A
C517   C530    1.455   .     S
C518   C551    1.407   .     A
C518   H560    1.081   .     S
C518   C520    1.411   .     A
C519   C539    1.411   .     A
C519   C552    1.411   .     A
C520   C547    1.411   .     A
C520   C3      1.516   1_556 S
C521   C523    1.437   .     S
C521   O600    1.288   .     A
C521   O598    1.281   .     A
C522   O601    1.288   .     A
C522   C524    1.437   .     S
C522   O599    1.281   .     A
C523   C696    1.356   1_455 S
C523   O774    1.389   1_455 S
C524   C609    1.356   .     S
C524   O678    1.389   .     S
C525   H555    1.083   .     S
C525   C536    1.402   .     A
C525   C527    1.389   .     A
C526   C537    1.401   .     A
C526   H566    1.083   .     S
C526   C529    1.389   .     A
C527   C530    1.399   .     A
C527   H577    1.083   .     S
C528   O595    1.292   .     A
C528   C531    1.459   .     S
C528   O597    1.292   .     A
C529   C531    1.401   .     A
C529   H583    1.083   .     S
C530   C532    1.401   .     A
C531   C533    1.402   .     A
C532   H584    1.084   .     S
C532   C534    1.398   .     A
C533   H585    1.084   .     S
C533   C535    1.397   .     A
C534   C536    1.408   .     A
C534   O593    1.384   .     S
C535   C537    1.407   .     A
C535   O594    1.383   .     S
C536   C795    1.465   1_545 S
C537   C794    1.465   .     S
C538   C540    1.521   .     S
C538   O602    1.413   .     S
C538   H561    1.116   .     S
C538   H648    1.114   .     S
C539   H586    1.081   .     S
C539   C548    1.406   .     A
C540   H564    1.110   .     S
C540   H565    1.111   .     S
C540   H563    1.111   .     S
C541   C542    1.521   .     S
C541   O592    1.413   .     S
C541   H568    1.115   .     S
C541   H739    1.114   1_455 S
C542   H571    1.111   .     S
C542   H570    1.111   .     S
C542   H569    1.111   .     S
C543   H573    1.113   .     S
C543   H572    1.115   .     S
C543   O593    1.413   .     S
C543   C544    1.521   .     S
C544   H574    1.111   .     S
C544   H661    1.111   .     S
C544   H834    1.111   1_545 S
C545   H579    1.113   .     S
C545   O594    1.412   .     S
C545   H578    1.115   .     S
C545   C804    1.520   .     S
C546   H582    1.111   .     S
C546   C803    1.520   1_545 S
C546   H838    1.111   1_545 S
C546   H839    1.111   1_545 S
C547   C549    1.406   .     A
C547   H587    1.081   .     S
C548   H588    1.081   .     S
C548   N589    1.363   .     A
C549   H556    1.081   .     S
C549   N590    1.364   .     A
C550   H557    1.082   .     S
C550   C552    1.406   .     A
C550   N589    1.363   .     A
C551   N590    1.364   .     A
C551   H558    1.081   .     S
C552   H559    1.081   .     S
Cu553  N590    2.008   .     S
Cu553  O601    1.969   .     S
Cu553  O591    1.952   .     S
Cu553  O597    1.951   .     S
Cu553  Cu554   2.673   .     S
Cu553  O598    1.968   .     S
Cu554  O599    1.968   .     S
Cu554  O595    1.952   .     S
Cu554  O600    1.969   .     S
Cu554  O596    1.951   .     S
Cu554  N589    2.008   .     S
H562   C710    1.114   1_455 S
H567   C627    1.114   .     S
H575   C716    1.111   1_455 S
H576   C802    1.111   .     S
H580   C804    1.111   .     S
H581   C804    1.111   .     S
O592   C696    1.389   1_455 S
O602   C609    1.389   .     S
C603   O677    1.291   .     A
C603   O682    1.290   .     A
C603   C616    1.455   .     S
C604   C637    1.407   .     A
C604   H646    1.081   .     S
C604   C606    1.411   .     A
C605   C625    1.411   .     A
C605   C638    1.411   .     A
C606   C633    1.411   .     A
C606   C89     1.516   1_556 S
C607   C609    1.437   .     S
C607   O686    1.288   .     A
C607   O684    1.281   .     A
C608   O687    1.288   .     A
C608   C610    1.437   .     S
C608   O685    1.281   .     A
C610   C695    1.356   .     S
C610   O764    1.389   .     S
C611   H641    1.083   .     S
C611   C622    1.402   .     A
C611   C613    1.389   .     A
C612   C623    1.401   .     A
C612   H652    1.083   .     S
C612   C615    1.389   .     A
C613   C616    1.399   .     A
C613   H663    1.083   .     S
C614   O681    1.292   .     A
C614   C617    1.459   .     S
C614   O683    1.292   .     A
C615   C617    1.401   .     A
C615   H669    1.083   .     S
C616   C618    1.401   .     A
C617   C619    1.402   .     A
C618   H670    1.084   .     S
C618   C620    1.398   .     A
C619   H671    1.084   .     S
C619   C621    1.397   .     A
C620   C622    1.408   .     A
C620   O679    1.384   .     S
C621   C623    1.407   .     A
C621   O680    1.383   .     S
C622   C881    1.465   1_545 S
C623   C880    1.465   .     S
C624   C626    1.521   .     S
C624   O688    1.413   .     S
C624   H647    1.116   .     S
C624   H734    1.114   .     S
C625   H672    1.081   .     S
C625   C634    1.406   .     A
C626   H650    1.110   .     S
C626   H651    1.111   .     S
C626   H649    1.111   .     S
C627   C628    1.521   .     S
C627   O678    1.413   .     S
C627   H654    1.115   .     S
C628   H657    1.111   .     S
C628   H656    1.111   .     S
C628   H655    1.111   .     S
C629   H659    1.113   .     S
C629   H658    1.115   .     S
C629   O679    1.413   .     S
C629   C630    1.521   .     S
C630   H660    1.111   .     S
C630   H747    1.111   .     S
C630   H920    1.111   1_545 S
C631   H665    1.113   .     S
C631   O680    1.412   .     S
C631   H664    1.115   .     S
C631   C890    1.520   .     S
C632   H668    1.111   .     S
C632   C889    1.520   1_545 S
C632   H924    1.111   1_545 S
C632   H925    1.111   1_545 S
C633   C635    1.406   .     A
C633   H673    1.081   .     S
C634   H674    1.081   .     S
C634   N675    1.363   .     A
C635   H642    1.081   .     S
C635   N676    1.364   .     A
C636   H643    1.082   .     S
C636   C638    1.406   .     A
C636   N675    1.363   .     A
C637   N676    1.364   .     A
C637   H644    1.081   .     S
C638   H645    1.081   .     S
Cu639  N676    2.008   .     S
Cu639  O687    1.969   .     S
Cu639  O677    1.952   .     S
Cu639  O683    1.951   .     S
Cu639  Cu640   2.673   .     S
Cu639  O684    1.968   .     S
Cu640  O685    1.968   .     S
Cu640  O681    1.952   .     S
Cu640  O686    1.969   .     S
Cu640  O682    1.951   .     S
Cu640  N675    2.008   .     S
H653   C713    1.114   .     S
H662   C888    1.111   .     S
H666   C890    1.111   .     S
H667   C890    1.111   .     S
O688   C695    1.389   .     S
C689   O763    1.291   .     A
C689   O768    1.290   .     A
C689   C702    1.455   .     S
C690   C723    1.407   .     A
C690   H732    1.081   .     S
C690   C692    1.411   .     A
C691   C711    1.411   .     A
C691   C724    1.411   .     A
C692   C719    1.411   .     A
C692   C175    1.516   1_556 S
C693   C695    1.437   .     S
C693   O772    1.288   .     A
C693   O770    1.281   .     A
C694   O773    1.288   .     A
C694   C696    1.437   .     S
C694   O771    1.281   .     A
C696   C523    1.356   1_655 S
C696   O592    1.389   1_655 S
C697   H727    1.083   .     S
C697   C708    1.402   .     A
C697   C699    1.389   .     A
C698   C709    1.401   .     A
C698   H738    1.083   .     S
C698   C701    1.389   .     A
C699   C702    1.399   .     A
C699   H749    1.083   .     S
C700   O767    1.292   .     A
C700   C703    1.459   .     S
C700   O769    1.292   .     A
C701   C703    1.401   .     A
C701   H755    1.083   .     S
C702   C704    1.401   .     A
C703   C705    1.402   .     A
C704   H756    1.084   .     S
C704   C706    1.398   .     A
C705   H757    1.084   .     S
C705   C707    1.397   .     A
C706   C708    1.408   .     A
C706   O765    1.384   .     S
C707   C709    1.407   .     A
C707   O766    1.383   .     S
C708   C967    1.465   1_545 S
C709   C966    1.465   .     S
C710   C712    1.521   .     S
C710   O774    1.413   .     S
C710   H733    1.116   .     S
C710   H562    1.114   1_655 S
C711   H758    1.081   .     S
C711   C720    1.406   .     A
C712   H736    1.110   .     S
C712   H737    1.111   .     S
C712   H735    1.111   .     S
C713   C714    1.521   .     S
C713   O764    1.413   .     S
C713   H740    1.115   .     S
C714   H743    1.111   .     S
C714   H742    1.111   .     S
C714   H741    1.111   .     S
C715   H745    1.113   .     S
C715   H744    1.115   .     S
C715   O765    1.413   .     S
C715   C716    1.521   .     S
C716   H746    1.111   .     S
C716   H575    1.111   1_655 S
C716   H1006   1.111   1_545 S
C717   H751    1.113   .     S
C717   O766    1.412   .     S
C717   H750    1.115   .     S
C717   C976    1.520   .     S
C718   H754    1.111   .     S
C718   C975    1.520   1_545 S
C718   H1010   1.111   1_545 S
C718   H1011   1.111   1_545 S
C719   C721    1.406   .     A
C719   H759    1.081   .     S
C720   H760    1.081   .     S
C720   N761    1.363   .     A
C721   H728    1.081   .     S
C721   N762    1.364   .     A
C722   H729    1.082   .     S
C722   C724    1.406   .     A
C722   N761    1.363   .     A
C723   N762    1.364   .     A
C723   H730    1.081   .     S
C724   H731    1.081   .     S
Cu725  N762    2.008   .     S
Cu725  O773    1.969   .     S
Cu725  O763    1.952   .     S
Cu725  O769    1.951   .     S
Cu725  Cu726   2.673   .     S
Cu725  O770    1.968   .     S
Cu726  O771    1.968   .     S
Cu726  O767    1.952   .     S
Cu726  O772    1.969   .     S
Cu726  O768    1.951   .     S
Cu726  N761    2.008   .     S
H739   C541    1.114   1_655 S
H748   C974    1.111   .     S
H752   C976    1.111   .     S
H753   C976    1.111   .     S
O774   C523    1.389   1_655 S
C775   O849    1.291   .     A
C775   O854    1.290   .     A
C775   C788    1.455   .     S
C776   C809    1.407   .     A
C776   H818    1.081   .     S
C776   C778    1.411   .     A
C777   C797    1.411   .     A
C777   C810    1.411   .     A
C778   C805    1.411   .     A
C778   C261    1.516   1_556 S
C779   C781    1.437   .     S
C779   O858    1.288   .     A
C779   O856    1.281   .     A
C780   O859    1.288   .     A
C780   C782    1.437   .     S
C780   O857    1.281   .     A
C781   C954    1.356   1_455 S
C781   O1032   1.389   1_455 S
C782   C867    1.356   .     S
C782   O936    1.389   .     S
C783   H813    1.083   .     S
C783   C794    1.402   .     A
C783   C785    1.389   .     A
C784   C795    1.401   .     A
C784   H824    1.083   .     S
C784   C787    1.389   .     A
C785   C788    1.399   .     A
C785   H835    1.083   .     S
C786   O853    1.292   .     A
C786   C789    1.459   .     S
C786   O855    1.292   .     A
C787   C789    1.401   .     A
C787   H841    1.083   .     S
C788   C790    1.401   .     A
C789   C791    1.402   .     A
C790   H842    1.084   .     S
C790   C792    1.398   .     A
C791   H843    1.084   .     S
C791   C793    1.397   .     A
C792   C794    1.408   .     A
C792   O851    1.384   .     S
C793   C795    1.407   .     A
C793   O852    1.383   .     S
C795   C536    1.465   1_565 S
C796   C798    1.521   .     S
C796   O860    1.413   .     S
C796   H819    1.116   .     S
C796   H906    1.114   .     S
C797   H844    1.081   .     S
C797   C806    1.406   .     A
C798   H822    1.110   .     S
C798   H823    1.111   .     S
C798   H821    1.111   .     S
C799   C800    1.521   .     S
C799   O850    1.413   .     S
C799   H826    1.115   .     S
C799   H997    1.114   1_455 S
C800   H829    1.111   .     S
C800   H828    1.111   .     S
C800   H827    1.111   .     S
C801   H831    1.113   .     S
C801   H830    1.115   .     S
C801   O851    1.413   .     S
C801   C802    1.521   .     S
C802   H832    1.111   .     S
C802   H919    1.111   .     S
C803   H837    1.113   .     S
C803   O852    1.412   .     S
C803   H836    1.115   .     S
C803   C546    1.520   1_565 S
C804   H840    1.111   .     S
C805   C807    1.406   .     A
C805   H845    1.081   .     S
C806   H846    1.081   .     S
C806   N847    1.363   .     A
C807   H814    1.081   .     S
C807   N848    1.364   .     A
C808   H815    1.082   .     S
C808   C810    1.406   .     A
C808   N847    1.363   .     A
C809   N848    1.364   .     A
C809   H816    1.081   .     S
C810   H817    1.081   .     S
Cu811  N848    2.008   .     S
Cu811  O859    1.969   .     S
Cu811  O849    1.952   .     S
Cu811  O855    1.951   .     S
Cu811  Cu812   2.673   .     S
Cu811  O856    1.968   .     S
Cu812  O857    1.968   .     S
Cu812  O853    1.952   .     S
Cu812  O858    1.969   .     S
Cu812  O854    1.951   .     S
Cu812  N847    2.008   .     S
H820   C968    1.114   1_455 S
H825   C885    1.114   .     S
H833   C974    1.111   1_455 S
H834   C544    1.111   1_565 S
H838   C546    1.111   1_565 S
H839   C546    1.111   1_565 S
O850   C954    1.389   1_455 S
O860   C867    1.389   .     S
C861   O935    1.291   .     A
C861   O940    1.290   .     A
C861   C874    1.455   .     S
C862   C895    1.407   .     A
C862   H904    1.081   .     S
C862   C864    1.411   .     A
C863   C883    1.411   .     A
C863   C896    1.411   .     A
C864   C891    1.411   .     A
C864   C347    1.516   1_556 S
C865   C867    1.437   .     S
C865   O944    1.288   .     A
C865   O942    1.281   .     A
C866   O945    1.288   .     A
C866   C868    1.437   .     S
C866   O943    1.281   .     A
C868   C953    1.356   .     S
C868   O1022   1.389   .     S
C869   H899    1.083   .     S
C869   C880    1.402   .     A
C869   C871    1.389   .     A
C870   C881    1.401   .     A
C870   H910    1.083   .     S
C870   C873    1.389   .     A
C871   C874    1.399   .     A
C871   H921    1.083   .     S
C872   O939    1.292   .     A
C872   C875    1.459   .     S
C872   O941    1.292   .     A
C873   C875    1.401   .     A
C873   H927    1.083   .     S
C874   C876    1.401   .     A
C875   C877    1.402   .     A
C876   H928    1.084   .     S
C876   C878    1.398   .     A
C877   H929    1.084   .     S
C877   C879    1.397   .     A
C878   C880    1.408   .     A
C878   O937    1.384   .     S
C879   C881    1.407   .     A
C879   O938    1.383   .     S
C881   C622    1.465   1_565 S
C882   C884    1.521   .     S
C882   O946    1.413   .     S
C882   H905    1.116   .     S
C882   H992    1.114   .     S
C883   H930    1.081   .     S
C883   C892    1.406   .     A
C884   H908    1.110   .     S
C884   H909    1.111   .     S
C884   H907    1.111   .     S
C885   C886    1.521   .     S
C885   O936    1.413   .     S
C885   H912    1.115   .     S
C886   H915    1.111   .     S
C886   H914    1.111   .     S
C886   H913    1.111   .     S
C887   H917    1.113   .     S
C887   H916    1.115   .     S
C887   O937    1.413   .     S
C887   C888    1.521   .     S
C888   H918    1.111   .     S
C888   H1005   1.111   .     S
C889   H923    1.113   .     S
C889   O938    1.412   .     S
C889   H922    1.115   .     S
C889   C632    1.520   1_565 S
C890   H926    1.111   .     S
C891   C893    1.406   .     A
C891   H931    1.081   .     S
C892   H932    1.081   .     S
C892   N933    1.363   .     A
C893   H900    1.081   .     S
C893   N934    1.364   .     A
C894   H901    1.082   .     S
C894   C896    1.406   .     A
C894   N933    1.363   .     A
C895   N934    1.364   .     A
C895   H902    1.081   .     S
C896   H903    1.081   .     S
Cu897  N934    2.008   .     S
Cu897  O945    1.969   .     S
Cu897  O935    1.952   .     S
Cu897  O941    1.951   .     S
Cu897  Cu898   2.673   .     S
Cu897  O942    1.968   .     S
Cu898  O943    1.968   .     S
Cu898  O939    1.952   .     S
Cu898  O944    1.969   .     S
Cu898  O940    1.951   .     S
Cu898  N933    2.008   .     S
H911   C971    1.114   .     S
H920   C630    1.111   1_565 S
H924   C632    1.111   1_565 S
H925   C632    1.111   1_565 S
O946   C953    1.389   .     S
C947   O1021   1.291   .     A
C947   O1026   1.290   .     A
C947   C960    1.455   .     S
C948   C981    1.407   .     A
C948   H990    1.081   .     S
C948   C950    1.411   .     A
C949   C969    1.411   .     A
C949   C982    1.411   .     A
C950   C977    1.411   .     A
C950   C433    1.516   1_556 S
C951   C953    1.437   .     S
C951   O1030   1.288   .     A
C951   O1028   1.281   .     A
C952   O1031   1.288   .     A
C952   C954    1.437   .     S
C952   O1029   1.281   .     A
C954   C781    1.356   1_655 S
C954   O850    1.389   1_655 S
C955   H985    1.083   .     S
C955   C966    1.402   .     A
C955   C957    1.389   .     A
C956   C967    1.401   .     A
C956   H996    1.083   .     S
C956   C959    1.389   .     A
C957   C960    1.399   .     A
C957   H1007   1.083   .     S
C958   O1025   1.292   .     A
C958   C961    1.459   .     S
C958   O1027   1.292   .     A
C959   C961    1.401   .     A
C959   H1013   1.083   .     S
C960   C962    1.401   .     A
C961   C963    1.402   .     A
C962   H1014   1.084   .     S
C962   C964    1.398   .     A
C963   H1015   1.084   .     S
C963   C965    1.397   .     A
C964   C966    1.408   .     A
C964   O1023   1.384   .     S
C965   C967    1.407   .     A
C965   O1024   1.383   .     S
C967   C708    1.465   1_565 S
C968   C970    1.521   .     S
C968   O1032   1.413   .     S
C968   H991    1.116   .     S
C968   H820    1.114   1_655 S
C969   H1016   1.081   .     S
C969   C978    1.406   .     A
C970   H994    1.110   .     S
C970   H995    1.111   .     S
C970   H993    1.111   .     S
C971   C972    1.521   .     S
C971   O1022   1.413   .     S
C971   H998    1.115   .     S
C972   H1001   1.111   .     S
C972   H1000   1.111   .     S
C972   H999    1.111   .     S
C973   H1003   1.113   .     S
C973   H1002   1.115   .     S
C973   O1023   1.413   .     S
C973   C974    1.521   .     S
C974   H1004   1.111   .     S
C974   H833    1.111   1_655 S
C975   H1009   1.113   .     S
C975   O1024   1.412   .     S
C975   H1008   1.115   .     S
C975   C718    1.520   1_565 S
C976   H1012   1.111   .     S
C977   C979    1.406   .     A
C977   H1017   1.081   .     S
C978   H1018   1.081   .     S
C978   N1019   1.363   .     A
C979   H986    1.081   .     S
C979   N1020   1.364   .     A
C980   H987    1.082   .     S
C980   C982    1.406   .     A
C980   N1019   1.363   .     A
C981   N1020   1.364   .     A
C981   H988    1.081   .     S
C982   H989    1.081   .     S
Cu983  N1020   2.008   .     S
Cu983  O1031   1.969   .     S
Cu983  O1021   1.952   .     S
Cu983  O1027   1.951   .     S
Cu983  Cu984   2.673   .     S
Cu983  O1028   1.968   .     S
Cu984  O1029   1.968   .     S
Cu984  O1025   1.952   .     S
Cu984  O1030   1.969   .     S
Cu984  O1026   1.951   .     S
Cu984  N1019   2.008   .     S
H997   C799    1.114   1_655 S
H1006  C716    1.111   1_565 S
H1010  C718    1.111   1_565 S
H1011  C718    1.111   1_565 S
O1032  C781    1.389   1_655 S
