data_str_m3_o1_o5_pcu_sym.33
_audit_creation_date              2020-01-03
_audit_creation_method            'Materials Studio'
_symmetry_space_group_name_H-M    'P1'
_symmetry_Int_Tables_number       1
_symmetry_cell_setting            triclinic
loop_
_symmetry_equiv_pos_as_xyz
  x,y,z
_cell_length_a                    31.9408
_cell_length_b                    30.0801
_cell_length_c                    26.7243
_cell_angle_alpha                 89.9923
_cell_angle_beta                  90.4433
_cell_angle_gamma                 89.9949
loop_
_atom_site_label
_atom_site_type_symbol
_atom_site_fract_x
_atom_site_fract_y
_atom_site_fract_z
_atom_site_U_iso_or_equiv
_atom_site_adp_type
_atom_site_occupancy
O1     O     0.10559   0.20487   0.16666   0.00000  Uiso   1.00
O2     O     0.22774   0.12846   0.16667   0.00000  Uiso   1.00
O3     O     0.22774   0.20487   0.16667   0.00000  Uiso   1.00
O4     O     0.10559   0.12846   0.16666   0.00000  Uiso   1.00
C5     C     0.08697   0.16671   0.16618   0.00000  Uiso   1.00
C6     C     0.24636   0.16662   0.16715   0.00000  Uiso   1.00
O7     O     0.16667   0.20488   0.09511   0.00000  Uiso   1.00
O8     O     0.16666   0.12845   0.23822   0.00000  Uiso   1.00
O9     O     0.16666   0.20488   0.23822   0.00000  Uiso   1.00
O10    O     0.16667   0.12845   0.09511   0.00000  Uiso   1.00
C11    C     0.16687   0.16667   0.07308   0.00000  Uiso   1.00
C12    C     0.16648   0.16666   0.26025   0.00000  Uiso   1.00
Zn13   Zn    0.16667   0.21771   0.16667   0.00000  Uiso   1.00
Zn14   Zn    0.16667   0.11563   0.16667   0.00000  Uiso   1.00
C15    C     0.16676   0.16667   0.02184   0.00000  Uiso   1.00
C16    C     0.16660   0.16666   0.31150   0.00000  Uiso   1.00
C17    C     0.02111   0.14482   0.12732   0.00000  Uiso   1.00
C18    C     0.31222   0.18854   0.20596   0.00000  Uiso   1.00
C19    C     0.31112   0.14432   0.12843   0.00000  Uiso   1.00
C20    C     0.02221   0.18902   0.20487   0.00000  Uiso   1.00
C21    C     0.29060   0.16631   0.16747   0.00000  Uiso   1.00
C22    C     0.04273   0.16702   0.16584   0.00000  Uiso   1.00
C23    C     0.17236   0.02367   0.20990   0.00000  Uiso   1.00
C24    C     0.16097   0.30966   0.12343   0.00000  Uiso   1.00
C25    C     0.16131   0.02363   0.12337   0.00000  Uiso   1.00
C26    C     0.17201   0.30970   0.20997   0.00000  Uiso   1.00
N27    N     0.16667   0.28573   0.16667   0.00000  Uiso   1.00
N28    N     0.16667   0.04760   0.16667   0.00000  Uiso   1.00
N29    N     0.04291   0.12511   0.08598   0.00000  Uiso   1.00
O30    O     0.03354   0.08520   0.07089   0.00000  Uiso   1.00
O31    O     0.07008   0.14826   0.06101   0.00000  Uiso   1.00
N32    N     0.29041   0.20830   0.24725   0.00000  Uiso   1.00
O33    O     0.29954   0.24839   0.26199   0.00000  Uiso   1.00
O34    O     0.26337   0.18515   0.27239   0.00000  Uiso   1.00
N35    N     0.28785   0.12450   0.08812   0.00000  Uiso   1.00
O36    O     0.27124   0.14952   0.05359   0.00000  Uiso   1.00
O37    O     0.27931   0.08222   0.08905   0.00000  Uiso   1.00
N38    N     0.04547   0.20887   0.24517   0.00000  Uiso   1.00
O39    O     0.06248   0.18384   0.27941   0.00000  Uiso   1.00
O40    O     0.05366   0.25123   0.24444   0.00000  Uiso   1.00
N41    N     0.17863   0.04593   0.25629   0.00000  Uiso   1.00
O42    O     0.14763   0.04935   0.28731   0.00000  Uiso   1.00
O43    O     0.21640   0.05572   0.27110   0.00000  Uiso   1.00
N44    N     0.15467   0.28740   0.07706   0.00000  Uiso   1.00
O45    O     0.18564   0.28399   0.04600   0.00000  Uiso   1.00
O46    O     0.11688   0.27760   0.06229   0.00000  Uiso   1.00
N47    N     0.15683   0.04580   0.07666   0.00000  Uiso   1.00
O48    O     0.11961   0.05262   0.05817   0.00000  Uiso   1.00
O49    O     0.18942   0.05044   0.04824   0.00000  Uiso   1.00
N50    N     0.17643   0.28754   0.25669   0.00000  Uiso   1.00
O51    O     0.21362   0.28076   0.27526   0.00000  Uiso   1.00
O52    O     0.14380   0.28287   0.28503   0.00000  Uiso   1.00
O53    O     0.43892   0.20487   0.16666   0.00000  Uiso   1.00
O54    O     0.56108   0.12846   0.16667   0.00000  Uiso   1.00
O55    O     0.56108   0.20487   0.16667   0.00000  Uiso   1.00
O56    O     0.43892   0.12846   0.16666   0.00000  Uiso   1.00
C57    C     0.42031   0.16671   0.16618   0.00000  Uiso   1.00
C58    C     0.57969   0.16662   0.16715   0.00000  Uiso   1.00
O59    O     0.50000   0.20488   0.09511   0.00000  Uiso   1.00
O60    O     0.50000   0.12845   0.23822   0.00000  Uiso   1.00
O61    O     0.50000   0.20488   0.23822   0.00000  Uiso   1.00
O62    O     0.50000   0.12845   0.09511   0.00000  Uiso   1.00
C63    C     0.50020   0.16667   0.07308   0.00000  Uiso   1.00
C64    C     0.49981   0.16666   0.26025   0.00000  Uiso   1.00
Zn65   Zn    0.50000   0.21771   0.16667   0.00000  Uiso   1.00
Zn66   Zn    0.50000   0.11563   0.16667   0.00000  Uiso   1.00
C67    C     0.50009   0.16667   0.02184   0.00000  Uiso   1.00
C68    C     0.49993   0.16666   0.31150   0.00000  Uiso   1.00
C69    C     0.35444   0.14482   0.12732   0.00000  Uiso   1.00
C70    C     0.64556   0.18854   0.20596   0.00000  Uiso   1.00
C71    C     0.64445   0.14432   0.12843   0.00000  Uiso   1.00
C72    C     0.35554   0.18902   0.20487   0.00000  Uiso   1.00
C73    C     0.62394   0.16631   0.16747   0.00000  Uiso   1.00
C74    C     0.37606   0.16702   0.16584   0.00000  Uiso   1.00
C75    C     0.50569   0.02367   0.20990   0.00000  Uiso   1.00
C76    C     0.49430   0.30966   0.12343   0.00000  Uiso   1.00
C77    C     0.49464   0.02363   0.12337   0.00000  Uiso   1.00
C78    C     0.50534   0.30970   0.20997   0.00000  Uiso   1.00
N79    N     0.50000   0.28573   0.16667   0.00000  Uiso   1.00
N80    N     0.50000   0.04760   0.16667   0.00000  Uiso   1.00
N81    N     0.37625   0.12511   0.08598   0.00000  Uiso   1.00
O82    O     0.36688   0.08520   0.07089   0.00000  Uiso   1.00
O83    O     0.40342   0.14826   0.06101   0.00000  Uiso   1.00
N84    N     0.62375   0.20830   0.24725   0.00000  Uiso   1.00
O85    O     0.63287   0.24839   0.26199   0.00000  Uiso   1.00
O86    O     0.59670   0.18515   0.27239   0.00000  Uiso   1.00
N87    N     0.62118   0.12450   0.08812   0.00000  Uiso   1.00
O88    O     0.60458   0.14952   0.05359   0.00000  Uiso   1.00
O89    O     0.61265   0.08222   0.08905   0.00000  Uiso   1.00
N90    N     0.37880   0.20887   0.24517   0.00000  Uiso   1.00
O91    O     0.39581   0.18384   0.27941   0.00000  Uiso   1.00
O92    O     0.38700   0.25123   0.24444   0.00000  Uiso   1.00
N93    N     0.51196   0.04593   0.25629   0.00000  Uiso   1.00
O94    O     0.48096   0.04935   0.28731   0.00000  Uiso   1.00
O95    O     0.54974   0.05572   0.27110   0.00000  Uiso   1.00
N96    N     0.48800   0.28740   0.07706   0.00000  Uiso   1.00
O97    O     0.51897   0.28399   0.04600   0.00000  Uiso   1.00
O98    O     0.45021   0.27760   0.06229   0.00000  Uiso   1.00
N99    N     0.49016   0.04580   0.07666   0.00000  Uiso   1.00
O100   O     0.45295   0.05262   0.05817   0.00000  Uiso   1.00
O101   O     0.52275   0.05044   0.04824   0.00000  Uiso   1.00
N102   N     0.50977   0.28754   0.25669   0.00000  Uiso   1.00
O103   O     0.54696   0.28076   0.27526   0.00000  Uiso   1.00
O104   O     0.47714   0.28287   0.28503   0.00000  Uiso   1.00
O105   O     0.77226   0.20487   0.16666   0.00000  Uiso   1.00
O106   O     0.89441   0.12846   0.16667   0.00000  Uiso   1.00
O107   O     0.89441   0.20487   0.16667   0.00000  Uiso   1.00
O108   O     0.77226   0.12846   0.16666   0.00000  Uiso   1.00
C109   C     0.75364   0.16671   0.16618   0.00000  Uiso   1.00
C110   C     0.91303   0.16662   0.16715   0.00000  Uiso   1.00
O111   O     0.83334   0.20488   0.09511   0.00000  Uiso   1.00
O112   O     0.83333   0.12845   0.23822   0.00000  Uiso   1.00
O113   O     0.83333   0.20488   0.23822   0.00000  Uiso   1.00
O114   O     0.83334   0.12845   0.09511   0.00000  Uiso   1.00
C115   C     0.83353   0.16667   0.07308   0.00000  Uiso   1.00
C116   C     0.83315   0.16666   0.26025   0.00000  Uiso   1.00
Zn117  Zn    0.83333   0.21771   0.16667   0.00000  Uiso   1.00
Zn118  Zn    0.83333   0.11563   0.16667   0.00000  Uiso   1.00
C119   C     0.83343   0.16667   0.02184   0.00000  Uiso   1.00
C120   C     0.83326   0.16666   0.31150   0.00000  Uiso   1.00
C121   C     0.68778   0.14482   0.12732   0.00000  Uiso   1.00
C122   C     0.97889   0.18854   0.20596   0.00000  Uiso   1.00
C123   C     0.97779   0.14432   0.12843   0.00000  Uiso   1.00
C124   C     0.68888   0.18902   0.20487   0.00000  Uiso   1.00
C125   C     0.95727   0.16631   0.16747   0.00000  Uiso   1.00
C126   C     0.70939   0.16702   0.16584   0.00000  Uiso   1.00
C127   C     0.83902   0.02367   0.20990   0.00000  Uiso   1.00
C128   C     0.82763   0.30966   0.12343   0.00000  Uiso   1.00
C129   C     0.82797   0.02363   0.12337   0.00000  Uiso   1.00
C130   C     0.83868   0.30970   0.20997   0.00000  Uiso   1.00
N131   N     0.83333   0.28573   0.16667   0.00000  Uiso   1.00
N132   N     0.83333   0.04760   0.16667   0.00000  Uiso   1.00
N133   N     0.70958   0.12511   0.08598   0.00000  Uiso   1.00
O134   O     0.70021   0.08520   0.07089   0.00000  Uiso   1.00
O135   O     0.73675   0.14826   0.06101   0.00000  Uiso   1.00
N136   N     0.95708   0.20830   0.24725   0.00000  Uiso   1.00
O137   O     0.96621   0.24839   0.26199   0.00000  Uiso   1.00
O138   O     0.93004   0.18515   0.27239   0.00000  Uiso   1.00
N139   N     0.95451   0.12450   0.08812   0.00000  Uiso   1.00
O140   O     0.93791   0.14952   0.05359   0.00000  Uiso   1.00
O141   O     0.94598   0.08222   0.08905   0.00000  Uiso   1.00
N142   N     0.71214   0.20887   0.24517   0.00000  Uiso   1.00
O143   O     0.72915   0.18384   0.27941   0.00000  Uiso   1.00
O144   O     0.72033   0.25123   0.24444   0.00000  Uiso   1.00
N145   N     0.84529   0.04593   0.25629   0.00000  Uiso   1.00
O146   O     0.81430   0.04935   0.28731   0.00000  Uiso   1.00
O147   O     0.88307   0.05572   0.27110   0.00000  Uiso   1.00
N148   N     0.82134   0.28740   0.07706   0.00000  Uiso   1.00
O149   O     0.85231   0.28399   0.04600   0.00000  Uiso   1.00
O150   O     0.78355   0.27760   0.06229   0.00000  Uiso   1.00
N151   N     0.82350   0.04580   0.07666   0.00000  Uiso   1.00
O152   O     0.78628   0.05262   0.05817   0.00000  Uiso   1.00
O153   O     0.85608   0.05044   0.04824   0.00000  Uiso   1.00
N154   N     0.84310   0.28754   0.25669   0.00000  Uiso   1.00
O155   O     0.88029   0.28076   0.27526   0.00000  Uiso   1.00
O156   O     0.81047   0.28287   0.28503   0.00000  Uiso   1.00
O157   O     0.10559   0.53821   0.16666   0.00000  Uiso   1.00
O158   O     0.22774   0.46179   0.16667   0.00000  Uiso   1.00
O159   O     0.22774   0.53821   0.16667   0.00000  Uiso   1.00
O160   O     0.10559   0.46179   0.16666   0.00000  Uiso   1.00
C161   C     0.08697   0.50004   0.16618   0.00000  Uiso   1.00
C162   C     0.24636   0.49996   0.16715   0.00000  Uiso   1.00
O163   O     0.16667   0.53821   0.09511   0.00000  Uiso   1.00
O164   O     0.16666   0.46179   0.23822   0.00000  Uiso   1.00
O165   O     0.16666   0.53821   0.23822   0.00000  Uiso   1.00
O166   O     0.16667   0.46179   0.09511   0.00000  Uiso   1.00
C167   C     0.16687   0.50001   0.07308   0.00000  Uiso   1.00
C168   C     0.16648   0.50000   0.26025   0.00000  Uiso   1.00
Zn169  Zn    0.16667   0.55104   0.16667   0.00000  Uiso   1.00
Zn170  Zn    0.16667   0.44896   0.16667   0.00000  Uiso   1.00
C171   C     0.16676   0.50001   0.02184   0.00000  Uiso   1.00
C172   C     0.16660   0.49999   0.31150   0.00000  Uiso   1.00
C173   C     0.02111   0.47816   0.12732   0.00000  Uiso   1.00
C174   C     0.31222   0.52187   0.20596   0.00000  Uiso   1.00
C175   C     0.31112   0.47765   0.12843   0.00000  Uiso   1.00
C176   C     0.02221   0.52236   0.20487   0.00000  Uiso   1.00
C177   C     0.29060   0.49965   0.16747   0.00000  Uiso   1.00
C178   C     0.04273   0.50035   0.16584   0.00000  Uiso   1.00
C179   C     0.17236   0.35700   0.20990   0.00000  Uiso   1.00
C180   C     0.16097   0.64300   0.12343   0.00000  Uiso   1.00
C181   C     0.16131   0.35696   0.12337   0.00000  Uiso   1.00
C182   C     0.17201   0.64304   0.20997   0.00000  Uiso   1.00
N183   N     0.16667   0.61907   0.16667   0.00000  Uiso   1.00
N184   N     0.16667   0.38093   0.16667   0.00000  Uiso   1.00
N185   N     0.04291   0.45845   0.08598   0.00000  Uiso   1.00
O186   O     0.03354   0.41853   0.07089   0.00000  Uiso   1.00
O187   O     0.07008   0.48159   0.06101   0.00000  Uiso   1.00
N188   N     0.29041   0.54164   0.24725   0.00000  Uiso   1.00
O189   O     0.29954   0.58172   0.26199   0.00000  Uiso   1.00
O190   O     0.26337   0.51848   0.27239   0.00000  Uiso   1.00
N191   N     0.28785   0.45783   0.08812   0.00000  Uiso   1.00
O192   O     0.27124   0.48285   0.05359   0.00000  Uiso   1.00
O193   O     0.27931   0.41556   0.08905   0.00000  Uiso   1.00
N194   N     0.04547   0.54221   0.24517   0.00000  Uiso   1.00
O195   O     0.06248   0.51717   0.27941   0.00000  Uiso   1.00
O196   O     0.05366   0.58456   0.24444   0.00000  Uiso   1.00
N197   N     0.17863   0.37927   0.25629   0.00000  Uiso   1.00
O198   O     0.14763   0.38268   0.28731   0.00000  Uiso   1.00
O199   O     0.21640   0.38905   0.27110   0.00000  Uiso   1.00
N200   N     0.15467   0.62073   0.07706   0.00000  Uiso   1.00
O201   O     0.18564   0.61733   0.04600   0.00000  Uiso   1.00
O202   O     0.11688   0.61093   0.06229   0.00000  Uiso   1.00
N203   N     0.15683   0.37913   0.07666   0.00000  Uiso   1.00
O204   O     0.11961   0.38596   0.05817   0.00000  Uiso   1.00
O205   O     0.18942   0.38378   0.04824   0.00000  Uiso   1.00
N206   N     0.17643   0.62087   0.25669   0.00000  Uiso   1.00
O207   O     0.21362   0.61409   0.27526   0.00000  Uiso   1.00
O208   O     0.14380   0.61620   0.28503   0.00000  Uiso   1.00
O209   O     0.43892   0.53821   0.16666   0.00000  Uiso   1.00
O210   O     0.56108   0.46179   0.16667   0.00000  Uiso   1.00
O211   O     0.56108   0.53821   0.16667   0.00000  Uiso   1.00
O212   O     0.43892   0.46179   0.16666   0.00000  Uiso   1.00
C213   C     0.42031   0.50004   0.16618   0.00000  Uiso   1.00
C214   C     0.57969   0.49996   0.16715   0.00000  Uiso   1.00
O215   O     0.50000   0.53821   0.09511   0.00000  Uiso   1.00
O216   O     0.50000   0.46179   0.23822   0.00000  Uiso   1.00
O217   O     0.50000   0.53821   0.23822   0.00000  Uiso   1.00
O218   O     0.50000   0.46179   0.09511   0.00000  Uiso   1.00
C219   C     0.50020   0.50001   0.07308   0.00000  Uiso   1.00
C220   C     0.49981   0.50000   0.26025   0.00000  Uiso   1.00
Zn221  Zn    0.50000   0.55104   0.16667   0.00000  Uiso   1.00
Zn222  Zn    0.50000   0.44896   0.16667   0.00000  Uiso   1.00
C223   C     0.50009   0.50001   0.02184   0.00000  Uiso   1.00
C224   C     0.49993   0.49999   0.31150   0.00000  Uiso   1.00
C225   C     0.35444   0.47816   0.12732   0.00000  Uiso   1.00
C226   C     0.64556   0.52187   0.20596   0.00000  Uiso   1.00
C227   C     0.64445   0.47765   0.12843   0.00000  Uiso   1.00
C228   C     0.35554   0.52236   0.20487   0.00000  Uiso   1.00
C229   C     0.62394   0.49965   0.16747   0.00000  Uiso   1.00
C230   C     0.37606   0.50035   0.16584   0.00000  Uiso   1.00
C231   C     0.50569   0.35700   0.20990   0.00000  Uiso   1.00
C232   C     0.49430   0.64300   0.12343   0.00000  Uiso   1.00
C233   C     0.49464   0.35696   0.12337   0.00000  Uiso   1.00
C234   C     0.50534   0.64304   0.20997   0.00000  Uiso   1.00
N235   N     0.50000   0.61907   0.16667   0.00000  Uiso   1.00
N236   N     0.50000   0.38093   0.16667   0.00000  Uiso   1.00
N237   N     0.37625   0.45845   0.08598   0.00000  Uiso   1.00
O238   O     0.36688   0.41853   0.07089   0.00000  Uiso   1.00
O239   O     0.40342   0.48159   0.06101   0.00000  Uiso   1.00
N240   N     0.62375   0.54164   0.24725   0.00000  Uiso   1.00
O241   O     0.63287   0.58172   0.26199   0.00000  Uiso   1.00
O242   O     0.59670   0.51848   0.27239   0.00000  Uiso   1.00
N243   N     0.62118   0.45783   0.08812   0.00000  Uiso   1.00
O244   O     0.60458   0.48285   0.05359   0.00000  Uiso   1.00
O245   O     0.61265   0.41556   0.08905   0.00000  Uiso   1.00
N246   N     0.37880   0.54221   0.24517   0.00000  Uiso   1.00
O247   O     0.39581   0.51717   0.27941   0.00000  Uiso   1.00
O248   O     0.38700   0.58456   0.24444   0.00000  Uiso   1.00
N249   N     0.51196   0.37927   0.25629   0.00000  Uiso   1.00
O250   O     0.48096   0.38268   0.28731   0.00000  Uiso   1.00
O251   O     0.54974   0.38905   0.27110   0.00000  Uiso   1.00
N252   N     0.48800   0.62073   0.07706   0.00000  Uiso   1.00
O253   O     0.51897   0.61733   0.04600   0.00000  Uiso   1.00
O254   O     0.45021   0.61093   0.06229   0.00000  Uiso   1.00
N255   N     0.49016   0.37913   0.07666   0.00000  Uiso   1.00
O256   O     0.45295   0.38596   0.05817   0.00000  Uiso   1.00
O257   O     0.52275   0.38378   0.04824   0.00000  Uiso   1.00
N258   N     0.50977   0.62087   0.25669   0.00000  Uiso   1.00
O259   O     0.54696   0.61409   0.27526   0.00000  Uiso   1.00
O260   O     0.47714   0.61620   0.28503   0.00000  Uiso   1.00
O261   O     0.77226   0.53821   0.16666   0.00000  Uiso   1.00
O262   O     0.89441   0.46179   0.16667   0.00000  Uiso   1.00
O263   O     0.89441   0.53821   0.16667   0.00000  Uiso   1.00
O264   O     0.77226   0.46179   0.16666   0.00000  Uiso   1.00
C265   C     0.75364   0.50004   0.16618   0.00000  Uiso   1.00
C266   C     0.91303   0.49996   0.16715   0.00000  Uiso   1.00
O267   O     0.83334   0.53821   0.09511   0.00000  Uiso   1.00
O268   O     0.83333   0.46179   0.23822   0.00000  Uiso   1.00
O269   O     0.83333   0.53821   0.23822   0.00000  Uiso   1.00
O270   O     0.83334   0.46179   0.09511   0.00000  Uiso   1.00
C271   C     0.83353   0.50001   0.07308   0.00000  Uiso   1.00
C272   C     0.83315   0.50000   0.26025   0.00000  Uiso   1.00
Zn273  Zn    0.83333   0.55104   0.16667   0.00000  Uiso   1.00
Zn274  Zn    0.83333   0.44896   0.16667   0.00000  Uiso   1.00
C275   C     0.83343   0.50001   0.02184   0.00000  Uiso   1.00
C276   C     0.83326   0.49999   0.31150   0.00000  Uiso   1.00
C277   C     0.68778   0.47816   0.12732   0.00000  Uiso   1.00
C278   C     0.97889   0.52187   0.20596   0.00000  Uiso   1.00
C279   C     0.97779   0.47765   0.12843   0.00000  Uiso   1.00
C280   C     0.68888   0.52236   0.20487   0.00000  Uiso   1.00
C281   C     0.95727   0.49965   0.16747   0.00000  Uiso   1.00
C282   C     0.70939   0.50035   0.16584   0.00000  Uiso   1.00
C283   C     0.83902   0.35700   0.20990   0.00000  Uiso   1.00
C284   C     0.82763   0.64300   0.12343   0.00000  Uiso   1.00
C285   C     0.82797   0.35696   0.12337   0.00000  Uiso   1.00
C286   C     0.83868   0.64304   0.20997   0.00000  Uiso   1.00
N287   N     0.83333   0.61907   0.16667   0.00000  Uiso   1.00
N288   N     0.83333   0.38093   0.16667   0.00000  Uiso   1.00
N289   N     0.70958   0.45845   0.08598   0.00000  Uiso   1.00
O290   O     0.70021   0.41853   0.07089   0.00000  Uiso   1.00
O291   O     0.73675   0.48159   0.06101   0.00000  Uiso   1.00
N292   N     0.95708   0.54164   0.24725   0.00000  Uiso   1.00
O293   O     0.96621   0.58172   0.26199   0.00000  Uiso   1.00
O294   O     0.93004   0.51848   0.27239   0.00000  Uiso   1.00
N295   N     0.95451   0.45783   0.08812   0.00000  Uiso   1.00
O296   O     0.93791   0.48285   0.05359   0.00000  Uiso   1.00
O297   O     0.94598   0.41556   0.08905   0.00000  Uiso   1.00
N298   N     0.71214   0.54221   0.24517   0.00000  Uiso   1.00
O299   O     0.72915   0.51717   0.27941   0.00000  Uiso   1.00
O300   O     0.72033   0.58456   0.24444   0.00000  Uiso   1.00
N301   N     0.84529   0.37927   0.25629   0.00000  Uiso   1.00
O302   O     0.81430   0.38268   0.28731   0.00000  Uiso   1.00
O303   O     0.88307   0.38905   0.27110   0.00000  Uiso   1.00
N304   N     0.82134   0.62073   0.07706   0.00000  Uiso   1.00
O305   O     0.85231   0.61733   0.04600   0.00000  Uiso   1.00
O306   O     0.78355   0.61093   0.06229   0.00000  Uiso   1.00
N307   N     0.82350   0.37913   0.07666   0.00000  Uiso   1.00
O308   O     0.78628   0.38596   0.05817   0.00000  Uiso   1.00
O309   O     0.85608   0.38378   0.04824   0.00000  Uiso   1.00
N310   N     0.84310   0.62087   0.25669   0.00000  Uiso   1.00
O311   O     0.88029   0.61409   0.27526   0.00000  Uiso   1.00
O312   O     0.81047   0.61620   0.28503   0.00000  Uiso   1.00
O313   O     0.10559   0.87154   0.16666   0.00000  Uiso   1.00
O314   O     0.22774   0.79513   0.16667   0.00000  Uiso   1.00
O315   O     0.22774   0.87154   0.16667   0.00000  Uiso   1.00
O316   O     0.10559   0.79513   0.16666   0.00000  Uiso   1.00
C317   C     0.08697   0.83337   0.16618   0.00000  Uiso   1.00
C318   C     0.24636   0.83329   0.16715   0.00000  Uiso   1.00
O319   O     0.16667   0.87155   0.09511   0.00000  Uiso   1.00
O320   O     0.16666   0.79512   0.23822   0.00000  Uiso   1.00
O321   O     0.16666   0.87155   0.23822   0.00000  Uiso   1.00
O322   O     0.16667   0.79512   0.09511   0.00000  Uiso   1.00
C323   C     0.16687   0.83334   0.07308   0.00000  Uiso   1.00
C324   C     0.16648   0.83333   0.26025   0.00000  Uiso   1.00
Zn325  Zn    0.16667   0.88437   0.16667   0.00000  Uiso   1.00
Zn326  Zn    0.16667   0.78229   0.16667   0.00000  Uiso   1.00
C327   C     0.16676   0.83334   0.02184   0.00000  Uiso   1.00
C328   C     0.16660   0.83333   0.31150   0.00000  Uiso   1.00
C329   C     0.02111   0.81149   0.12732   0.00000  Uiso   1.00
C330   C     0.31222   0.85521   0.20596   0.00000  Uiso   1.00
C331   C     0.31112   0.81099   0.12843   0.00000  Uiso   1.00
C332   C     0.02221   0.85569   0.20487   0.00000  Uiso   1.00
C333   C     0.29060   0.83298   0.16747   0.00000  Uiso   1.00
C334   C     0.04273   0.83369   0.16584   0.00000  Uiso   1.00
C335   C     0.17236   0.69034   0.20990   0.00000  Uiso   1.00
C336   C     0.16097   0.97633   0.12343   0.00000  Uiso   1.00
C337   C     0.16131   0.69030   0.12337   0.00000  Uiso   1.00
C338   C     0.17201   0.97637   0.20997   0.00000  Uiso   1.00
N339   N     0.16667   0.95240   0.16667   0.00000  Uiso   1.00
N340   N     0.16667   0.71427   0.16667   0.00000  Uiso   1.00
N341   N     0.04291   0.79178   0.08598   0.00000  Uiso   1.00
O342   O     0.03354   0.75186   0.07089   0.00000  Uiso   1.00
O343   O     0.07008   0.81493   0.06101   0.00000  Uiso   1.00
N344   N     0.29041   0.87497   0.24725   0.00000  Uiso   1.00
O345   O     0.29954   0.91505   0.26199   0.00000  Uiso   1.00
O346   O     0.26337   0.85181   0.27239   0.00000  Uiso   1.00
N347   N     0.28785   0.79116   0.08812   0.00000  Uiso   1.00
O348   O     0.27124   0.81619   0.05359   0.00000  Uiso   1.00
O349   O     0.27931   0.74889   0.08905   0.00000  Uiso   1.00
N350   N     0.04547   0.87554   0.24517   0.00000  Uiso   1.00
O351   O     0.06248   0.85051   0.27941   0.00000  Uiso   1.00
O352   O     0.05366   0.91789   0.24444   0.00000  Uiso   1.00
N353   N     0.17863   0.71260   0.25629   0.00000  Uiso   1.00
O354   O     0.14763   0.71602   0.28731   0.00000  Uiso   1.00
O355   O     0.21640   0.72239   0.27110   0.00000  Uiso   1.00
N356   N     0.15467   0.95407   0.07706   0.00000  Uiso   1.00
O357   O     0.18564   0.95066   0.04600   0.00000  Uiso   1.00
O358   O     0.11688   0.94427   0.06229   0.00000  Uiso   1.00
N359   N     0.15683   0.71247   0.07666   0.00000  Uiso   1.00
O360   O     0.11961   0.71929   0.05817   0.00000  Uiso   1.00
O361   O     0.18942   0.71711   0.04824   0.00000  Uiso   1.00
N362   N     0.17643   0.95420   0.25669   0.00000  Uiso   1.00
O363   O     0.21362   0.94742   0.27526   0.00000  Uiso   1.00
O364   O     0.14380   0.94954   0.28503   0.00000  Uiso   1.00
O365   O     0.43892   0.87154   0.16666   0.00000  Uiso   1.00
O366   O     0.56108   0.79513   0.16667   0.00000  Uiso   1.00
O367   O     0.56108   0.87154   0.16667   0.00000  Uiso   1.00
O368   O     0.43892   0.79513   0.16666   0.00000  Uiso   1.00
C369   C     0.42031   0.83337   0.16618   0.00000  Uiso   1.00
C370   C     0.57969   0.83329   0.16715   0.00000  Uiso   1.00
O371   O     0.50000   0.87155   0.09511   0.00000  Uiso   1.00
O372   O     0.50000   0.79512   0.23822   0.00000  Uiso   1.00
O373   O     0.50000   0.87155   0.23822   0.00000  Uiso   1.00
O374   O     0.50000   0.79512   0.09511   0.00000  Uiso   1.00
C375   C     0.50020   0.83334   0.07308   0.00000  Uiso   1.00
C376   C     0.49981   0.83333   0.26025   0.00000  Uiso   1.00
Zn377  Zn    0.50000   0.88437   0.16667   0.00000  Uiso   1.00
Zn378  Zn    0.50000   0.78229   0.16667   0.00000  Uiso   1.00
C379   C     0.50009   0.83334   0.02184   0.00000  Uiso   1.00
C380   C     0.49993   0.83333   0.31150   0.00000  Uiso   1.00
C381   C     0.35444   0.81149   0.12732   0.00000  Uiso   1.00
C382   C     0.64556   0.85521   0.20596   0.00000  Uiso   1.00
C383   C     0.64445   0.81099   0.12843   0.00000  Uiso   1.00
C384   C     0.35554   0.85569   0.20487   0.00000  Uiso   1.00
C385   C     0.62394   0.83298   0.16747   0.00000  Uiso   1.00
C386   C     0.37606   0.83369   0.16584   0.00000  Uiso   1.00
C387   C     0.50569   0.69034   0.20990   0.00000  Uiso   1.00
C388   C     0.49430   0.97633   0.12343   0.00000  Uiso   1.00
C389   C     0.49464   0.69030   0.12337   0.00000  Uiso   1.00
C390   C     0.50534   0.97637   0.20997   0.00000  Uiso   1.00
N391   N     0.50000   0.95240   0.16667   0.00000  Uiso   1.00
N392   N     0.50000   0.71427   0.16667   0.00000  Uiso   1.00
N393   N     0.37625   0.79178   0.08598   0.00000  Uiso   1.00
O394   O     0.36688   0.75186   0.07089   0.00000  Uiso   1.00
O395   O     0.40342   0.81493   0.06101   0.00000  Uiso   1.00
N396   N     0.62375   0.87497   0.24725   0.00000  Uiso   1.00
O397   O     0.63287   0.91505   0.26199   0.00000  Uiso   1.00
O398   O     0.59670   0.85181   0.27239   0.00000  Uiso   1.00
N399   N     0.62118   0.79116   0.08812   0.00000  Uiso   1.00
O400   O     0.60458   0.81619   0.05359   0.00000  Uiso   1.00
O401   O     0.61265   0.74889   0.08905   0.00000  Uiso   1.00
N402   N     0.37880   0.87554   0.24517   0.00000  Uiso   1.00
O403   O     0.39581   0.85051   0.27941   0.00000  Uiso   1.00
O404   O     0.38700   0.91789   0.24444   0.00000  Uiso   1.00
N405   N     0.51196   0.71260   0.25629   0.00000  Uiso   1.00
O406   O     0.48096   0.71602   0.28731   0.00000  Uiso   1.00
O407   O     0.54974   0.72239   0.27110   0.00000  Uiso   1.00
N408   N     0.48800   0.95407   0.07706   0.00000  Uiso   1.00
O409   O     0.51897   0.95066   0.04600   0.00000  Uiso   1.00
O410   O     0.45021   0.94427   0.06229   0.00000  Uiso   1.00
N411   N     0.49016   0.71247   0.07666   0.00000  Uiso   1.00
O412   O     0.45295   0.71929   0.05817   0.00000  Uiso   1.00
O413   O     0.52275   0.71711   0.04824   0.00000  Uiso   1.00
N414   N     0.50977   0.95420   0.25669   0.00000  Uiso   1.00
O415   O     0.54696   0.94742   0.27526   0.00000  Uiso   1.00
O416   O     0.47714   0.94954   0.28503   0.00000  Uiso   1.00
O417   O     0.77226   0.87154   0.16666   0.00000  Uiso   1.00
O418   O     0.89441   0.79513   0.16667   0.00000  Uiso   1.00
O419   O     0.89441   0.87154   0.16667   0.00000  Uiso   1.00
O420   O     0.77226   0.79513   0.16666   0.00000  Uiso   1.00
C421   C     0.75364   0.83337   0.16618   0.00000  Uiso   1.00
C422   C     0.91303   0.83329   0.16715   0.00000  Uiso   1.00
O423   O     0.83334   0.87155   0.09511   0.00000  Uiso   1.00
O424   O     0.83333   0.79512   0.23822   0.00000  Uiso   1.00
O425   O     0.83333   0.87155   0.23822   0.00000  Uiso   1.00
O426   O     0.83334   0.79512   0.09511   0.00000  Uiso   1.00
C427   C     0.83353   0.83334   0.07308   0.00000  Uiso   1.00
C428   C     0.83315   0.83333   0.26025   0.00000  Uiso   1.00
Zn429  Zn    0.83333   0.88437   0.16667   0.00000  Uiso   1.00
Zn430  Zn    0.83333   0.78229   0.16667   0.00000  Uiso   1.00
C431   C     0.83343   0.83334   0.02184   0.00000  Uiso   1.00
C432   C     0.83326   0.83333   0.31150   0.00000  Uiso   1.00
C433   C     0.68778   0.81149   0.12732   0.00000  Uiso   1.00
C434   C     0.97889   0.85521   0.20596   0.00000  Uiso   1.00
C435   C     0.97779   0.81099   0.12843   0.00000  Uiso   1.00
C436   C     0.68888   0.85569   0.20487   0.00000  Uiso   1.00
C437   C     0.95727   0.83298   0.16747   0.00000  Uiso   1.00
C438   C     0.70939   0.83369   0.16584   0.00000  Uiso   1.00
C439   C     0.83902   0.69034   0.20990   0.00000  Uiso   1.00
C440   C     0.82763   0.97633   0.12343   0.00000  Uiso   1.00
C441   C     0.82797   0.69030   0.12337   0.00000  Uiso   1.00
C442   C     0.83868   0.97637   0.20997   0.00000  Uiso   1.00
N443   N     0.83333   0.95240   0.16667   0.00000  Uiso   1.00
N444   N     0.83333   0.71427   0.16667   0.00000  Uiso   1.00
N445   N     0.70958   0.79178   0.08598   0.00000  Uiso   1.00
O446   O     0.70021   0.75186   0.07089   0.00000  Uiso   1.00
O447   O     0.73675   0.81493   0.06101   0.00000  Uiso   1.00
N448   N     0.95708   0.87497   0.24725   0.00000  Uiso   1.00
O449   O     0.96621   0.91505   0.26199   0.00000  Uiso   1.00
O450   O     0.93004   0.85181   0.27239   0.00000  Uiso   1.00
N451   N     0.95451   0.79116   0.08812   0.00000  Uiso   1.00
O452   O     0.93791   0.81619   0.05359   0.00000  Uiso   1.00
O453   O     0.94598   0.74889   0.08905   0.00000  Uiso   1.00
N454   N     0.71214   0.87554   0.24517   0.00000  Uiso   1.00
O455   O     0.72915   0.85051   0.27941   0.00000  Uiso   1.00
O456   O     0.72033   0.91789   0.24444   0.00000  Uiso   1.00
N457   N     0.84529   0.71260   0.25629   0.00000  Uiso   1.00
O458   O     0.81430   0.71602   0.28731   0.00000  Uiso   1.00
O459   O     0.88307   0.72239   0.27110   0.00000  Uiso   1.00
N460   N     0.82134   0.95407   0.07706   0.00000  Uiso   1.00
O461   O     0.85231   0.95066   0.04600   0.00000  Uiso   1.00
O462   O     0.78355   0.94427   0.06229   0.00000  Uiso   1.00
N463   N     0.82350   0.71247   0.07666   0.00000  Uiso   1.00
O464   O     0.78628   0.71929   0.05817   0.00000  Uiso   1.00
O465   O     0.85608   0.71711   0.04824   0.00000  Uiso   1.00
N466   N     0.84310   0.95420   0.25669   0.00000  Uiso   1.00
O467   O     0.88029   0.94742   0.27526   0.00000  Uiso   1.00
O468   O     0.81047   0.94954   0.28503   0.00000  Uiso   1.00
O469   O     0.10559   0.20487   0.50000   0.00000  Uiso   1.00
O470   O     0.22774   0.12846   0.50000   0.00000  Uiso   1.00
O471   O     0.22774   0.20487   0.50000   0.00000  Uiso   1.00
O472   O     0.10559   0.12846   0.50000   0.00000  Uiso   1.00
C473   C     0.08697   0.16671   0.49951   0.00000  Uiso   1.00
C474   C     0.24636   0.16662   0.50048   0.00000  Uiso   1.00
O475   O     0.16667   0.20488   0.42845   0.00000  Uiso   1.00
O476   O     0.16666   0.12845   0.57155   0.00000  Uiso   1.00
O477   O     0.16666   0.20488   0.57155   0.00000  Uiso   1.00
O478   O     0.16667   0.12845   0.42845   0.00000  Uiso   1.00
C479   C     0.16687   0.16667   0.40641   0.00000  Uiso   1.00
C480   C     0.16648   0.16666   0.59359   0.00000  Uiso   1.00
Zn481  Zn    0.16667   0.21771   0.50000   0.00000  Uiso   1.00
Zn482  Zn    0.16667   0.11563   0.50000   0.00000  Uiso   1.00
C483   C     0.16676   0.16667   0.35517   0.00000  Uiso   1.00
C484   C     0.16660   0.16666   0.64483   0.00000  Uiso   1.00
C485   C     0.02111   0.14482   0.46065   0.00000  Uiso   1.00
C486   C     0.31222   0.18854   0.53930   0.00000  Uiso   1.00
C487   C     0.31112   0.14432   0.46177   0.00000  Uiso   1.00
C488   C     0.02221   0.18902   0.53820   0.00000  Uiso   1.00
C489   C     0.29060   0.16631   0.50080   0.00000  Uiso   1.00
C490   C     0.04273   0.16702   0.49917   0.00000  Uiso   1.00
C491   C     0.17236   0.02367   0.54324   0.00000  Uiso   1.00
C492   C     0.16097   0.30966   0.45676   0.00000  Uiso   1.00
C493   C     0.16131   0.02363   0.45670   0.00000  Uiso   1.00
C494   C     0.17201   0.30970   0.54330   0.00000  Uiso   1.00
N495   N     0.16667   0.28573   0.50000   0.00000  Uiso   1.00
N496   N     0.16667   0.04760   0.50000   0.00000  Uiso   1.00
N497   N     0.04291   0.12511   0.41932   0.00000  Uiso   1.00
O498   O     0.03354   0.08520   0.40422   0.00000  Uiso   1.00
O499   O     0.07008   0.14826   0.39435   0.00000  Uiso   1.00
N500   N     0.29041   0.20830   0.58059   0.00000  Uiso   1.00
O501   O     0.29954   0.24839   0.59533   0.00000  Uiso   1.00
O502   O     0.26337   0.18515   0.60573   0.00000  Uiso   1.00
N503   N     0.28785   0.12450   0.42146   0.00000  Uiso   1.00
O504   O     0.27124   0.14952   0.38693   0.00000  Uiso   1.00
O505   O     0.27931   0.08222   0.42238   0.00000  Uiso   1.00
N506   N     0.04547   0.20887   0.57850   0.00000  Uiso   1.00
O507   O     0.06248   0.18384   0.61275   0.00000  Uiso   1.00
O508   O     0.05366   0.25123   0.57777   0.00000  Uiso   1.00
N509   N     0.17863   0.04593   0.58962   0.00000  Uiso   1.00
O510   O     0.14763   0.04935   0.62064   0.00000  Uiso   1.00
O511   O     0.21640   0.05572   0.60443   0.00000  Uiso   1.00
N512   N     0.15467   0.28740   0.41039   0.00000  Uiso   1.00
O513   O     0.18564   0.28399   0.37933   0.00000  Uiso   1.00
O514   O     0.11688   0.27760   0.39562   0.00000  Uiso   1.00
N515   N     0.15683   0.04580   0.40999   0.00000  Uiso   1.00
O516   O     0.11961   0.05262   0.39150   0.00000  Uiso   1.00
O517   O     0.18942   0.05044   0.38158   0.00000  Uiso   1.00
N518   N     0.17643   0.28754   0.59002   0.00000  Uiso   1.00
O519   O     0.21362   0.28076   0.60860   0.00000  Uiso   1.00
O520   O     0.14380   0.28287   0.61836   0.00000  Uiso   1.00
O521   O     0.43892   0.20487   0.50000   0.00000  Uiso   1.00
O522   O     0.56108   0.12846   0.50000   0.00000  Uiso   1.00
O523   O     0.56108   0.20487   0.50000   0.00000  Uiso   1.00
O524   O     0.43892   0.12846   0.50000   0.00000  Uiso   1.00
C525   C     0.42031   0.16671   0.49951   0.00000  Uiso   1.00
C526   C     0.57969   0.16662   0.50048   0.00000  Uiso   1.00
O527   O     0.50000   0.20488   0.42845   0.00000  Uiso   1.00
O528   O     0.50000   0.12845   0.57155   0.00000  Uiso   1.00
O529   O     0.50000   0.20488   0.57155   0.00000  Uiso   1.00
O530   O     0.50000   0.12845   0.42845   0.00000  Uiso   1.00
C531   C     0.50020   0.16667   0.40641   0.00000  Uiso   1.00
C532   C     0.49981   0.16666   0.59359   0.00000  Uiso   1.00
Zn533  Zn    0.50000   0.21771   0.50000   0.00000  Uiso   1.00
Zn534  Zn    0.50000   0.11563   0.50000   0.00000  Uiso   1.00
C535   C     0.50009   0.16667   0.35517   0.00000  Uiso   1.00
C536   C     0.49993   0.16666   0.64483   0.00000  Uiso   1.00
C537   C     0.35444   0.14482   0.46065   0.00000  Uiso   1.00
C538   C     0.64556   0.18854   0.53930   0.00000  Uiso   1.00
C539   C     0.64445   0.14432   0.46177   0.00000  Uiso   1.00
C540   C     0.35554   0.18902   0.53820   0.00000  Uiso   1.00
C541   C     0.62394   0.16631   0.50080   0.00000  Uiso   1.00
C542   C     0.37606   0.16702   0.49917   0.00000  Uiso   1.00
C543   C     0.50569   0.02367   0.54324   0.00000  Uiso   1.00
C544   C     0.49430   0.30966   0.45676   0.00000  Uiso   1.00
C545   C     0.49464   0.02363   0.45670   0.00000  Uiso   1.00
C546   C     0.50534   0.30970   0.54330   0.00000  Uiso   1.00
N547   N     0.50000   0.28573   0.50000   0.00000  Uiso   1.00
N548   N     0.50000   0.04760   0.50000   0.00000  Uiso   1.00
N549   N     0.37625   0.12511   0.41932   0.00000  Uiso   1.00
O550   O     0.36688   0.08520   0.40422   0.00000  Uiso   1.00
O551   O     0.40342   0.14826   0.39435   0.00000  Uiso   1.00
N552   N     0.62375   0.20830   0.58059   0.00000  Uiso   1.00
O553   O     0.63287   0.24839   0.59533   0.00000  Uiso   1.00
O554   O     0.59670   0.18515   0.60573   0.00000  Uiso   1.00
N555   N     0.62118   0.12450   0.42146   0.00000  Uiso   1.00
O556   O     0.60458   0.14952   0.38693   0.00000  Uiso   1.00
O557   O     0.61265   0.08222   0.42238   0.00000  Uiso   1.00
N558   N     0.37880   0.20887   0.57850   0.00000  Uiso   1.00
O559   O     0.39581   0.18384   0.61275   0.00000  Uiso   1.00
O560   O     0.38700   0.25123   0.57777   0.00000  Uiso   1.00
N561   N     0.51196   0.04593   0.58962   0.00000  Uiso   1.00
O562   O     0.48096   0.04935   0.62064   0.00000  Uiso   1.00
O563   O     0.54974   0.05572   0.60443   0.00000  Uiso   1.00
N564   N     0.48800   0.28740   0.41039   0.00000  Uiso   1.00
O565   O     0.51897   0.28399   0.37933   0.00000  Uiso   1.00
O566   O     0.45021   0.27760   0.39562   0.00000  Uiso   1.00
N567   N     0.49016   0.04580   0.40999   0.00000  Uiso   1.00
O568   O     0.45295   0.05262   0.39150   0.00000  Uiso   1.00
O569   O     0.52275   0.05044   0.38158   0.00000  Uiso   1.00
N570   N     0.50977   0.28754   0.59002   0.00000  Uiso   1.00
O571   O     0.54696   0.28076   0.60860   0.00000  Uiso   1.00
O572   O     0.47714   0.28287   0.61836   0.00000  Uiso   1.00
O573   O     0.77226   0.20487   0.50000   0.00000  Uiso   1.00
O574   O     0.89441   0.12846   0.50000   0.00000  Uiso   1.00
O575   O     0.89441   0.20487   0.50000   0.00000  Uiso   1.00
O576   O     0.77226   0.12846   0.50000   0.00000  Uiso   1.00
C577   C     0.75364   0.16671   0.49951   0.00000  Uiso   1.00
C578   C     0.91303   0.16662   0.50048   0.00000  Uiso   1.00
O579   O     0.83334   0.20488   0.42845   0.00000  Uiso   1.00
O580   O     0.83333   0.12845   0.57155   0.00000  Uiso   1.00
O581   O     0.83333   0.20488   0.57155   0.00000  Uiso   1.00
O582   O     0.83334   0.12845   0.42845   0.00000  Uiso   1.00
C583   C     0.83353   0.16667   0.40641   0.00000  Uiso   1.00
C584   C     0.83315   0.16666   0.59359   0.00000  Uiso   1.00
Zn585  Zn    0.83333   0.21771   0.50000   0.00000  Uiso   1.00
Zn586  Zn    0.83333   0.11563   0.50000   0.00000  Uiso   1.00
C587   C     0.83343   0.16667   0.35517   0.00000  Uiso   1.00
C588   C     0.83326   0.16666   0.64483   0.00000  Uiso   1.00
C589   C     0.68778   0.14482   0.46065   0.00000  Uiso   1.00
C590   C     0.97889   0.18854   0.53930   0.00000  Uiso   1.00
C591   C     0.97779   0.14432   0.46177   0.00000  Uiso   1.00
C592   C     0.68888   0.18902   0.53820   0.00000  Uiso   1.00
C593   C     0.95727   0.16631   0.50080   0.00000  Uiso   1.00
C594   C     0.70939   0.16702   0.49917   0.00000  Uiso   1.00
C595   C     0.83902   0.02367   0.54324   0.00000  Uiso   1.00
C596   C     0.82763   0.30966   0.45676   0.00000  Uiso   1.00
C597   C     0.82797   0.02363   0.45670   0.00000  Uiso   1.00
C598   C     0.83868   0.30970   0.54330   0.00000  Uiso   1.00
N599   N     0.83333   0.28573   0.50000   0.00000  Uiso   1.00
N600   N     0.83333   0.04760   0.50000   0.00000  Uiso   1.00
N601   N     0.70958   0.12511   0.41932   0.00000  Uiso   1.00
O602   O     0.70021   0.08520   0.40422   0.00000  Uiso   1.00
O603   O     0.73675   0.14826   0.39435   0.00000  Uiso   1.00
N604   N     0.95708   0.20830   0.58059   0.00000  Uiso   1.00
O605   O     0.96621   0.24839   0.59533   0.00000  Uiso   1.00
O606   O     0.93004   0.18515   0.60573   0.00000  Uiso   1.00
N607   N     0.95451   0.12450   0.42146   0.00000  Uiso   1.00
O608   O     0.93791   0.14952   0.38693   0.00000  Uiso   1.00
O609   O     0.94598   0.08222   0.42238   0.00000  Uiso   1.00
N610   N     0.71214   0.20887   0.57850   0.00000  Uiso   1.00
O611   O     0.72915   0.18384   0.61275   0.00000  Uiso   1.00
O612   O     0.72033   0.25123   0.57777   0.00000  Uiso   1.00
N613   N     0.84529   0.04593   0.58962   0.00000  Uiso   1.00
O614   O     0.81430   0.04935   0.62064   0.00000  Uiso   1.00
O615   O     0.88307   0.05572   0.60443   0.00000  Uiso   1.00
N616   N     0.82134   0.28740   0.41039   0.00000  Uiso   1.00
O617   O     0.85231   0.28399   0.37933   0.00000  Uiso   1.00
O618   O     0.78355   0.27760   0.39562   0.00000  Uiso   1.00
N619   N     0.82350   0.04580   0.40999   0.00000  Uiso   1.00
O620   O     0.78628   0.05262   0.39150   0.00000  Uiso   1.00
O621   O     0.85608   0.05044   0.38158   0.00000  Uiso   1.00
N622   N     0.84310   0.28754   0.59002   0.00000  Uiso   1.00
O623   O     0.88029   0.28076   0.60860   0.00000  Uiso   1.00
O624   O     0.81047   0.28287   0.61836   0.00000  Uiso   1.00
O625   O     0.10559   0.53821   0.50000   0.00000  Uiso   1.00
O626   O     0.22774   0.46179   0.50000   0.00000  Uiso   1.00
O627   O     0.22774   0.53821   0.50000   0.00000  Uiso   1.00
O628   O     0.10559   0.46179   0.50000   0.00000  Uiso   1.00
C629   C     0.08697   0.50004   0.49951   0.00000  Uiso   1.00
C630   C     0.24636   0.49996   0.50048   0.00000  Uiso   1.00
O631   O     0.16667   0.53821   0.42845   0.00000  Uiso   1.00
O632   O     0.16666   0.46179   0.57155   0.00000  Uiso   1.00
O633   O     0.16666   0.53821   0.57155   0.00000  Uiso   1.00
O634   O     0.16667   0.46179   0.42845   0.00000  Uiso   1.00
C635   C     0.16687   0.50001   0.40641   0.00000  Uiso   1.00
C636   C     0.16648   0.50000   0.59359   0.00000  Uiso   1.00
Zn637  Zn    0.16667   0.55104   0.50000   0.00000  Uiso   1.00
Zn638  Zn    0.16667   0.44896   0.50000   0.00000  Uiso   1.00
C639   C     0.16676   0.50001   0.35517   0.00000  Uiso   1.00
C640   C     0.16660   0.49999   0.64483   0.00000  Uiso   1.00
C641   C     0.02111   0.47816   0.46065   0.00000  Uiso   1.00
C642   C     0.31222   0.52187   0.53930   0.00000  Uiso   1.00
C643   C     0.31112   0.47765   0.46177   0.00000  Uiso   1.00
C644   C     0.02221   0.52236   0.53820   0.00000  Uiso   1.00
C645   C     0.29060   0.49965   0.50080   0.00000  Uiso   1.00
C646   C     0.04273   0.50035   0.49917   0.00000  Uiso   1.00
C647   C     0.17236   0.35700   0.54324   0.00000  Uiso   1.00
C648   C     0.16097   0.64300   0.45676   0.00000  Uiso   1.00
C649   C     0.16131   0.35696   0.45670   0.00000  Uiso   1.00
C650   C     0.17201   0.64304   0.54330   0.00000  Uiso   1.00
N651   N     0.16667   0.61907   0.50000   0.00000  Uiso   1.00
N652   N     0.16667   0.38093   0.50000   0.00000  Uiso   1.00
N653   N     0.04291   0.45845   0.41932   0.00000  Uiso   1.00
O654   O     0.03354   0.41853   0.40422   0.00000  Uiso   1.00
O655   O     0.07008   0.48159   0.39435   0.00000  Uiso   1.00
N656   N     0.29041   0.54164   0.58059   0.00000  Uiso   1.00
O657   O     0.29954   0.58172   0.59533   0.00000  Uiso   1.00
O658   O     0.26337   0.51848   0.60573   0.00000  Uiso   1.00
N659   N     0.28785   0.45783   0.42146   0.00000  Uiso   1.00
O660   O     0.27124   0.48285   0.38693   0.00000  Uiso   1.00
O661   O     0.27931   0.41556   0.42238   0.00000  Uiso   1.00
N662   N     0.04547   0.54221   0.57850   0.00000  Uiso   1.00
O663   O     0.06248   0.51717   0.61275   0.00000  Uiso   1.00
O664   O     0.05366   0.58456   0.57777   0.00000  Uiso   1.00
N665   N     0.17863   0.37927   0.58962   0.00000  Uiso   1.00
O666   O     0.14763   0.38268   0.62064   0.00000  Uiso   1.00
O667   O     0.21640   0.38905   0.60443   0.00000  Uiso   1.00
N668   N     0.15467   0.62073   0.41039   0.00000  Uiso   1.00
O669   O     0.18564   0.61733   0.37933   0.00000  Uiso   1.00
O670   O     0.11688   0.61093   0.39562   0.00000  Uiso   1.00
N671   N     0.15683   0.37913   0.40999   0.00000  Uiso   1.00
O672   O     0.11961   0.38596   0.39150   0.00000  Uiso   1.00
O673   O     0.18942   0.38378   0.38158   0.00000  Uiso   1.00
N674   N     0.17643   0.62087   0.59002   0.00000  Uiso   1.00
O675   O     0.21362   0.61409   0.60860   0.00000  Uiso   1.00
O676   O     0.14380   0.61620   0.61836   0.00000  Uiso   1.00
O677   O     0.43892   0.53821   0.50000   0.00000  Uiso   1.00
O678   O     0.56108   0.46179   0.50000   0.00000  Uiso   1.00
O679   O     0.56108   0.53821   0.50000   0.00000  Uiso   1.00
O680   O     0.43892   0.46179   0.50000   0.00000  Uiso   1.00
C681   C     0.42031   0.50004   0.49951   0.00000  Uiso   1.00
C682   C     0.57969   0.49996   0.50048   0.00000  Uiso   1.00
O683   O     0.50000   0.53821   0.42845   0.00000  Uiso   1.00
O684   O     0.50000   0.46179   0.57155   0.00000  Uiso   1.00
O685   O     0.50000   0.53821   0.57155   0.00000  Uiso   1.00
O686   O     0.50000   0.46179   0.42845   0.00000  Uiso   1.00
C687   C     0.50020   0.50001   0.40641   0.00000  Uiso   1.00
C688   C     0.49981   0.50000   0.59359   0.00000  Uiso   1.00
Zn689  Zn    0.50000   0.55104   0.50000   0.00000  Uiso   1.00
Zn690  Zn    0.50000   0.44896   0.50000   0.00000  Uiso   1.00
C691   C     0.50009   0.50001   0.35517   0.00000  Uiso   1.00
C692   C     0.49993   0.49999   0.64483   0.00000  Uiso   1.00
C693   C     0.35444   0.47816   0.46065   0.00000  Uiso   1.00
C694   C     0.64556   0.52187   0.53930   0.00000  Uiso   1.00
C695   C     0.64445   0.47765   0.46177   0.00000  Uiso   1.00
C696   C     0.35554   0.52236   0.53820   0.00000  Uiso   1.00
C697   C     0.62394   0.49965   0.50080   0.00000  Uiso   1.00
C698   C     0.37606   0.50035   0.49917   0.00000  Uiso   1.00
C699   C     0.50569   0.35700   0.54324   0.00000  Uiso   1.00
C700   C     0.49430   0.64300   0.45676   0.00000  Uiso   1.00
C701   C     0.49464   0.35696   0.45670   0.00000  Uiso   1.00
C702   C     0.50534   0.64304   0.54330   0.00000  Uiso   1.00
N703   N     0.50000   0.61907   0.50000   0.00000  Uiso   1.00
N704   N     0.50000   0.38093   0.50000   0.00000  Uiso   1.00
N705   N     0.37625   0.45845   0.41932   0.00000  Uiso   1.00
O706   O     0.36688   0.41853   0.40422   0.00000  Uiso   1.00
O707   O     0.40342   0.48159   0.39435   0.00000  Uiso   1.00
N708   N     0.62375   0.54164   0.58059   0.00000  Uiso   1.00
O709   O     0.63287   0.58172   0.59533   0.00000  Uiso   1.00
O710   O     0.59670   0.51848   0.60573   0.00000  Uiso   1.00
N711   N     0.62118   0.45783   0.42146   0.00000  Uiso   1.00
O712   O     0.60458   0.48285   0.38693   0.00000  Uiso   1.00
O713   O     0.61265   0.41556   0.42238   0.00000  Uiso   1.00
N714   N     0.37880   0.54221   0.57850   0.00000  Uiso   1.00
O715   O     0.39581   0.51717   0.61275   0.00000  Uiso   1.00
O716   O     0.38700   0.58456   0.57777   0.00000  Uiso   1.00
N717   N     0.51196   0.37927   0.58962   0.00000  Uiso   1.00
O718   O     0.48096   0.38268   0.62064   0.00000  Uiso   1.00
O719   O     0.54974   0.38905   0.60443   0.00000  Uiso   1.00
N720   N     0.48800   0.62073   0.41039   0.00000  Uiso   1.00
O721   O     0.51897   0.61733   0.37933   0.00000  Uiso   1.00
O722   O     0.45021   0.61093   0.39562   0.00000  Uiso   1.00
N723   N     0.49016   0.37913   0.40999   0.00000  Uiso   1.00
O724   O     0.45295   0.38596   0.39150   0.00000  Uiso   1.00
O725   O     0.52275   0.38378   0.38158   0.00000  Uiso   1.00
N726   N     0.50977   0.62087   0.59002   0.00000  Uiso   1.00
O727   O     0.54696   0.61409   0.60860   0.00000  Uiso   1.00
O728   O     0.47714   0.61620   0.61836   0.00000  Uiso   1.00
O729   O     0.77226   0.53821   0.50000   0.00000  Uiso   1.00
O730   O     0.89441   0.46179   0.50000   0.00000  Uiso   1.00
O731   O     0.89441   0.53821   0.50000   0.00000  Uiso   1.00
O732   O     0.77226   0.46179   0.50000   0.00000  Uiso   1.00
C733   C     0.75364   0.50004   0.49951   0.00000  Uiso   1.00
C734   C     0.91303   0.49996   0.50048   0.00000  Uiso   1.00
O735   O     0.83334   0.53821   0.42845   0.00000  Uiso   1.00
O736   O     0.83333   0.46179   0.57155   0.00000  Uiso   1.00
O737   O     0.83333   0.53821   0.57155   0.00000  Uiso   1.00
O738   O     0.83334   0.46179   0.42845   0.00000  Uiso   1.00
C739   C     0.83353   0.50001   0.40641   0.00000  Uiso   1.00
C740   C     0.83315   0.50000   0.59359   0.00000  Uiso   1.00
Zn741  Zn    0.83333   0.55104   0.50000   0.00000  Uiso   1.00
Zn742  Zn    0.83333   0.44896   0.50000   0.00000  Uiso   1.00
C743   C     0.83343   0.50001   0.35517   0.00000  Uiso   1.00
C744   C     0.83326   0.49999   0.64483   0.00000  Uiso   1.00
C745   C     0.68778   0.47816   0.46065   0.00000  Uiso   1.00
C746   C     0.97889   0.52187   0.53930   0.00000  Uiso   1.00
C747   C     0.97779   0.47765   0.46177   0.00000  Uiso   1.00
C748   C     0.68888   0.52236   0.53820   0.00000  Uiso   1.00
C749   C     0.95727   0.49965   0.50080   0.00000  Uiso   1.00
C750   C     0.70939   0.50035   0.49917   0.00000  Uiso   1.00
C751   C     0.83902   0.35700   0.54324   0.00000  Uiso   1.00
C752   C     0.82763   0.64300   0.45676   0.00000  Uiso   1.00
C753   C     0.82797   0.35696   0.45670   0.00000  Uiso   1.00
C754   C     0.83868   0.64304   0.54330   0.00000  Uiso   1.00
N755   N     0.83333   0.61907   0.50000   0.00000  Uiso   1.00
N756   N     0.83333   0.38093   0.50000   0.00000  Uiso   1.00
N757   N     0.70958   0.45845   0.41932   0.00000  Uiso   1.00
O758   O     0.70021   0.41853   0.40422   0.00000  Uiso   1.00
O759   O     0.73675   0.48159   0.39435   0.00000  Uiso   1.00
N760   N     0.95708   0.54164   0.58059   0.00000  Uiso   1.00
O761   O     0.96621   0.58172   0.59533   0.00000  Uiso   1.00
O762   O     0.93004   0.51848   0.60573   0.00000  Uiso   1.00
N763   N     0.95451   0.45783   0.42146   0.00000  Uiso   1.00
O764   O     0.93791   0.48285   0.38693   0.00000  Uiso   1.00
O765   O     0.94598   0.41556   0.42238   0.00000  Uiso   1.00
N766   N     0.71214   0.54221   0.57850   0.00000  Uiso   1.00
O767   O     0.72915   0.51717   0.61275   0.00000  Uiso   1.00
O768   O     0.72033   0.58456   0.57777   0.00000  Uiso   1.00
N769   N     0.84529   0.37927   0.58962   0.00000  Uiso   1.00
O770   O     0.81430   0.38268   0.62064   0.00000  Uiso   1.00
O771   O     0.88307   0.38905   0.60443   0.00000  Uiso   1.00
N772   N     0.82134   0.62073   0.41039   0.00000  Uiso   1.00
O773   O     0.85231   0.61733   0.37933   0.00000  Uiso   1.00
O774   O     0.78355   0.61093   0.39562   0.00000  Uiso   1.00
N775   N     0.82350   0.37913   0.40999   0.00000  Uiso   1.00
O776   O     0.78628   0.38596   0.39150   0.00000  Uiso   1.00
O777   O     0.85608   0.38378   0.38158   0.00000  Uiso   1.00
N778   N     0.84310   0.62087   0.59002   0.00000  Uiso   1.00
O779   O     0.88029   0.61409   0.60860   0.00000  Uiso   1.00
O780   O     0.81047   0.61620   0.61836   0.00000  Uiso   1.00
O781   O     0.10559   0.87154   0.50000   0.00000  Uiso   1.00
O782   O     0.22774   0.79513   0.50000   0.00000  Uiso   1.00
O783   O     0.22774   0.87154   0.50000   0.00000  Uiso   1.00
O784   O     0.10559   0.79513   0.50000   0.00000  Uiso   1.00
C785   C     0.08697   0.83337   0.49951   0.00000  Uiso   1.00
C786   C     0.24636   0.83329   0.50048   0.00000  Uiso   1.00
O787   O     0.16667   0.87155   0.42845   0.00000  Uiso   1.00
O788   O     0.16666   0.79512   0.57155   0.00000  Uiso   1.00
O789   O     0.16666   0.87155   0.57155   0.00000  Uiso   1.00
O790   O     0.16667   0.79512   0.42845   0.00000  Uiso   1.00
C791   C     0.16687   0.83334   0.40641   0.00000  Uiso   1.00
C792   C     0.16648   0.83333   0.59359   0.00000  Uiso   1.00
Zn793  Zn    0.16667   0.88437   0.50000   0.00000  Uiso   1.00
Zn794  Zn    0.16667   0.78229   0.50000   0.00000  Uiso   1.00
C795   C     0.16676   0.83334   0.35517   0.00000  Uiso   1.00
C796   C     0.16660   0.83333   0.64483   0.00000  Uiso   1.00
C797   C     0.02111   0.81149   0.46065   0.00000  Uiso   1.00
C798   C     0.31222   0.85521   0.53930   0.00000  Uiso   1.00
C799   C     0.31112   0.81099   0.46177   0.00000  Uiso   1.00
C800   C     0.02221   0.85569   0.53820   0.00000  Uiso   1.00
C801   C     0.29060   0.83298   0.50080   0.00000  Uiso   1.00
C802   C     0.04273   0.83369   0.49917   0.00000  Uiso   1.00
C803   C     0.17236   0.69034   0.54324   0.00000  Uiso   1.00
C804   C     0.16097   0.97633   0.45676   0.00000  Uiso   1.00
C805   C     0.16131   0.69030   0.45670   0.00000  Uiso   1.00
C806   C     0.17201   0.97637   0.54330   0.00000  Uiso   1.00
N807   N     0.16667   0.95240   0.50000   0.00000  Uiso   1.00
N808   N     0.16667   0.71427   0.50000   0.00000  Uiso   1.00
N809   N     0.04291   0.79178   0.41932   0.00000  Uiso   1.00
O810   O     0.03354   0.75186   0.40422   0.00000  Uiso   1.00
O811   O     0.07008   0.81493   0.39435   0.00000  Uiso   1.00
N812   N     0.29041   0.87497   0.58059   0.00000  Uiso   1.00
O813   O     0.29954   0.91505   0.59533   0.00000  Uiso   1.00
O814   O     0.26337   0.85181   0.60573   0.00000  Uiso   1.00
N815   N     0.28785   0.79116   0.42146   0.00000  Uiso   1.00
O816   O     0.27124   0.81619   0.38693   0.00000  Uiso   1.00
O817   O     0.27931   0.74889   0.42238   0.00000  Uiso   1.00
N818   N     0.04547   0.87554   0.57850   0.00000  Uiso   1.00
O819   O     0.06248   0.85051   0.61275   0.00000  Uiso   1.00
O820   O     0.05366   0.91789   0.57777   0.00000  Uiso   1.00
N821   N     0.17863   0.71260   0.58962   0.00000  Uiso   1.00
O822   O     0.14763   0.71602   0.62064   0.00000  Uiso   1.00
O823   O     0.21640   0.72239   0.60443   0.00000  Uiso   1.00
N824   N     0.15467   0.95407   0.41039   0.00000  Uiso   1.00
O825   O     0.18564   0.95066   0.37933   0.00000  Uiso   1.00
O826   O     0.11688   0.94427   0.39562   0.00000  Uiso   1.00
N827   N     0.15683   0.71247   0.40999   0.00000  Uiso   1.00
O828   O     0.11961   0.71929   0.39150   0.00000  Uiso   1.00
O829   O     0.18942   0.71711   0.38158   0.00000  Uiso   1.00
N830   N     0.17643   0.95420   0.59002   0.00000  Uiso   1.00
O831   O     0.21362   0.94742   0.60860   0.00000  Uiso   1.00
O832   O     0.14380   0.94954   0.61836   0.00000  Uiso   1.00
O833   O     0.43892   0.87154   0.50000   0.00000  Uiso   1.00
O834   O     0.56108   0.79513   0.50000   0.00000  Uiso   1.00
O835   O     0.56108   0.87154   0.50000   0.00000  Uiso   1.00
O836   O     0.43892   0.79513   0.50000   0.00000  Uiso   1.00
C837   C     0.42031   0.83337   0.49951   0.00000  Uiso   1.00
C838   C     0.57969   0.83329   0.50048   0.00000  Uiso   1.00
O839   O     0.50000   0.87155   0.42845   0.00000  Uiso   1.00
O840   O     0.50000   0.79512   0.57155   0.00000  Uiso   1.00
O841   O     0.50000   0.87155   0.57155   0.00000  Uiso   1.00
O842   O     0.50000   0.79512   0.42845   0.00000  Uiso   1.00
C843   C     0.50020   0.83334   0.40641   0.00000  Uiso   1.00
C844   C     0.49981   0.83333   0.59359   0.00000  Uiso   1.00
Zn845  Zn    0.50000   0.88437   0.50000   0.00000  Uiso   1.00
Zn846  Zn    0.50000   0.78229   0.50000   0.00000  Uiso   1.00
C847   C     0.50009   0.83334   0.35517   0.00000  Uiso   1.00
C848   C     0.49993   0.83333   0.64483   0.00000  Uiso   1.00
C849   C     0.35444   0.81149   0.46065   0.00000  Uiso   1.00
C850   C     0.64556   0.85521   0.53930   0.00000  Uiso   1.00
C851   C     0.64445   0.81099   0.46177   0.00000  Uiso   1.00
C852   C     0.35554   0.85569   0.53820   0.00000  Uiso   1.00
C853   C     0.62394   0.83298   0.50080   0.00000  Uiso   1.00
C854   C     0.37606   0.83369   0.49917   0.00000  Uiso   1.00
C855   C     0.50569   0.69034   0.54324   0.00000  Uiso   1.00
C856   C     0.49430   0.97633   0.45676   0.00000  Uiso   1.00
C857   C     0.49464   0.69030   0.45670   0.00000  Uiso   1.00
C858   C     0.50534   0.97637   0.54330   0.00000  Uiso   1.00
N859   N     0.50000   0.95240   0.50000   0.00000  Uiso   1.00
N860   N     0.50000   0.71427   0.50000   0.00000  Uiso   1.00
N861   N     0.37625   0.79178   0.41932   0.00000  Uiso   1.00
O862   O     0.36688   0.75186   0.40422   0.00000  Uiso   1.00
O863   O     0.40342   0.81493   0.39435   0.00000  Uiso   1.00
N864   N     0.62375   0.87497   0.58059   0.00000  Uiso   1.00
O865   O     0.63287   0.91505   0.59533   0.00000  Uiso   1.00
O866   O     0.59670   0.85181   0.60573   0.00000  Uiso   1.00
N867   N     0.62118   0.79116   0.42146   0.00000  Uiso   1.00
O868   O     0.60458   0.81619   0.38693   0.00000  Uiso   1.00
O869   O     0.61265   0.74889   0.42238   0.00000  Uiso   1.00
N870   N     0.37880   0.87554   0.57850   0.00000  Uiso   1.00
O871   O     0.39581   0.85051   0.61275   0.00000  Uiso   1.00
O872   O     0.38700   0.91789   0.57777   0.00000  Uiso   1.00
N873   N     0.51196   0.71260   0.58962   0.00000  Uiso   1.00
O874   O     0.48096   0.71602   0.62064   0.00000  Uiso   1.00
O875   O     0.54974   0.72239   0.60443   0.00000  Uiso   1.00
N876   N     0.48800   0.95407   0.41039   0.00000  Uiso   1.00
O877   O     0.51897   0.95066   0.37933   0.00000  Uiso   1.00
O878   O     0.45021   0.94427   0.39562   0.00000  Uiso   1.00
N879   N     0.49016   0.71247   0.40999   0.00000  Uiso   1.00
O880   O     0.45295   0.71929   0.39150   0.00000  Uiso   1.00
O881   O     0.52275   0.71711   0.38158   0.00000  Uiso   1.00
N882   N     0.50977   0.95420   0.59002   0.00000  Uiso   1.00
O883   O     0.54696   0.94742   0.60860   0.00000  Uiso   1.00
O884   O     0.47714   0.94954   0.61836   0.00000  Uiso   1.00
O885   O     0.77226   0.87154   0.50000   0.00000  Uiso   1.00
O886   O     0.89441   0.79513   0.50000   0.00000  Uiso   1.00
O887   O     0.89441   0.87154   0.50000   0.00000  Uiso   1.00
O888   O     0.77226   0.79513   0.50000   0.00000  Uiso   1.00
C889   C     0.75364   0.83337   0.49951   0.00000  Uiso   1.00
C890   C     0.91303   0.83329   0.50048   0.00000  Uiso   1.00
O891   O     0.83334   0.87155   0.42845   0.00000  Uiso   1.00
O892   O     0.83333   0.79512   0.57155   0.00000  Uiso   1.00
O893   O     0.83333   0.87155   0.57155   0.00000  Uiso   1.00
O894   O     0.83334   0.79512   0.42845   0.00000  Uiso   1.00
C895   C     0.83353   0.83334   0.40641   0.00000  Uiso   1.00
C896   C     0.83315   0.83333   0.59359   0.00000  Uiso   1.00
Zn897  Zn    0.83333   0.88437   0.50000   0.00000  Uiso   1.00
Zn898  Zn    0.83333   0.78229   0.50000   0.00000  Uiso   1.00
C899   C     0.83343   0.83334   0.35517   0.00000  Uiso   1.00
C900   C     0.83326   0.83333   0.64483   0.00000  Uiso   1.00
C901   C     0.68778   0.81149   0.46065   0.00000  Uiso   1.00
C902   C     0.97889   0.85521   0.53930   0.00000  Uiso   1.00
C903   C     0.97779   0.81099   0.46177   0.00000  Uiso   1.00
C904   C     0.68888   0.85569   0.53820   0.00000  Uiso   1.00
C905   C     0.95727   0.83298   0.50080   0.00000  Uiso   1.00
C906   C     0.70939   0.83369   0.49917   0.00000  Uiso   1.00
C907   C     0.83902   0.69034   0.54324   0.00000  Uiso   1.00
C908   C     0.82763   0.97633   0.45676   0.00000  Uiso   1.00
C909   C     0.82797   0.69030   0.45670   0.00000  Uiso   1.00
C910   C     0.83868   0.97637   0.54330   0.00000  Uiso   1.00
N911   N     0.83333   0.95240   0.50000   0.00000  Uiso   1.00
N912   N     0.83333   0.71427   0.50000   0.00000  Uiso   1.00
N913   N     0.70958   0.79178   0.41932   0.00000  Uiso   1.00
O914   O     0.70021   0.75186   0.40422   0.00000  Uiso   1.00
O915   O     0.73675   0.81493   0.39435   0.00000  Uiso   1.00
N916   N     0.95708   0.87497   0.58059   0.00000  Uiso   1.00
O917   O     0.96621   0.91505   0.59533   0.00000  Uiso   1.00
O918   O     0.93004   0.85181   0.60573   0.00000  Uiso   1.00
N919   N     0.95451   0.79116   0.42146   0.00000  Uiso   1.00
O920   O     0.93791   0.81619   0.38693   0.00000  Uiso   1.00
O921   O     0.94598   0.74889   0.42238   0.00000  Uiso   1.00
N922   N     0.71214   0.87554   0.57850   0.00000  Uiso   1.00
O923   O     0.72915   0.85051   0.61275   0.00000  Uiso   1.00
O924   O     0.72033   0.91789   0.57777   0.00000  Uiso   1.00
N925   N     0.84529   0.71260   0.58962   0.00000  Uiso   1.00
O926   O     0.81430   0.71602   0.62064   0.00000  Uiso   1.00
O927   O     0.88307   0.72239   0.60443   0.00000  Uiso   1.00
N928   N     0.82134   0.95407   0.41039   0.00000  Uiso   1.00
O929   O     0.85231   0.95066   0.37933   0.00000  Uiso   1.00
O930   O     0.78355   0.94427   0.39562   0.00000  Uiso   1.00
N931   N     0.82350   0.71247   0.40999   0.00000  Uiso   1.00
O932   O     0.78628   0.71929   0.39150   0.00000  Uiso   1.00
O933   O     0.85608   0.71711   0.38158   0.00000  Uiso   1.00
N934   N     0.84310   0.95420   0.59002   0.00000  Uiso   1.00
O935   O     0.88029   0.94742   0.60860   0.00000  Uiso   1.00
O936   O     0.81047   0.94954   0.61836   0.00000  Uiso   1.00
O937   O     0.10559   0.20487   0.83333   0.00000  Uiso   1.00
O938   O     0.22774   0.12846   0.83334   0.00000  Uiso   1.00
O939   O     0.22774   0.20487   0.83334   0.00000  Uiso   1.00
O940   O     0.10559   0.12846   0.83333   0.00000  Uiso   1.00
C941   C     0.08697   0.16671   0.83284   0.00000  Uiso   1.00
C942   C     0.24636   0.16662   0.83381   0.00000  Uiso   1.00
O943   O     0.16667   0.20488   0.76178   0.00000  Uiso   1.00
O944   O     0.16666   0.12845   0.90489   0.00000  Uiso   1.00
O945   O     0.16666   0.20488   0.90489   0.00000  Uiso   1.00
O946   O     0.16667   0.12845   0.76178   0.00000  Uiso   1.00
C947   C     0.16687   0.16667   0.73975   0.00000  Uiso   1.00
C948   C     0.16648   0.16666   0.92692   0.00000  Uiso   1.00
Zn949  Zn    0.16667   0.21771   0.83333   0.00000  Uiso   1.00
Zn950  Zn    0.16667   0.11563   0.83333   0.00000  Uiso   1.00
C951   C     0.16676   0.16667   0.68850   0.00000  Uiso   1.00
C952   C     0.16660   0.16666   0.97816   0.00000  Uiso   1.00
C953   C     0.02111   0.14482   0.79398   0.00000  Uiso   1.00
C954   C     0.31222   0.18854   0.87263   0.00000  Uiso   1.00
C955   C     0.31112   0.14432   0.79510   0.00000  Uiso   1.00
C956   C     0.02221   0.18902   0.87154   0.00000  Uiso   1.00
C957   C     0.29060   0.16631   0.83413   0.00000  Uiso   1.00
C958   C     0.04273   0.16702   0.83251   0.00000  Uiso   1.00
C959   C     0.17236   0.02367   0.87657   0.00000  Uiso   1.00
C960   C     0.16097   0.30966   0.79010   0.00000  Uiso   1.00
C961   C     0.16131   0.02363   0.79003   0.00000  Uiso   1.00
C962   C     0.17201   0.30970   0.87664   0.00000  Uiso   1.00
N963   N     0.16667   0.28573   0.83333   0.00000  Uiso   1.00
N964   N     0.16667   0.04760   0.83333   0.00000  Uiso   1.00
N965   N     0.04291   0.12511   0.75265   0.00000  Uiso   1.00
O966   O     0.03354   0.08520   0.73756   0.00000  Uiso   1.00
O967   O     0.07008   0.14826   0.72768   0.00000  Uiso   1.00
N968   N     0.29041   0.20830   0.91392   0.00000  Uiso   1.00
O969   O     0.29954   0.24839   0.92866   0.00000  Uiso   1.00
O970   O     0.26337   0.18515   0.93906   0.00000  Uiso   1.00
N971   N     0.28785   0.12450   0.75479   0.00000  Uiso   1.00
O972   O     0.27124   0.14952   0.72026   0.00000  Uiso   1.00
O973   O     0.27931   0.08222   0.75572   0.00000  Uiso   1.00
N974   N     0.04547   0.20887   0.91184   0.00000  Uiso   1.00
O975   O     0.06248   0.18384   0.94608   0.00000  Uiso   1.00
O976   O     0.05366   0.25123   0.91111   0.00000  Uiso   1.00
N977   N     0.17863   0.04593   0.92295   0.00000  Uiso   1.00
O978   O     0.14763   0.04935   0.95397   0.00000  Uiso   1.00
O979   O     0.21640   0.05572   0.93776   0.00000  Uiso   1.00
N980   N     0.15467   0.28740   0.74372   0.00000  Uiso   1.00
O981   O     0.18564   0.28399   0.71267   0.00000  Uiso   1.00
O982   O     0.11688   0.27760   0.72896   0.00000  Uiso   1.00
N983   N     0.15683   0.04580   0.74332   0.00000  Uiso   1.00
O984   O     0.11961   0.05262   0.72483   0.00000  Uiso   1.00
O985   O     0.18942   0.05044   0.71491   0.00000  Uiso   1.00
N986   N     0.17643   0.28754   0.92336   0.00000  Uiso   1.00
O987   O     0.21362   0.28076   0.94193   0.00000  Uiso   1.00
O988   O     0.14380   0.28287   0.95170   0.00000  Uiso   1.00
O989   O     0.43892   0.20487   0.83333   0.00000  Uiso   1.00
O990   O     0.56108   0.12846   0.83334   0.00000  Uiso   1.00
O991   O     0.56108   0.20487   0.83334   0.00000  Uiso   1.00
O992   O     0.43892   0.12846   0.83333   0.00000  Uiso   1.00
C993   C     0.42031   0.16671   0.83284   0.00000  Uiso   1.00
C994   C     0.57969   0.16662   0.83381   0.00000  Uiso   1.00
O995   O     0.50000   0.20488   0.76178   0.00000  Uiso   1.00
O996   O     0.50000   0.12845   0.90489   0.00000  Uiso   1.00
O997   O     0.50000   0.20488   0.90489   0.00000  Uiso   1.00
O998   O     0.50000   0.12845   0.76178   0.00000  Uiso   1.00
C999   C     0.50020   0.16667   0.73975   0.00000  Uiso   1.00
C1000  C     0.49981   0.16666   0.92692   0.00000  Uiso   1.00
Zn1001 Zn    0.50000   0.21771   0.83333   0.00000  Uiso   1.00
Zn1002 Zn    0.50000   0.11563   0.83333   0.00000  Uiso   1.00
C1003  C     0.50009   0.16667   0.68850   0.00000  Uiso   1.00
C1004  C     0.49993   0.16666   0.97816   0.00000  Uiso   1.00
C1005  C     0.35444   0.14482   0.79398   0.00000  Uiso   1.00
C1006  C     0.64556   0.18854   0.87263   0.00000  Uiso   1.00
C1007  C     0.64445   0.14432   0.79510   0.00000  Uiso   1.00
C1008  C     0.35554   0.18902   0.87154   0.00000  Uiso   1.00
C1009  C     0.62394   0.16631   0.83413   0.00000  Uiso   1.00
C1010  C     0.37606   0.16702   0.83251   0.00000  Uiso   1.00
C1011  C     0.50569   0.02367   0.87657   0.00000  Uiso   1.00
C1012  C     0.49430   0.30966   0.79010   0.00000  Uiso   1.00
C1013  C     0.49464   0.02363   0.79003   0.00000  Uiso   1.00
C1014  C     0.50534   0.30970   0.87664   0.00000  Uiso   1.00
N1015  N     0.50000   0.28573   0.83333   0.00000  Uiso   1.00
N1016  N     0.50000   0.04760   0.83333   0.00000  Uiso   1.00
N1017  N     0.37625   0.12511   0.75265   0.00000  Uiso   1.00
O1018  O     0.36688   0.08520   0.73756   0.00000  Uiso   1.00
O1019  O     0.40342   0.14826   0.72768   0.00000  Uiso   1.00
N1020  N     0.62375   0.20830   0.91392   0.00000  Uiso   1.00
O1021  O     0.63287   0.24839   0.92866   0.00000  Uiso   1.00
O1022  O     0.59670   0.18515   0.93906   0.00000  Uiso   1.00
N1023  N     0.62118   0.12450   0.75479   0.00000  Uiso   1.00
O1024  O     0.60458   0.14952   0.72026   0.00000  Uiso   1.00
O1025  O     0.61265   0.08222   0.75572   0.00000  Uiso   1.00
N1026  N     0.37880   0.20887   0.91184   0.00000  Uiso   1.00
O1027  O     0.39581   0.18384   0.94608   0.00000  Uiso   1.00
O1028  O     0.38700   0.25123   0.91111   0.00000  Uiso   1.00
N1029  N     0.51196   0.04593   0.92295   0.00000  Uiso   1.00
O1030  O     0.48096   0.04935   0.95397   0.00000  Uiso   1.00
O1031  O     0.54974   0.05572   0.93776   0.00000  Uiso   1.00
N1032  N     0.48800   0.28740   0.74372   0.00000  Uiso   1.00
O1033  O     0.51897   0.28399   0.71267   0.00000  Uiso   1.00
O1034  O     0.45021   0.27760   0.72896   0.00000  Uiso   1.00
N1035  N     0.49016   0.04580   0.74332   0.00000  Uiso   1.00
O1036  O     0.45295   0.05262   0.72483   0.00000  Uiso   1.00
O1037  O     0.52275   0.05044   0.71491   0.00000  Uiso   1.00
N1038  N     0.50977   0.28754   0.92336   0.00000  Uiso   1.00
O1039  O     0.54696   0.28076   0.94193   0.00000  Uiso   1.00
O1040  O     0.47714   0.28287   0.95170   0.00000  Uiso   1.00
O1041  O     0.77226   0.20487   0.83333   0.00000  Uiso   1.00
O1042  O     0.89441   0.12846   0.83334   0.00000  Uiso   1.00
O1043  O     0.89441   0.20487   0.83334   0.00000  Uiso   1.00
O1044  O     0.77226   0.12846   0.83333   0.00000  Uiso   1.00
C1045  C     0.75364   0.16671   0.83284   0.00000  Uiso   1.00
C1046  C     0.91303   0.16662   0.83381   0.00000  Uiso   1.00
O1047  O     0.83334   0.20488   0.76178   0.00000  Uiso   1.00
O1048  O     0.83333   0.12845   0.90489   0.00000  Uiso   1.00
O1049  O     0.83333   0.20488   0.90489   0.00000  Uiso   1.00
O1050  O     0.83334   0.12845   0.76178   0.00000  Uiso   1.00
C1051  C     0.83353   0.16667   0.73975   0.00000  Uiso   1.00
C1052  C     0.83315   0.16666   0.92692   0.00000  Uiso   1.00
Zn1053 Zn    0.83333   0.21771   0.83333   0.00000  Uiso   1.00
Zn1054 Zn    0.83333   0.11563   0.83333   0.00000  Uiso   1.00
C1055  C     0.83343   0.16667   0.68850   0.00000  Uiso   1.00
C1056  C     0.83326   0.16666   0.97816   0.00000  Uiso   1.00
C1057  C     0.68778   0.14482   0.79398   0.00000  Uiso   1.00
C1058  C     0.97889   0.18854   0.87263   0.00000  Uiso   1.00
C1059  C     0.97779   0.14432   0.79510   0.00000  Uiso   1.00
C1060  C     0.68888   0.18902   0.87154   0.00000  Uiso   1.00
C1061  C     0.95727   0.16631   0.83413   0.00000  Uiso   1.00
C1062  C     0.70939   0.16702   0.83251   0.00000  Uiso   1.00
C1063  C     0.83902   0.02367   0.87657   0.00000  Uiso   1.00
C1064  C     0.82763   0.30966   0.79010   0.00000  Uiso   1.00
C1065  C     0.82797   0.02363   0.79003   0.00000  Uiso   1.00
C1066  C     0.83868   0.30970   0.87664   0.00000  Uiso   1.00
N1067  N     0.83333   0.28573   0.83333   0.00000  Uiso   1.00
N1068  N     0.83333   0.04760   0.83333   0.00000  Uiso   1.00
N1069  N     0.70958   0.12511   0.75265   0.00000  Uiso   1.00
O1070  O     0.70021   0.08520   0.73756   0.00000  Uiso   1.00
O1071  O     0.73675   0.14826   0.72768   0.00000  Uiso   1.00
N1072  N     0.95708   0.20830   0.91392   0.00000  Uiso   1.00
O1073  O     0.96621   0.24839   0.92866   0.00000  Uiso   1.00
O1074  O     0.93004   0.18515   0.93906   0.00000  Uiso   1.00
N1075  N     0.95451   0.12450   0.75479   0.00000  Uiso   1.00
O1076  O     0.93791   0.14952   0.72026   0.00000  Uiso   1.00
O1077  O     0.94598   0.08222   0.75572   0.00000  Uiso   1.00
N1078  N     0.71214   0.20887   0.91184   0.00000  Uiso   1.00
O1079  O     0.72915   0.18384   0.94608   0.00000  Uiso   1.00
O1080  O     0.72033   0.25123   0.91111   0.00000  Uiso   1.00
N1081  N     0.84529   0.04593   0.92295   0.00000  Uiso   1.00
O1082  O     0.81430   0.04935   0.95397   0.00000  Uiso   1.00
O1083  O     0.88307   0.05572   0.93776   0.00000  Uiso   1.00
N1084  N     0.82134   0.28740   0.74372   0.00000  Uiso   1.00
O1085  O     0.85231   0.28399   0.71267   0.00000  Uiso   1.00
O1086  O     0.78355   0.27760   0.72896   0.00000  Uiso   1.00
N1087  N     0.82350   0.04580   0.74332   0.00000  Uiso   1.00
O1088  O     0.78628   0.05262   0.72483   0.00000  Uiso   1.00
O1089  O     0.85608   0.05044   0.71491   0.00000  Uiso   1.00
N1090  N     0.84310   0.28754   0.92336   0.00000  Uiso   1.00
O1091  O     0.88029   0.28076   0.94193   0.00000  Uiso   1.00
O1092  O     0.81047   0.28287   0.95170   0.00000  Uiso   1.00
O1093  O     0.10559   0.53821   0.83333   0.00000  Uiso   1.00
O1094  O     0.22774   0.46179   0.83334   0.00000  Uiso   1.00
O1095  O     0.22774   0.53821   0.83334   0.00000  Uiso   1.00
O1096  O     0.10559   0.46179   0.83333   0.00000  Uiso   1.00
C1097  C     0.08697   0.50004   0.83284   0.00000  Uiso   1.00
C1098  C     0.24636   0.49996   0.83381   0.00000  Uiso   1.00
O1099  O     0.16667   0.53821   0.76178   0.00000  Uiso   1.00
O1100  O     0.16666   0.46179   0.90489   0.00000  Uiso   1.00
O1101  O     0.16666   0.53821   0.90489   0.00000  Uiso   1.00
O1102  O     0.16667   0.46179   0.76178   0.00000  Uiso   1.00
C1103  C     0.16687   0.50001   0.73975   0.00000  Uiso   1.00
C1104  C     0.16648   0.50000   0.92692   0.00000  Uiso   1.00
Zn1105 Zn    0.16667   0.55104   0.83333   0.00000  Uiso   1.00
Zn1106 Zn    0.16667   0.44896   0.83333   0.00000  Uiso   1.00
C1107  C     0.16676   0.50001   0.68850   0.00000  Uiso   1.00
C1108  C     0.16660   0.49999   0.97816   0.00000  Uiso   1.00
C1109  C     0.02111   0.47816   0.79398   0.00000  Uiso   1.00
C1110  C     0.31222   0.52187   0.87263   0.00000  Uiso   1.00
C1111  C     0.31112   0.47765   0.79510   0.00000  Uiso   1.00
C1112  C     0.02221   0.52236   0.87154   0.00000  Uiso   1.00
C1113  C     0.29060   0.49965   0.83413   0.00000  Uiso   1.00
C1114  C     0.04273   0.50035   0.83251   0.00000  Uiso   1.00
C1115  C     0.17236   0.35700   0.87657   0.00000  Uiso   1.00
C1116  C     0.16097   0.64300   0.79010   0.00000  Uiso   1.00
C1117  C     0.16131   0.35696   0.79003   0.00000  Uiso   1.00
C1118  C     0.17201   0.64304   0.87664   0.00000  Uiso   1.00
N1119  N     0.16667   0.61907   0.83333   0.00000  Uiso   1.00
N1120  N     0.16667   0.38093   0.83333   0.00000  Uiso   1.00
N1121  N     0.04291   0.45845   0.75265   0.00000  Uiso   1.00
O1122  O     0.03354   0.41853   0.73756   0.00000  Uiso   1.00
O1123  O     0.07008   0.48159   0.72768   0.00000  Uiso   1.00
N1124  N     0.29041   0.54164   0.91392   0.00000  Uiso   1.00
O1125  O     0.29954   0.58172   0.92866   0.00000  Uiso   1.00
O1126  O     0.26337   0.51848   0.93906   0.00000  Uiso   1.00
N1127  N     0.28785   0.45783   0.75479   0.00000  Uiso   1.00
O1128  O     0.27124   0.48285   0.72026   0.00000  Uiso   1.00
O1129  O     0.27931   0.41556   0.75572   0.00000  Uiso   1.00
N1130  N     0.04547   0.54221   0.91184   0.00000  Uiso   1.00
O1131  O     0.06248   0.51717   0.94608   0.00000  Uiso   1.00
O1132  O     0.05366   0.58456   0.91111   0.00000  Uiso   1.00
N1133  N     0.17863   0.37927   0.92295   0.00000  Uiso   1.00
O1134  O     0.14763   0.38268   0.95397   0.00000  Uiso   1.00
O1135  O     0.21640   0.38905   0.93776   0.00000  Uiso   1.00
N1136  N     0.15467   0.62073   0.74372   0.00000  Uiso   1.00
O1137  O     0.18564   0.61733   0.71267   0.00000  Uiso   1.00
O1138  O     0.11688   0.61093   0.72896   0.00000  Uiso   1.00
N1139  N     0.15683   0.37913   0.74332   0.00000  Uiso   1.00
O1140  O     0.11961   0.38596   0.72483   0.00000  Uiso   1.00
O1141  O     0.18942   0.38378   0.71491   0.00000  Uiso   1.00
N1142  N     0.17643   0.62087   0.92336   0.00000  Uiso   1.00
O1143  O     0.21362   0.61409   0.94193   0.00000  Uiso   1.00
O1144  O     0.14380   0.61620   0.95170   0.00000  Uiso   1.00
O1145  O     0.43892   0.53821   0.83333   0.00000  Uiso   1.00
O1146  O     0.56108   0.46179   0.83334   0.00000  Uiso   1.00
O1147  O     0.56108   0.53821   0.83334   0.00000  Uiso   1.00
O1148  O     0.43892   0.46179   0.83333   0.00000  Uiso   1.00
C1149  C     0.42031   0.50004   0.83284   0.00000  Uiso   1.00
C1150  C     0.57969   0.49996   0.83381   0.00000  Uiso   1.00
O1151  O     0.50000   0.53821   0.76178   0.00000  Uiso   1.00
O1152  O     0.50000   0.46179   0.90489   0.00000  Uiso   1.00
O1153  O     0.50000   0.53821   0.90489   0.00000  Uiso   1.00
O1154  O     0.50000   0.46179   0.76178   0.00000  Uiso   1.00
C1155  C     0.50020   0.50001   0.73975   0.00000  Uiso   1.00
C1156  C     0.49981   0.50000   0.92692   0.00000  Uiso   1.00
Zn1157 Zn    0.50000   0.55104   0.83333   0.00000  Uiso   1.00
Zn1158 Zn    0.50000   0.44896   0.83333   0.00000  Uiso   1.00
C1159  C     0.50009   0.50001   0.68850   0.00000  Uiso   1.00
C1160  C     0.49993   0.49999   0.97816   0.00000  Uiso   1.00
C1161  C     0.35444   0.47816   0.79398   0.00000  Uiso   1.00
C1162  C     0.64556   0.52187   0.87263   0.00000  Uiso   1.00
C1163  C     0.64445   0.47765   0.79510   0.00000  Uiso   1.00
C1164  C     0.35554   0.52236   0.87154   0.00000  Uiso   1.00
C1165  C     0.62394   0.49965   0.83413   0.00000  Uiso   1.00
C1166  C     0.37606   0.50035   0.83251   0.00000  Uiso   1.00
C1167  C     0.50569   0.35700   0.87657   0.00000  Uiso   1.00
C1168  C     0.49430   0.64300   0.79010   0.00000  Uiso   1.00
C1169  C     0.49464   0.35696   0.79003   0.00000  Uiso   1.00
C1170  C     0.50534   0.64304   0.87664   0.00000  Uiso   1.00
N1171  N     0.50000   0.61907   0.83333   0.00000  Uiso   1.00
N1172  N     0.50000   0.38093   0.83333   0.00000  Uiso   1.00
N1173  N     0.37625   0.45845   0.75265   0.00000  Uiso   1.00
O1174  O     0.36688   0.41853   0.73756   0.00000  Uiso   1.00
O1175  O     0.40342   0.48159   0.72768   0.00000  Uiso   1.00
N1176  N     0.62375   0.54164   0.91392   0.00000  Uiso   1.00
O1177  O     0.63287   0.58172   0.92866   0.00000  Uiso   1.00
O1178  O     0.59670   0.51848   0.93906   0.00000  Uiso   1.00
N1179  N     0.62118   0.45783   0.75479   0.00000  Uiso   1.00
O1180  O     0.60458   0.48285   0.72026   0.00000  Uiso   1.00
O1181  O     0.61265   0.41556   0.75572   0.00000  Uiso   1.00
N1182  N     0.37880   0.54221   0.91184   0.00000  Uiso   1.00
O1183  O     0.39581   0.51717   0.94608   0.00000  Uiso   1.00
O1184  O     0.38700   0.58456   0.91111   0.00000  Uiso   1.00
N1185  N     0.51196   0.37927   0.92295   0.00000  Uiso   1.00
O1186  O     0.48096   0.38268   0.95397   0.00000  Uiso   1.00
O1187  O     0.54974   0.38905   0.93776   0.00000  Uiso   1.00
N1188  N     0.48800   0.62073   0.74372   0.00000  Uiso   1.00
O1189  O     0.51897   0.61733   0.71267   0.00000  Uiso   1.00
O1190  O     0.45021   0.61093   0.72896   0.00000  Uiso   1.00
N1191  N     0.49016   0.37913   0.74332   0.00000  Uiso   1.00
O1192  O     0.45295   0.38596   0.72483   0.00000  Uiso   1.00
O1193  O     0.52275   0.38378   0.71491   0.00000  Uiso   1.00
N1194  N     0.50977   0.62087   0.92336   0.00000  Uiso   1.00
O1195  O     0.54696   0.61409   0.94193   0.00000  Uiso   1.00
O1196  O     0.47714   0.61620   0.95170   0.00000  Uiso   1.00
O1197  O     0.77226   0.53821   0.83333   0.00000  Uiso   1.00
O1198  O     0.89441   0.46179   0.83334   0.00000  Uiso   1.00
O1199  O     0.89441   0.53821   0.83334   0.00000  Uiso   1.00
O1200  O     0.77226   0.46179   0.83333   0.00000  Uiso   1.00
C1201  C     0.75364   0.50004   0.83284   0.00000  Uiso   1.00
C1202  C     0.91303   0.49996   0.83381   0.00000  Uiso   1.00
O1203  O     0.83334   0.53821   0.76178   0.00000  Uiso   1.00
O1204  O     0.83333   0.46179   0.90489   0.00000  Uiso   1.00
O1205  O     0.83333   0.53821   0.90489   0.00000  Uiso   1.00
O1206  O     0.83334   0.46179   0.76178   0.00000  Uiso   1.00
C1207  C     0.83353   0.50001   0.73975   0.00000  Uiso   1.00
C1208  C     0.83315   0.50000   0.92692   0.00000  Uiso   1.00
Zn1209 Zn    0.83333   0.55104   0.83333   0.00000  Uiso   1.00
Zn1210 Zn    0.83333   0.44896   0.83333   0.00000  Uiso   1.00
C1211  C     0.83343   0.50001   0.68850   0.00000  Uiso   1.00
C1212  C     0.83326   0.49999   0.97816   0.00000  Uiso   1.00
C1213  C     0.68778   0.47816   0.79398   0.00000  Uiso   1.00
C1214  C     0.97889   0.52187   0.87263   0.00000  Uiso   1.00
C1215  C     0.97779   0.47765   0.79510   0.00000  Uiso   1.00
C1216  C     0.68888   0.52236   0.87154   0.00000  Uiso   1.00
C1217  C     0.95727   0.49965   0.83413   0.00000  Uiso   1.00
C1218  C     0.70939   0.50035   0.83251   0.00000  Uiso   1.00
C1219  C     0.83902   0.35700   0.87657   0.00000  Uiso   1.00
C1220  C     0.82763   0.64300   0.79010   0.00000  Uiso   1.00
C1221  C     0.82797   0.35696   0.79003   0.00000  Uiso   1.00
C1222  C     0.83868   0.64304   0.87664   0.00000  Uiso   1.00
N1223  N     0.83333   0.61907   0.83333   0.00000  Uiso   1.00
N1224  N     0.83333   0.38093   0.83333   0.00000  Uiso   1.00
N1225  N     0.70958   0.45845   0.75265   0.00000  Uiso   1.00
O1226  O     0.70021   0.41853   0.73756   0.00000  Uiso   1.00
O1227  O     0.73675   0.48159   0.72768   0.00000  Uiso   1.00
N1228  N     0.95708   0.54164   0.91392   0.00000  Uiso   1.00
O1229  O     0.96621   0.58172   0.92866   0.00000  Uiso   1.00
O1230  O     0.93004   0.51848   0.93906   0.00000  Uiso   1.00
N1231  N     0.95451   0.45783   0.75479   0.00000  Uiso   1.00
O1232  O     0.93791   0.48285   0.72026   0.00000  Uiso   1.00
O1233  O     0.94598   0.41556   0.75572   0.00000  Uiso   1.00
N1234  N     0.71214   0.54221   0.91184   0.00000  Uiso   1.00
O1235  O     0.72915   0.51717   0.94608   0.00000  Uiso   1.00
O1236  O     0.72033   0.58456   0.91111   0.00000  Uiso   1.00
N1237  N     0.84529   0.37927   0.92295   0.00000  Uiso   1.00
O1238  O     0.81430   0.38268   0.95397   0.00000  Uiso   1.00
O1239  O     0.88307   0.38905   0.93776   0.00000  Uiso   1.00
N1240  N     0.82134   0.62073   0.74372   0.00000  Uiso   1.00
O1241  O     0.85231   0.61733   0.71267   0.00000  Uiso   1.00
O1242  O     0.78355   0.61093   0.72896   0.00000  Uiso   1.00
N1243  N     0.82350   0.37913   0.74332   0.00000  Uiso   1.00
O1244  O     0.78628   0.38596   0.72483   0.00000  Uiso   1.00
O1245  O     0.85608   0.38378   0.71491   0.00000  Uiso   1.00
N1246  N     0.84310   0.62087   0.92336   0.00000  Uiso   1.00
O1247  O     0.88029   0.61409   0.94193   0.00000  Uiso   1.00
O1248  O     0.81047   0.61620   0.95170   0.00000  Uiso   1.00
O1249  O     0.10559   0.87154   0.83333   0.00000  Uiso   1.00
O1250  O     0.22774   0.79513   0.83334   0.00000  Uiso   1.00
O1251  O     0.22774   0.87154   0.83334   0.00000  Uiso   1.00
O1252  O     0.10559   0.79513   0.83333   0.00000  Uiso   1.00
C1253  C     0.08697   0.83337   0.83284   0.00000  Uiso   1.00
C1254  C     0.24636   0.83329   0.83381   0.00000  Uiso   1.00
O1255  O     0.16667   0.87155   0.76178   0.00000  Uiso   1.00
O1256  O     0.16666   0.79512   0.90489   0.00000  Uiso   1.00
O1257  O     0.16666   0.87155   0.90489   0.00000  Uiso   1.00
O1258  O     0.16667   0.79512   0.76178   0.00000  Uiso   1.00
C1259  C     0.16687   0.83334   0.73975   0.00000  Uiso   1.00
C1260  C     0.16648   0.83333   0.92692   0.00000  Uiso   1.00
Zn1261 Zn    0.16667   0.88437   0.83333   0.00000  Uiso   1.00
Zn1262 Zn    0.16667   0.78229   0.83333   0.00000  Uiso   1.00
C1263  C     0.16676   0.83334   0.68850   0.00000  Uiso   1.00
C1264  C     0.16660   0.83333   0.97816   0.00000  Uiso   1.00
C1265  C     0.02111   0.81149   0.79398   0.00000  Uiso   1.00
C1266  C     0.31222   0.85521   0.87263   0.00000  Uiso   1.00
C1267  C     0.31112   0.81099   0.79510   0.00000  Uiso   1.00
C1268  C     0.02221   0.85569   0.87154   0.00000  Uiso   1.00
C1269  C     0.29060   0.83298   0.83413   0.00000  Uiso   1.00
C1270  C     0.04273   0.83369   0.83251   0.00000  Uiso   1.00
C1271  C     0.17236   0.69034   0.87657   0.00000  Uiso   1.00
C1272  C     0.16097   0.97633   0.79010   0.00000  Uiso   1.00
C1273  C     0.16131   0.69030   0.79003   0.00000  Uiso   1.00
C1274  C     0.17201   0.97637   0.87664   0.00000  Uiso   1.00
N1275  N     0.16667   0.95240   0.83333   0.00000  Uiso   1.00
N1276  N     0.16667   0.71427   0.83333   0.00000  Uiso   1.00
N1277  N     0.04291   0.79178   0.75265   0.00000  Uiso   1.00
O1278  O     0.03354   0.75186   0.73756   0.00000  Uiso   1.00
O1279  O     0.07008   0.81493   0.72768   0.00000  Uiso   1.00
N1280  N     0.29041   0.87497   0.91392   0.00000  Uiso   1.00
O1281  O     0.29954   0.91505   0.92866   0.00000  Uiso   1.00
O1282  O     0.26337   0.85181   0.93906   0.00000  Uiso   1.00
N1283  N     0.28785   0.79116   0.75479   0.00000  Uiso   1.00
O1284  O     0.27124   0.81619   0.72026   0.00000  Uiso   1.00
O1285  O     0.27931   0.74889   0.75572   0.00000  Uiso   1.00
N1286  N     0.04547   0.87554   0.91184   0.00000  Uiso   1.00
O1287  O     0.06248   0.85051   0.94608   0.00000  Uiso   1.00
O1288  O     0.05366   0.91789   0.91111   0.00000  Uiso   1.00
N1289  N     0.17863   0.71260   0.92295   0.00000  Uiso   1.00
O1290  O     0.14763   0.71602   0.95397   0.00000  Uiso   1.00
O1291  O     0.21640   0.72239   0.93776   0.00000  Uiso   1.00
N1292  N     0.15467   0.95407   0.74372   0.00000  Uiso   1.00
O1293  O     0.18564   0.95066   0.71267   0.00000  Uiso   1.00
O1294  O     0.11688   0.94427   0.72896   0.00000  Uiso   1.00
N1295  N     0.15683   0.71247   0.74332   0.00000  Uiso   1.00
O1296  O     0.11961   0.71929   0.72483   0.00000  Uiso   1.00
O1297  O     0.18942   0.71711   0.71491   0.00000  Uiso   1.00
N1298  N     0.17643   0.95420   0.92336   0.00000  Uiso   1.00
O1299  O     0.21362   0.94742   0.94193   0.00000  Uiso   1.00
O1300  O     0.14380   0.94954   0.95170   0.00000  Uiso   1.00
O1301  O     0.43892   0.87154   0.83333   0.00000  Uiso   1.00
O1302  O     0.56108   0.79513   0.83334   0.00000  Uiso   1.00
O1303  O     0.56108   0.87154   0.83334   0.00000  Uiso   1.00
O1304  O     0.43892   0.79513   0.83333   0.00000  Uiso   1.00
C1305  C     0.42031   0.83337   0.83284   0.00000  Uiso   1.00
C1306  C     0.57969   0.83329   0.83381   0.00000  Uiso   1.00
O1307  O     0.50000   0.87155   0.76178   0.00000  Uiso   1.00
O1308  O     0.50000   0.79512   0.90489   0.00000  Uiso   1.00
O1309  O     0.50000   0.87155   0.90489   0.00000  Uiso   1.00
O1310  O     0.50000   0.79512   0.76178   0.00000  Uiso   1.00
C1311  C     0.50020   0.83334   0.73975   0.00000  Uiso   1.00
C1312  C     0.49981   0.83333   0.92692   0.00000  Uiso   1.00
Zn1313 Zn    0.50000   0.88437   0.83333   0.00000  Uiso   1.00
Zn1314 Zn    0.50000   0.78229   0.83333   0.00000  Uiso   1.00
C1315  C     0.50009   0.83334   0.68850   0.00000  Uiso   1.00
C1316  C     0.49993   0.83333   0.97816   0.00000  Uiso   1.00
C1317  C     0.35444   0.81149   0.79398   0.00000  Uiso   1.00
C1318  C     0.64556   0.85521   0.87263   0.00000  Uiso   1.00
C1319  C     0.64445   0.81099   0.79510   0.00000  Uiso   1.00
C1320  C     0.35554   0.85569   0.87154   0.00000  Uiso   1.00
C1321  C     0.62394   0.83298   0.83413   0.00000  Uiso   1.00
C1322  C     0.37606   0.83369   0.83251   0.00000  Uiso   1.00
C1323  C     0.50569   0.69034   0.87657   0.00000  Uiso   1.00
C1324  C     0.49430   0.97633   0.79010   0.00000  Uiso   1.00
C1325  C     0.49464   0.69030   0.79003   0.00000  Uiso   1.00
C1326  C     0.50534   0.97637   0.87664   0.00000  Uiso   1.00
N1327  N     0.50000   0.95240   0.83333   0.00000  Uiso   1.00
N1328  N     0.50000   0.71427   0.83333   0.00000  Uiso   1.00
N1329  N     0.37625   0.79178   0.75265   0.00000  Uiso   1.00
O1330  O     0.36688   0.75186   0.73756   0.00000  Uiso   1.00
O1331  O     0.40342   0.81493   0.72768   0.00000  Uiso   1.00
N1332  N     0.62375   0.87497   0.91392   0.00000  Uiso   1.00
O1333  O     0.63287   0.91505   0.92866   0.00000  Uiso   1.00
O1334  O     0.59670   0.85181   0.93906   0.00000  Uiso   1.00
N1335  N     0.62118   0.79116   0.75479   0.00000  Uiso   1.00
O1336  O     0.60458   0.81619   0.72026   0.00000  Uiso   1.00
O1337  O     0.61265   0.74889   0.75572   0.00000  Uiso   1.00
N1338  N     0.37880   0.87554   0.91184   0.00000  Uiso   1.00
O1339  O     0.39581   0.85051   0.94608   0.00000  Uiso   1.00
O1340  O     0.38700   0.91789   0.91111   0.00000  Uiso   1.00
N1341  N     0.51196   0.71260   0.92295   0.00000  Uiso   1.00
O1342  O     0.48096   0.71602   0.95397   0.00000  Uiso   1.00
O1343  O     0.54974   0.72239   0.93776   0.00000  Uiso   1.00
N1344  N     0.48800   0.95407   0.74372   0.00000  Uiso   1.00
O1345  O     0.51897   0.95066   0.71267   0.00000  Uiso   1.00
O1346  O     0.45021   0.94427   0.72896   0.00000  Uiso   1.00
N1347  N     0.49016   0.71247   0.74332   0.00000  Uiso   1.00
O1348  O     0.45295   0.71929   0.72483   0.00000  Uiso   1.00
O1349  O     0.52275   0.71711   0.71491   0.00000  Uiso   1.00
N1350  N     0.50977   0.95420   0.92336   0.00000  Uiso   1.00
O1351  O     0.54696   0.94742   0.94193   0.00000  Uiso   1.00
O1352  O     0.47714   0.94954   0.95170   0.00000  Uiso   1.00
O1353  O     0.77226   0.87154   0.83333   0.00000  Uiso   1.00
O1354  O     0.89441   0.79513   0.83334   0.00000  Uiso   1.00
O1355  O     0.89441   0.87154   0.83334   0.00000  Uiso   1.00
O1356  O     0.77226   0.79513   0.83333   0.00000  Uiso   1.00
C1357  C     0.75364   0.83337   0.83284   0.00000  Uiso   1.00
C1358  C     0.91303   0.83329   0.83381   0.00000  Uiso   1.00
O1359  O     0.83334   0.87155   0.76178   0.00000  Uiso   1.00
O1360  O     0.83333   0.79512   0.90489   0.00000  Uiso   1.00
O1361  O     0.83333   0.87155   0.90489   0.00000  Uiso   1.00
O1362  O     0.83334   0.79512   0.76178   0.00000  Uiso   1.00
C1363  C     0.83353   0.83334   0.73975   0.00000  Uiso   1.00
C1364  C     0.83315   0.83333   0.92692   0.00000  Uiso   1.00
Zn1365 Zn    0.83333   0.88437   0.83333   0.00000  Uiso   1.00
Zn1366 Zn    0.83333   0.78229   0.83333   0.00000  Uiso   1.00
C1367  C     0.83343   0.83334   0.68850   0.00000  Uiso   1.00
C1368  C     0.83326   0.83333   0.97816   0.00000  Uiso   1.00
C1369  C     0.68778   0.81149   0.79398   0.00000  Uiso   1.00
C1370  C     0.97889   0.85521   0.87263   0.00000  Uiso   1.00
C1371  C     0.97779   0.81099   0.79510   0.00000  Uiso   1.00
C1372  C     0.68888   0.85569   0.87154   0.00000  Uiso   1.00
C1373  C     0.95727   0.83298   0.83413   0.00000  Uiso   1.00
C1374  C     0.70939   0.83369   0.83251   0.00000  Uiso   1.00
C1375  C     0.83902   0.69034   0.87657   0.00000  Uiso   1.00
C1376  C     0.82763   0.97633   0.79010   0.00000  Uiso   1.00
C1377  C     0.82797   0.69030   0.79003   0.00000  Uiso   1.00
C1378  C     0.83868   0.97637   0.87664   0.00000  Uiso   1.00
N1379  N     0.83333   0.95240   0.83333   0.00000  Uiso   1.00
N1380  N     0.83333   0.71427   0.83333   0.00000  Uiso   1.00
N1381  N     0.70958   0.79178   0.75265   0.00000  Uiso   1.00
O1382  O     0.70021   0.75186   0.73756   0.00000  Uiso   1.00
O1383  O     0.73675   0.81493   0.72768   0.00000  Uiso   1.00
N1384  N     0.95708   0.87497   0.91392   0.00000  Uiso   1.00
O1385  O     0.96621   0.91505   0.92866   0.00000  Uiso   1.00
O1386  O     0.93004   0.85181   0.93906   0.00000  Uiso   1.00
N1387  N     0.95451   0.79116   0.75479   0.00000  Uiso   1.00
O1388  O     0.93791   0.81619   0.72026   0.00000  Uiso   1.00
O1389  O     0.94598   0.74889   0.75572   0.00000  Uiso   1.00
N1390  N     0.71214   0.87554   0.91184   0.00000  Uiso   1.00
O1391  O     0.72915   0.85051   0.94608   0.00000  Uiso   1.00
O1392  O     0.72033   0.91789   0.91111   0.00000  Uiso   1.00
N1393  N     0.84529   0.71260   0.92295   0.00000  Uiso   1.00
O1394  O     0.81430   0.71602   0.95397   0.00000  Uiso   1.00
O1395  O     0.88307   0.72239   0.93776   0.00000  Uiso   1.00
N1396  N     0.82134   0.95407   0.74372   0.00000  Uiso   1.00
O1397  O     0.85231   0.95066   0.71267   0.00000  Uiso   1.00
O1398  O     0.78355   0.94427   0.72896   0.00000  Uiso   1.00
N1399  N     0.82350   0.71247   0.74332   0.00000  Uiso   1.00
O1400  O     0.78628   0.71929   0.72483   0.00000  Uiso   1.00
O1401  O     0.85608   0.71711   0.71491   0.00000  Uiso   1.00
N1402  N     0.84310   0.95420   0.92336   0.00000  Uiso   1.00
O1403  O     0.88029   0.94742   0.94193   0.00000  Uiso   1.00
O1404  O     0.81047   0.94954   0.95170   0.00000  Uiso   1.00
loop_
_geom_bond_atom_site_label_1
_geom_bond_atom_site_label_2
_geom_bond_distance
_geom_bond_site_symmetry_2
_ccdc_geom_bond_type
O1     Zn13    1.989   .     S
O1     C5      1.293   .     A
O2     C6      1.293   .     A
O2     Zn14    1.989   .     S
O3     Zn13    1.989   .     S
O3     C6      1.295   .     A
O4     Zn14    1.989   .     S
O4     C5      1.295   .     A
C5     C22     1.413   .     S
C6     C21     1.413   .     S
O7     C11     1.291   .     A
O7     Zn13    1.951   .     S
O8     C12     1.291   .     A
O8     Zn14    1.951   .     S
O9     C12     1.292   .     A
O9     Zn13    1.951   .     S
O10    C11     1.292   .     A
O10    Zn14    1.951   .     S
C11    C15     1.369   .     S
C12    C16     1.369   .     S
Zn13   N27     2.046   .     S
Zn14   N28     2.046   .     S
C15    C952    1.167   1_554 S
C16    C483    1.167   .     S
C17    N29     1.438   .     S
C17    C22     1.404   .     A
C17    C123    1.384   1_455 S
C18    C21     1.404   .     A
C18    N32     1.438   .     S
C18    C72     1.384   .     S
C19    N35     1.434   .     S
C19    C21     1.402   .     A
C19    C69     1.384   .     S
C20    C22     1.402   .     A
C20    N38     1.434   .     S
C20    C122    1.384   1_455 S
C23    N28     1.372   .     A
C23    N41     1.422   .     S
C23    C338    1.423   1_545 S
C24    N27     1.372   .     A
C24    N44     1.422   .     S
C24    C181    1.423   .     S
C25    N47     1.421   .     S
C25    N28     1.373   .     A
C25    C336    1.423   1_545 S
C26    N27     1.373   .     A
C26    N50     1.421   .     S
C26    C179    1.423   .     S
N29    O30     1.301   .     A
N29    O31     1.301   .     A
N32    O33     1.301   .     A
N32    O34     1.301   .     A
N35    O37     1.301   .     A
N35    O36     1.301   .     A
N38    O40     1.301   .     A
N38    O39     1.301   .     A
N41    O42     1.300   .     A
N41    O43     1.301   .     A
N44    O45     1.300   .     A
N44    O46     1.301   .     A
N47    O49     1.301   .     A
N47    O48     1.300   .     A
N50    O52     1.301   .     A
N50    O51     1.300   .     A
O53    Zn65    1.989   .     S
O53    C57     1.293   .     A
O54    C58     1.293   .     A
O54    Zn66    1.989   .     S
O55    Zn65    1.989   .     S
O55    C58     1.295   .     A
O56    Zn66    1.989   .     S
O56    C57     1.295   .     A
C57    C74     1.413   .     S
C58    C73     1.413   .     S
O59    C63     1.291   .     A
O59    Zn65    1.951   .     S
O60    C64     1.291   .     A
O60    Zn66    1.951   .     S
O61    C64     1.292   .     A
O61    Zn65    1.951   .     S
O62    C63     1.292   .     A
O62    Zn66    1.951   .     S
C63    C67     1.369   .     S
C64    C68     1.369   .     S
Zn65   N79     2.046   .     S
Zn66   N80     2.046   .     S
C67    C1004   1.167   1_554 S
C68    C535    1.167   .     S
C69    N81     1.438   .     S
C69    C74     1.404   .     A
C70    C73     1.404   .     A
C70    N84     1.438   .     S
C70    C124    1.384   .     S
C71    N87     1.434   .     S
C71    C73     1.402   .     A
C71    C121    1.384   .     S
C72    C74     1.402   .     A
C72    N90     1.434   .     S
C75    N80     1.372   .     A
C75    N93     1.422   .     S
C75    C390    1.423   1_545 S
C76    N79     1.372   .     A
C76    N96     1.422   .     S
C76    C233    1.423   .     S
C77    N99     1.421   .     S
C77    N80     1.373   .     A
C77    C388    1.423   1_545 S
C78    N79     1.373   .     A
C78    N102    1.421   .     S
C78    C231    1.423   .     S
N81    O82     1.301   .     A
N81    O83     1.301   .     A
N84    O85     1.301   .     A
N84    O86     1.301   .     A
N87    O89     1.301   .     A
N87    O88     1.301   .     A
N90    O92     1.301   .     A
N90    O91     1.301   .     A
N93    O94     1.300   .     A
N93    O95     1.301   .     A
N96    O97     1.300   .     A
N96    O98     1.301   .     A
N99    O101    1.301   .     A
N99    O100    1.300   .     A
N102   O104    1.301   .     A
N102   O103    1.300   .     A
O105   Zn117   1.989   .     S
O105   C109    1.293   .     A
O106   C110    1.293   .     A
O106   Zn118   1.989   .     S
O107   Zn117   1.989   .     S
O107   C110    1.295   .     A
O108   Zn118   1.989   .     S
O108   C109    1.295   .     A
C109   C126    1.413   .     S
C110   C125    1.413   .     S
O111   C115    1.291   .     A
O111   Zn117   1.951   .     S
O112   C116    1.291   .     A
O112   Zn118   1.951   .     S
O113   C116    1.292   .     A
O113   Zn117   1.951   .     S
O114   C115    1.292   .     A
O114   Zn118   1.951   .     S
C115   C119    1.369   .     S
C116   C120    1.369   .     S
Zn117  N131    2.046   .     S
Zn118  N132    2.046   .     S
C119   C1056   1.167   1_554 S
C120   C587    1.167   .     S
C121   N133    1.438   .     S
C121   C126    1.404   .     A
C122   C125    1.404   .     A
C122   N136    1.438   .     S
C122   C20     1.384   1_655 S
C123   N139    1.434   .     S
C123   C125    1.402   .     A
C123   C17     1.384   1_655 S
C124   C126    1.402   .     A
C124   N142    1.434   .     S
C127   N132    1.372   .     A
C127   N145    1.422   .     S
C127   C442    1.423   1_545 S
C128   N131    1.372   .     A
C128   N148    1.422   .     S
C128   C285    1.423   .     S
C129   N151    1.421   .     S
C129   N132    1.373   .     A
C129   C440    1.423   1_545 S
C130   N131    1.373   .     A
C130   N154    1.421   .     S
C130   C283    1.423   .     S
N133   O134    1.301   .     A
N133   O135    1.301   .     A
N136   O137    1.301   .     A
N136   O138    1.301   .     A
N139   O141    1.301   .     A
N139   O140    1.301   .     A
N142   O144    1.301   .     A
N142   O143    1.301   .     A
N145   O146    1.300   .     A
N145   O147    1.301   .     A
N148   O149    1.300   .     A
N148   O150    1.301   .     A
N151   O153    1.301   .     A
N151   O152    1.300   .     A
N154   O156    1.301   .     A
N154   O155    1.300   .     A
O157   Zn169   1.989   .     S
O157   C161    1.293   .     A
O158   C162    1.293   .     A
O158   Zn170   1.989   .     S
O159   Zn169   1.989   .     S
O159   C162    1.295   .     A
O160   Zn170   1.989   .     S
O160   C161    1.295   .     A
C161   C178    1.413   .     S
C162   C177    1.413   .     S
O163   C167    1.291   .     A
O163   Zn169   1.951   .     S
O164   C168    1.291   .     A
O164   Zn170   1.951   .     S
O165   C168    1.292   .     A
O165   Zn169   1.951   .     S
O166   C167    1.292   .     A
O166   Zn170   1.951   .     S
C167   C171    1.369   .     S
C168   C172    1.369   .     S
Zn169  N183    2.046   .     S
Zn170  N184    2.046   .     S
C171   C1108   1.167   1_554 S
C172   C639    1.167   .     S
C173   N185    1.438   .     S
C173   C178    1.404   .     A
C173   C279    1.384   1_455 S
C174   C177    1.404   .     A
C174   N188    1.438   .     S
C174   C228    1.384   .     S
C175   N191    1.434   .     S
C175   C177    1.402   .     A
C175   C225    1.384   .     S
C176   C178    1.402   .     A
C176   N194    1.434   .     S
C176   C278    1.384   1_455 S
C179   N184    1.372   .     A
C179   N197    1.422   .     S
C180   N183    1.372   .     A
C180   N200    1.422   .     S
C180   C337    1.423   .     S
C181   N203    1.421   .     S
C181   N184    1.373   .     A
C182   N183    1.373   .     A
C182   N206    1.421   .     S
C182   C335    1.423   .     S
N185   O186    1.301   .     A
N185   O187    1.301   .     A
N188   O189    1.301   .     A
N188   O190    1.301   .     A
N191   O193    1.301   .     A
N191   O192    1.301   .     A
N194   O196    1.301   .     A
N194   O195    1.301   .     A
N197   O198    1.300   .     A
N197   O199    1.301   .     A
N200   O201    1.300   .     A
N200   O202    1.301   .     A
N203   O205    1.301   .     A
N203   O204    1.300   .     A
N206   O208    1.301   .     A
N206   O207    1.300   .     A
O209   Zn221   1.989   .     S
O209   C213    1.293   .     A
O210   C214    1.293   .     A
O210   Zn222   1.989   .     S
O211   Zn221   1.989   .     S
O211   C214    1.295   .     A
O212   Zn222   1.989   .     S
O212   C213    1.295   .     A
C213   C230    1.413   .     S
C214   C229    1.413   .     S
O215   C219    1.291   .     A
O215   Zn221   1.951   .     S
O216   C220    1.291   .     A
O216   Zn222   1.951   .     S
O217   C220    1.292   .     A
O217   Zn221   1.951   .     S
O218   C219    1.292   .     A
O218   Zn222   1.951   .     S
C219   C223    1.369   .     S
C220   C224    1.369   .     S
Zn221  N235    2.046   .     S
Zn222  N236    2.046   .     S
C223   C1160   1.167   1_554 S
C224   C691    1.167   .     S
C225   N237    1.438   .     S
C225   C230    1.404   .     A
C226   C229    1.404   .     A
C226   N240    1.438   .     S
C226   C280    1.384   .     S
C227   N243    1.434   .     S
C227   C229    1.402   .     A
C227   C277    1.384   .     S
C228   C230    1.402   .     A
C228   N246    1.434   .     S
C231   N236    1.372   .     A
C231   N249    1.422   .     S
C232   N235    1.372   .     A
C232   N252    1.422   .     S
C232   C389    1.423   .     S
C233   N255    1.421   .     S
C233   N236    1.373   .     A
C234   N235    1.373   .     A
C234   N258    1.421   .     S
C234   C387    1.423   .     S
N237   O238    1.301   .     A
N237   O239    1.301   .     A
N240   O241    1.301   .     A
N240   O242    1.301   .     A
N243   O245    1.301   .     A
N243   O244    1.301   .     A
N246   O248    1.301   .     A
N246   O247    1.301   .     A
N249   O250    1.300   .     A
N249   O251    1.301   .     A
N252   O253    1.300   .     A
N252   O254    1.301   .     A
N255   O257    1.301   .     A
N255   O256    1.300   .     A
N258   O260    1.301   .     A
N258   O259    1.300   .     A
O261   Zn273   1.989   .     S
O261   C265    1.293   .     A
O262   C266    1.293   .     A
O262   Zn274   1.989   .     S
O263   Zn273   1.989   .     S
O263   C266    1.295   .     A
O264   Zn274   1.989   .     S
O264   C265    1.295   .     A
C265   C282    1.413   .     S
C266   C281    1.413   .     S
O267   C271    1.291   .     A
O267   Zn273   1.951   .     S
O268   C272    1.291   .     A
O268   Zn274   1.951   .     S
O269   C272    1.292   .     A
O269   Zn273   1.951   .     S
O270   C271    1.292   .     A
O270   Zn274   1.951   .     S
C271   C275    1.369   .     S
C272   C276    1.369   .     S
Zn273  N287    2.046   .     S
Zn274  N288    2.046   .     S
C275   C1212   1.167   1_554 S
C276   C743    1.167   .     S
C277   N289    1.438   .     S
C277   C282    1.404   .     A
C278   C281    1.404   .     A
C278   N292    1.438   .     S
C278   C176    1.384   1_655 S
C279   N295    1.434   .     S
C279   C281    1.402   .     A
C279   C173    1.384   1_655 S
C280   C282    1.402   .     A
C280   N298    1.434   .     S
C283   N288    1.372   .     A
C283   N301    1.422   .     S
C284   N287    1.372   .     A
C284   N304    1.422   .     S
C284   C441    1.423   .     S
C285   N307    1.421   .     S
C285   N288    1.373   .     A
C286   N287    1.373   .     A
C286   N310    1.421   .     S
C286   C439    1.423   .     S
N289   O290    1.301   .     A
N289   O291    1.301   .     A
N292   O293    1.301   .     A
N292   O294    1.301   .     A
N295   O297    1.301   .     A
N295   O296    1.301   .     A
N298   O300    1.301   .     A
N298   O299    1.301   .     A
N301   O302    1.300   .     A
N301   O303    1.301   .     A
N304   O305    1.300   .     A
N304   O306    1.301   .     A
N307   O309    1.301   .     A
N307   O308    1.300   .     A
N310   O312    1.301   .     A
N310   O311    1.300   .     A
O313   Zn325   1.989   .     S
O313   C317    1.293   .     A
O314   C318    1.293   .     A
O314   Zn326   1.989   .     S
O315   Zn325   1.989   .     S
O315   C318    1.295   .     A
O316   Zn326   1.989   .     S
O316   C317    1.295   .     A
C317   C334    1.413   .     S
C318   C333    1.413   .     S
O319   C323    1.291   .     A
O319   Zn325   1.951   .     S
O320   C324    1.291   .     A
O320   Zn326   1.951   .     S
O321   C324    1.292   .     A
O321   Zn325   1.951   .     S
O322   C323    1.292   .     A
O322   Zn326   1.951   .     S
C323   C327    1.369   .     S
C324   C328    1.369   .     S
Zn325  N339    2.046   .     S
Zn326  N340    2.046   .     S
C327   C1264   1.167   1_554 S
C328   C795    1.167   .     S
C329   N341    1.438   .     S
C329   C334    1.404   .     A
C329   C435    1.384   1_455 S
C330   C333    1.404   .     A
C330   N344    1.438   .     S
C330   C384    1.384   .     S
C331   N347    1.434   .     S
C331   C333    1.402   .     A
C331   C381    1.384   .     S
C332   C334    1.402   .     A
C332   N350    1.434   .     S
C332   C434    1.384   1_455 S
C335   N340    1.372   .     A
C335   N353    1.422   .     S
C336   N339    1.372   .     A
C336   N356    1.422   .     S
C336   C25     1.423   1_565 S
C337   N359    1.421   .     S
C337   N340    1.373   .     A
C338   N339    1.373   .     A
C338   N362    1.421   .     S
C338   C23     1.423   1_565 S
N341   O342    1.301   .     A
N341   O343    1.301   .     A
N344   O345    1.301   .     A
N344   O346    1.301   .     A
N347   O349    1.301   .     A
N347   O348    1.301   .     A
N350   O352    1.301   .     A
N350   O351    1.301   .     A
N353   O354    1.300   .     A
N353   O355    1.301   .     A
N356   O357    1.300   .     A
N356   O358    1.301   .     A
N359   O361    1.301   .     A
N359   O360    1.300   .     A
N362   O364    1.301   .     A
N362   O363    1.300   .     A
O365   Zn377   1.989   .     S
O365   C369    1.293   .     A
O366   C370    1.293   .     A
O366   Zn378   1.989   .     S
O367   Zn377   1.989   .     S
O367   C370    1.295   .     A
O368   Zn378   1.989   .     S
O368   C369    1.295   .     A
C369   C386    1.413   .     S
C370   C385    1.413   .     S
O371   C375    1.291   .     A
O371   Zn377   1.951   .     S
O372   C376    1.291   .     A
O372   Zn378   1.951   .     S
O373   C376    1.292   .     A
O373   Zn377   1.951   .     S
O374   C375    1.292   .     A
O374   Zn378   1.951   .     S
C375   C379    1.369   .     S
C376   C380    1.369   .     S
Zn377  N391    2.046   .     S
Zn378  N392    2.046   .     S
C379   C1316   1.167   1_554 S
C380   C847    1.167   .     S
C381   N393    1.438   .     S
C381   C386    1.404   .     A
C382   C385    1.404   .     A
C382   N396    1.438   .     S
C382   C436    1.384   .     S
C383   N399    1.434   .     S
C383   C385    1.402   .     A
C383   C433    1.384   .     S
C384   C386    1.402   .     A
C384   N402    1.434   .     S
C387   N392    1.372   .     A
C387   N405    1.422   .     S
C388   N391    1.372   .     A
C388   N408    1.422   .     S
C388   C77     1.423   1_565 S
C389   N411    1.421   .     S
C389   N392    1.373   .     A
C390   N391    1.373   .     A
C390   N414    1.421   .     S
C390   C75     1.423   1_565 S
N393   O394    1.301   .     A
N393   O395    1.301   .     A
N396   O397    1.301   .     A
N396   O398    1.301   .     A
N399   O401    1.301   .     A
N399   O400    1.301   .     A
N402   O404    1.301   .     A
N402   O403    1.301   .     A
N405   O406    1.300   .     A
N405   O407    1.301   .     A
N408   O409    1.300   .     A
N408   O410    1.301   .     A
N411   O413    1.301   .     A
N411   O412    1.300   .     A
N414   O416    1.301   .     A
N414   O415    1.300   .     A
O417   Zn429   1.989   .     S
O417   C421    1.293   .     A
O418   C422    1.293   .     A
O418   Zn430   1.989   .     S
O419   Zn429   1.989   .     S
O419   C422    1.295   .     A
O420   Zn430   1.989   .     S
O420   C421    1.295   .     A
C421   C438    1.413   .     S
C422   C437    1.413   .     S
O423   C427    1.291   .     A
O423   Zn429   1.951   .     S
O424   C428    1.291   .     A
O424   Zn430   1.951   .     S
O425   C428    1.292   .     A
O425   Zn429   1.951   .     S
O426   C427    1.292   .     A
O426   Zn430   1.951   .     S
C427   C431    1.369   .     S
C428   C432    1.369   .     S
Zn429  N443    2.046   .     S
Zn430  N444    2.046   .     S
C431   C1368   1.167   1_554 S
C432   C899    1.167   .     S
C433   N445    1.438   .     S
C433   C438    1.404   .     A
C434   C437    1.404   .     A
C434   N448    1.438   .     S
C434   C332    1.384   1_655 S
C435   N451    1.434   .     S
C435   C437    1.402   .     A
C435   C329    1.384   1_655 S
C436   C438    1.402   .     A
C436   N454    1.434   .     S
C439   N444    1.372   .     A
C439   N457    1.422   .     S
C440   N443    1.372   .     A
C440   N460    1.422   .     S
C440   C129    1.423   1_565 S
C441   N463    1.421   .     S
C441   N444    1.373   .     A
C442   N443    1.373   .     A
C442   N466    1.421   .     S
C442   C127    1.423   1_565 S
N445   O446    1.301   .     A
N445   O447    1.301   .     A
N448   O449    1.301   .     A
N448   O450    1.301   .     A
N451   O453    1.301   .     A
N451   O452    1.301   .     A
N454   O456    1.301   .     A
N454   O455    1.301   .     A
N457   O458    1.300   .     A
N457   O459    1.301   .     A
N460   O461    1.300   .     A
N460   O462    1.301   .     A
N463   O465    1.301   .     A
N463   O464    1.300   .     A
N466   O468    1.301   .     A
N466   O467    1.300   .     A
O469   Zn481   1.989   .     S
O469   C473    1.293   .     A
O470   C474    1.293   .     A
O470   Zn482   1.989   .     S
O471   Zn481   1.989   .     S
O471   C474    1.295   .     A
O472   Zn482   1.989   .     S
O472   C473    1.295   .     A
C473   C490    1.413   .     S
C474   C489    1.413   .     S
O475   C479    1.291   .     A
O475   Zn481   1.951   .     S
O476   C480    1.291   .     A
O476   Zn482   1.951   .     S
O477   C480    1.292   .     A
O477   Zn481   1.951   .     S
O478   C479    1.292   .     A
O478   Zn482   1.951   .     S
C479   C483    1.369   .     S
C480   C484    1.369   .     S
Zn481  N495    2.046   .     S
Zn482  N496    2.046   .     S
C484   C951    1.167   .     S
C485   N497    1.438   .     S
C485   C490    1.404   .     A
C485   C591    1.384   1_455 S
C486   C489    1.404   .     A
C486   N500    1.438   .     S
C486   C540    1.384   .     S
C487   N503    1.434   .     S
C487   C489    1.402   .     A
C487   C537    1.384   .     S
C488   C490    1.402   .     A
C488   N506    1.434   .     S
C488   C590    1.384   1_455 S
C491   N496    1.372   .     A
C491   N509    1.422   .     S
C491   C806    1.423   1_545 S
C492   N495    1.372   .     A
C492   N512    1.422   .     S
C492   C649    1.423   .     S
C493   N515    1.421   .     S
C493   N496    1.373   .     A
C493   C804    1.423   1_545 S
C494   N495    1.373   .     A
C494   N518    1.421   .     S
C494   C647    1.423   .     S
N497   O498    1.301   .     A
N497   O499    1.301   .     A
N500   O501    1.301   .     A
N500   O502    1.301   .     A
N503   O505    1.301   .     A
N503   O504    1.301   .     A
N506   O508    1.301   .     A
N506   O507    1.301   .     A
N509   O510    1.300   .     A
N509   O511    1.301   .     A
N512   O513    1.300   .     A
N512   O514    1.301   .     A
N515   O517    1.301   .     A
N515   O516    1.300   .     A
N518   O520    1.301   .     A
N518   O519    1.300   .     A
O521   Zn533   1.989   .     S
O521   C525    1.293   .     A
O522   C526    1.293   .     A
O522   Zn534   1.989   .     S
O523   Zn533   1.989   .     S
O523   C526    1.295   .     A
O524   Zn534   1.989   .     S
O524   C525    1.295   .     A
C525   C542    1.413   .     S
C526   C541    1.413   .     S
O527   C531    1.291   .     A
O527   Zn533   1.951   .     S
O528   C532    1.291   .     A
O528   Zn534   1.951   .     S
O529   C532    1.292   .     A
O529   Zn533   1.951   .     S
O530   C531    1.292   .     A
O530   Zn534   1.951   .     S
C531   C535    1.369   .     S
C532   C536    1.369   .     S
Zn533  N547    2.046   .     S
Zn534  N548    2.046   .     S
C536   C1003   1.167   .     S
C537   N549    1.438   .     S
C537   C542    1.404   .     A
C538   C541    1.404   .     A
C538   N552    1.438   .     S
C538   C592    1.384   .     S
C539   N555    1.434   .     S
C539   C541    1.402   .     A
C539   C589    1.384   .     S
C540   C542    1.402   .     A
C540   N558    1.434   .     S
C543   N548    1.372   .     A
C543   N561    1.422   .     S
C543   C858    1.423   1_545 S
C544   N547    1.372   .     A
C544   N564    1.422   .     S
C544   C701    1.423   .     S
C545   N567    1.421   .     S
C545   N548    1.373   .     A
C545   C856    1.423   1_545 S
C546   N547    1.373   .     A
C546   N570    1.421   .     S
C546   C699    1.423   .     S
N549   O550    1.301   .     A
N549   O551    1.301   .     A
N552   O553    1.301   .     A
N552   O554    1.301   .     A
N555   O557    1.301   .     A
N555   O556    1.301   .     A
N558   O560    1.301   .     A
N558   O559    1.301   .     A
N561   O562    1.300   .     A
N561   O563    1.301   .     A
N564   O565    1.300   .     A
N564   O566    1.301   .     A
N567   O569    1.301   .     A
N567   O568    1.300   .     A
N570   O572    1.301   .     A
N570   O571    1.300   .     A
O573   Zn585   1.989   .     S
O573   C577    1.293   .     A
O574   C578    1.293   .     A
O574   Zn586   1.989   .     S
O575   Zn585   1.989   .     S
O575   C578    1.295   .     A
O576   Zn586   1.989   .     S
O576   C577    1.295   .     A
C577   C594    1.413   .     S
C578   C593    1.413   .     S
O579   C583    1.291   .     A
O579   Zn585   1.951   .     S
O580   C584    1.291   .     A
O580   Zn586   1.951   .     S
O581   C584    1.292   .     A
O581   Zn585   1.951   .     S
O582   C583    1.292   .     A
O582   Zn586   1.951   .     S
C583   C587    1.369   .     S
C584   C588    1.369   .     S
Zn585  N599    2.046   .     S
Zn586  N600    2.046   .     S
C588   C1055   1.167   .     S
C589   N601    1.438   .     S
C589   C594    1.404   .     A
C590   C593    1.404   .     A
C590   N604    1.438   .     S
C590   C488    1.384   1_655 S
C591   N607    1.434   .     S
C591   C593    1.402   .     A
C591   C485    1.384   1_655 S
C592   C594    1.402   .     A
C592   N610    1.434   .     S
C595   N600    1.372   .     A
C595   N613    1.422   .     S
C595   C910    1.423   1_545 S
C596   N599    1.372   .     A
C596   N616    1.422   .     S
C596   C753    1.423   .     S
C597   N619    1.421   .     S
C597   N600    1.373   .     A
C597   C908    1.423   1_545 S
C598   N599    1.373   .     A
C598   N622    1.421   .     S
C598   C751    1.423   .     S
N601   O602    1.301   .     A
N601   O603    1.301   .     A
N604   O605    1.301   .     A
N604   O606    1.301   .     A
N607   O609    1.301   .     A
N607   O608    1.301   .     A
N610   O612    1.301   .     A
N610   O611    1.301   .     A
N613   O614    1.300   .     A
N613   O615    1.301   .     A
N616   O617    1.300   .     A
N616   O618    1.301   .     A
N619   O621    1.301   .     A
N619   O620    1.300   .     A
N622   O624    1.301   .     A
N622   O623    1.300   .     A
O625   Zn637   1.989   .     S
O625   C629    1.293   .     A
O626   C630    1.293   .     A
O626   Zn638   1.989   .     S
O627   Zn637   1.989   .     S
O627   C630    1.295   .     A
O628   Zn638   1.989   .     S
O628   C629    1.295   .     A
C629   C646    1.413   .     S
C630   C645    1.413   .     S
O631   C635    1.291   .     A
O631   Zn637   1.951   .     S
O632   C636    1.291   .     A
O632   Zn638   1.951   .     S
O633   C636    1.292   .     A
O633   Zn637   1.951   .     S
O634   C635    1.292   .     A
O634   Zn638   1.951   .     S
C635   C639    1.369   .     S
C636   C640    1.369   .     S
Zn637  N651    2.046   .     S
Zn638  N652    2.046   .     S
C640   C1107   1.167   .     S
C641   N653    1.438   .     S
C641   C646    1.404   .     A
C641   C747    1.384   1_455 S
C642   C645    1.404   .     A
C642   N656    1.438   .     S
C642   C696    1.384   .     S
C643   N659    1.434   .     S
C643   C645    1.402   .     A
C643   C693    1.384   .     S
C644   C646    1.402   .     A
C644   N662    1.434   .     S
C644   C746    1.384   1_455 S
C647   N652    1.372   .     A
C647   N665    1.422   .     S
C648   N651    1.372   .     A
C648   N668    1.422   .     S
C648   C805    1.423   .     S
C649   N671    1.421   .     S
C649   N652    1.373   .     A
C650   N651    1.373   .     A
C650   N674    1.421   .     S
C650   C803    1.423   .     S
N653   O654    1.301   .     A
N653   O655    1.301   .     A
N656   O657    1.301   .     A
N656   O658    1.301   .     A
N659   O661    1.301   .     A
N659   O660    1.301   .     A
N662   O664    1.301   .     A
N662   O663    1.301   .     A
N665   O666    1.300   .     A
N665   O667    1.301   .     A
N668   O669    1.300   .     A
N668   O670    1.301   .     A
N671   O673    1.301   .     A
N671   O672    1.300   .     A
N674   O676    1.301   .     A
N674   O675    1.300   .     A
O677   Zn689   1.989   .     S
O677   C681    1.293   .     A
O678   C682    1.293   .     A
O678   Zn690   1.989   .     S
O679   Zn689   1.989   .     S
O679   C682    1.295   .     A
O680   Zn690   1.989   .     S
O680   C681    1.295   .     A
C681   C698    1.413   .     S
C682   C697    1.413   .     S
O683   C687    1.291   .     A
O683   Zn689   1.951   .     S
O684   C688    1.291   .     A
O684   Zn690   1.951   .     S
O685   C688    1.292   .     A
O685   Zn689   1.951   .     S
O686   C687    1.292   .     A
O686   Zn690   1.951   .     S
C687   C691    1.369   .     S
C688   C692    1.369   .     S
Zn689  N703    2.046   .     S
Zn690  N704    2.046   .     S
C692   C1159   1.167   .     S
C693   N705    1.438   .     S
C693   C698    1.404   .     A
C694   C697    1.404   .     A
C694   N708    1.438   .     S
C694   C748    1.384   .     S
C695   N711    1.434   .     S
C695   C697    1.402   .     A
C695   C745    1.384   .     S
C696   C698    1.402   .     A
C696   N714    1.434   .     S
C699   N704    1.372   .     A
C699   N717    1.422   .     S
C700   N703    1.372   .     A
C700   N720    1.422   .     S
C700   C857    1.423   .     S
C701   N723    1.421   .     S
C701   N704    1.373   .     A
C702   N703    1.373   .     A
C702   N726    1.421   .     S
C702   C855    1.423   .     S
N705   O706    1.301   .     A
N705   O707    1.301   .     A
N708   O709    1.301   .     A
N708   O710    1.301   .     A
N711   O713    1.301   .     A
N711   O712    1.301   .     A
N714   O716    1.301   .     A
N714   O715    1.301   .     A
N717   O718    1.300   .     A
N717   O719    1.301   .     A
N720   O721    1.300   .     A
N720   O722    1.301   .     A
N723   O725    1.301   .     A
N723   O724    1.300   .     A
N726   O728    1.301   .     A
N726   O727    1.300   .     A
O729   Zn741   1.989   .     S
O729   C733    1.293   .     A
O730   C734    1.293   .     A
O730   Zn742   1.989   .     S
O731   Zn741   1.989   .     S
O731   C734    1.295   .     A
O732   Zn742   1.989   .     S
O732   C733    1.295   .     A
C733   C750    1.413   .     S
C734   C749    1.413   .     S
O735   C739    1.291   .     A
O735   Zn741   1.951   .     S
O736   C740    1.291   .     A
O736   Zn742   1.951   .     S
O737   C740    1.292   .     A
O737   Zn741   1.951   .     S
O738   C739    1.292   .     A
O738   Zn742   1.951   .     S
C739   C743    1.369   .     S
C740   C744    1.369   .     S
Zn741  N755    2.046   .     S
Zn742  N756    2.046   .     S
C744   C1211   1.167   .     S
C745   N757    1.438   .     S
C745   C750    1.404   .     A
C746   C749    1.404   .     A
C746   N760    1.438   .     S
C746   C644    1.384   1_655 S
C747   N763    1.434   .     S
C747   C749    1.402   .     A
C747   C641    1.384   1_655 S
C748   C750    1.402   .     A
C748   N766    1.434   .     S
C751   N756    1.372   .     A
C751   N769    1.422   .     S
C752   N755    1.372   .     A
C752   N772    1.422   .     S
C752   C909    1.423   .     S
C753   N775    1.421   .     S
C753   N756    1.373   .     A
C754   N755    1.373   .     A
C754   N778    1.421   .     S
C754   C907    1.423   .     S
N757   O758    1.301   .     A
N757   O759    1.301   .     A
N760   O761    1.301   .     A
N760   O762    1.301   .     A
N763   O765    1.301   .     A
N763   O764    1.301   .     A
N766   O768    1.301   .     A
N766   O767    1.301   .     A
N769   O770    1.300   .     A
N769   O771    1.301   .     A
N772   O773    1.300   .     A
N772   O774    1.301   .     A
N775   O777    1.301   .     A
N775   O776    1.300   .     A
N778   O780    1.301   .     A
N778   O779    1.300   .     A
O781   Zn793   1.989   .     S
O781   C785    1.293   .     A
O782   C786    1.293   .     A
O782   Zn794   1.989   .     S
O783   Zn793   1.989   .     S
O783   C786    1.295   .     A
O784   Zn794   1.989   .     S
O784   C785    1.295   .     A
C785   C802    1.413   .     S
C786   C801    1.413   .     S
O787   C791    1.291   .     A
O787   Zn793   1.951   .     S
O788   C792    1.291   .     A
O788   Zn794   1.951   .     S
O789   C792    1.292   .     A
O789   Zn793   1.951   .     S
O790   C791    1.292   .     A
O790   Zn794   1.951   .     S
C791   C795    1.369   .     S
C792   C796    1.369   .     S
Zn793  N807    2.046   .     S
Zn794  N808    2.046   .     S
C796   C1263   1.167   .     S
C797   N809    1.438   .     S
C797   C802    1.404   .     A
C797   C903    1.384   1_455 S
C798   C801    1.404   .     A
C798   N812    1.438   .     S
C798   C852    1.384   .     S
C799   N815    1.434   .     S
C799   C801    1.402   .     A
C799   C849    1.384   .     S
C800   C802    1.402   .     A
C800   N818    1.434   .     S
C800   C902    1.384   1_455 S
C803   N808    1.372   .     A
C803   N821    1.422   .     S
C804   N807    1.372   .     A
C804   N824    1.422   .     S
C804   C493    1.423   1_565 S
C805   N827    1.421   .     S
C805   N808    1.373   .     A
C806   N807    1.373   .     A
C806   N830    1.421   .     S
C806   C491    1.423   1_565 S
N809   O810    1.301   .     A
N809   O811    1.301   .     A
N812   O813    1.301   .     A
N812   O814    1.301   .     A
N815   O817    1.301   .     A
N815   O816    1.301   .     A
N818   O820    1.301   .     A
N818   O819    1.301   .     A
N821   O822    1.300   .     A
N821   O823    1.301   .     A
N824   O825    1.300   .     A
N824   O826    1.301   .     A
N827   O829    1.301   .     A
N827   O828    1.300   .     A
N830   O832    1.301   .     A
N830   O831    1.300   .     A
O833   Zn845   1.989   .     S
O833   C837    1.293   .     A
O834   C838    1.293   .     A
O834   Zn846   1.989   .     S
O835   Zn845   1.989   .     S
O835   C838    1.295   .     A
O836   Zn846   1.989   .     S
O836   C837    1.295   .     A
C837   C854    1.413   .     S
C838   C853    1.413   .     S
O839   C843    1.291   .     A
O839   Zn845   1.951   .     S
O840   C844    1.291   .     A
O840   Zn846   1.951   .     S
O841   C844    1.292   .     A
O841   Zn845   1.951   .     S
O842   C843    1.292   .     A
O842   Zn846   1.951   .     S
C843   C847    1.369   .     S
C844   C848    1.369   .     S
Zn845  N859    2.046   .     S
Zn846  N860    2.046   .     S
C848   C1315   1.167   .     S
C849   N861    1.438   .     S
C849   C854    1.404   .     A
C850   C853    1.404   .     A
C850   N864    1.438   .     S
C850   C904    1.384   .     S
C851   N867    1.434   .     S
C851   C853    1.402   .     A
C851   C901    1.384   .     S
C852   C854    1.402   .     A
C852   N870    1.434   .     S
C855   N860    1.372   .     A
C855   N873    1.422   .     S
C856   N859    1.372   .     A
C856   N876    1.422   .     S
C856   C545    1.423   1_565 S
C857   N879    1.421   .     S
C857   N860    1.373   .     A
C858   N859    1.373   .     A
C858   N882    1.421   .     S
C858   C543    1.423   1_565 S
N861   O862    1.301   .     A
N861   O863    1.301   .     A
N864   O865    1.301   .     A
N864   O866    1.301   .     A
N867   O869    1.301   .     A
N867   O868    1.301   .     A
N870   O872    1.301   .     A
N870   O871    1.301   .     A
N873   O874    1.300   .     A
N873   O875    1.301   .     A
N876   O877    1.300   .     A
N876   O878    1.301   .     A
N879   O881    1.301   .     A
N879   O880    1.300   .     A
N882   O884    1.301   .     A
N882   O883    1.300   .     A
O885   Zn897   1.989   .     S
O885   C889    1.293   .     A
O886   C890    1.293   .     A
O886   Zn898   1.989   .     S
O887   Zn897   1.989   .     S
O887   C890    1.295   .     A
O888   Zn898   1.989   .     S
O888   C889    1.295   .     A
C889   C906    1.413   .     S
C890   C905    1.413   .     S
O891   C895    1.291   .     A
O891   Zn897   1.951   .     S
O892   C896    1.291   .     A
O892   Zn898   1.951   .     S
O893   C896    1.292   .     A
O893   Zn897   1.951   .     S
O894   C895    1.292   .     A
O894   Zn898   1.951   .     S
C895   C899    1.369   .     S
C896   C900    1.369   .     S
Zn897  N911    2.046   .     S
Zn898  N912    2.046   .     S
C900   C1367   1.167   .     S
C901   N913    1.438   .     S
C901   C906    1.404   .     A
C902   C905    1.404   .     A
C902   N916    1.438   .     S
C902   C800    1.384   1_655 S
C903   N919    1.434   .     S
C903   C905    1.402   .     A
C903   C797    1.384   1_655 S
C904   C906    1.402   .     A
C904   N922    1.434   .     S
C907   N912    1.372   .     A
C907   N925    1.422   .     S
C908   N911    1.372   .     A
C908   N928    1.422   .     S
C908   C597    1.423   1_565 S
C909   N931    1.421   .     S
C909   N912    1.373   .     A
C910   N911    1.373   .     A
C910   N934    1.421   .     S
C910   C595    1.423   1_565 S
N913   O914    1.301   .     A
N913   O915    1.301   .     A
N916   O917    1.301   .     A
N916   O918    1.301   .     A
N919   O921    1.301   .     A
N919   O920    1.301   .     A
N922   O924    1.301   .     A
N922   O923    1.301   .     A
N925   O926    1.300   .     A
N925   O927    1.301   .     A
N928   O929    1.300   .     A
N928   O930    1.301   .     A
N931   O933    1.301   .     A
N931   O932    1.300   .     A
N934   O936    1.301   .     A
N934   O935    1.300   .     A
O937   Zn949   1.989   .     S
O937   C941    1.293   .     A
O938   C942    1.293   .     A
O938   Zn950   1.989   .     S
O939   Zn949   1.989   .     S
O939   C942    1.295   .     A
O940   Zn950   1.989   .     S
O940   C941    1.295   .     A
C941   C958    1.413   .     S
C942   C957    1.413   .     S
O943   C947    1.291   .     A
O943   Zn949   1.951   .     S
O944   C948    1.291   .     A
O944   Zn950   1.951   .     S
O945   C948    1.292   .     A
O945   Zn949   1.951   .     S
O946   C947    1.292   .     A
O946   Zn950   1.951   .     S
C947   C951    1.369   .     S
C948   C952    1.369   .     S
Zn949  N963    2.046   .     S
Zn950  N964    2.046   .     S
C952   C15     1.167   1_556 S
C953   N965    1.438   .     S
C953   C958    1.404   .     A
C953   C1059   1.384   1_455 S
C954   C957    1.404   .     A
C954   N968    1.438   .     S
C954   C1008   1.384   .     S
C955   N971    1.434   .     S
C955   C957    1.402   .     A
C955   C1005   1.384   .     S
C956   C958    1.402   .     A
C956   N974    1.434   .     S
C956   C1058   1.384   1_455 S
C959   N964    1.372   .     A
C959   N977    1.422   .     S
C959   C1274   1.423   1_545 S
C960   N963    1.372   .     A
C960   N980    1.422   .     S
C960   C1117   1.423   .     S
C961   N983    1.421   .     S
C961   N964    1.373   .     A
C961   C1272   1.423   1_545 S
C962   N963    1.373   .     A
C962   N986    1.421   .     S
C962   C1115   1.423   .     S
N965   O966    1.301   .     A
N965   O967    1.301   .     A
N968   O969    1.301   .     A
N968   O970    1.301   .     A
N971   O973    1.301   .     A
N971   O972    1.301   .     A
N974   O976    1.301   .     A
N974   O975    1.301   .     A
N977   O978    1.300   .     A
N977   O979    1.301   .     A
N980   O981    1.300   .     A
N980   O982    1.301   .     A
N983   O985    1.301   .     A
N983   O984    1.300   .     A
N986   O988    1.301   .     A
N986   O987    1.300   .     A
O989   Zn1001  1.989   .     S
O989   C993    1.293   .     A
O990   C994    1.293   .     A
O990   Zn1002  1.989   .     S
O991   Zn1001  1.989   .     S
O991   C994    1.295   .     A
O992   Zn1002  1.989   .     S
O992   C993    1.295   .     A
C993   C1010   1.413   .     S
C994   C1009   1.413   .     S
O995   C999    1.291   .     A
O995   Zn1001  1.951   .     S
O996   C1000   1.291   .     A
O996   Zn1002  1.951   .     S
O997   C1000   1.292   .     A
O997   Zn1001  1.951   .     S
O998   C999    1.292   .     A
O998   Zn1002  1.951   .     S
C999   C1003   1.369   .     S
C1000  C1004   1.369   .     S
Zn1001 N1015   2.046   .     S
Zn1002 N1016   2.046   .     S
C1004  C67     1.167   1_556 S
C1005  N1017   1.438   .     S
C1005  C1010   1.404   .     A
C1006  C1009   1.404   .     A
C1006  N1020   1.438   .     S
C1006  C1060   1.384   .     S
C1007  N1023   1.434   .     S
C1007  C1009   1.402   .     A
C1007  C1057   1.384   .     S
C1008  C1010   1.402   .     A
C1008  N1026   1.434   .     S
C1011  N1016   1.372   .     A
C1011  N1029   1.422   .     S
C1011  C1326   1.423   1_545 S
C1012  N1015   1.372   .     A
C1012  N1032   1.422   .     S
C1012  C1169   1.423   .     S
C1013  N1035   1.421   .     S
C1013  N1016   1.373   .     A
C1013  C1324   1.423   1_545 S
C1014  N1015   1.373   .     A
C1014  N1038   1.421   .     S
C1014  C1167   1.423   .     S
N1017  O1018   1.301   .     A
N1017  O1019   1.301   .     A
N1020  O1021   1.301   .     A
N1020  O1022   1.301   .     A
N1023  O1025   1.301   .     A
N1023  O1024   1.301   .     A
N1026  O1028   1.301   .     A
N1026  O1027   1.301   .     A
N1029  O1030   1.300   .     A
N1029  O1031   1.301   .     A
N1032  O1033   1.300   .     A
N1032  O1034   1.301   .     A
N1035  O1037   1.301   .     A
N1035  O1036   1.300   .     A
N1038  O1040   1.301   .     A
N1038  O1039   1.300   .     A
O1041  Zn1053  1.989   .     S
O1041  C1045   1.293   .     A
O1042  C1046   1.293   .     A
O1042  Zn1054  1.989   .     S
O1043  Zn1053  1.989   .     S
O1043  C1046   1.295   .     A
O1044  Zn1054  1.989   .     S
O1044  C1045   1.295   .     A
C1045  C1062   1.413   .     S
C1046  C1061   1.413   .     S
O1047  C1051   1.291   .     A
O1047  Zn1053  1.951   .     S
O1048  C1052   1.291   .     A
O1048  Zn1054  1.951   .     S
O1049  C1052   1.292   .     A
O1049  Zn1053  1.951   .     S
O1050  C1051   1.292   .     A
O1050  Zn1054  1.951   .     S
C1051  C1055   1.369   .     S
C1052  C1056   1.369   .     S
Zn1053 N1067   2.046   .     S
Zn1054 N1068   2.046   .     S
C1056  C119    1.167   1_556 S
C1057  N1069   1.438   .     S
C1057  C1062   1.404   .     A
C1058  C1061   1.404   .     A
C1058  N1072   1.438   .     S
C1058  C956    1.384   1_655 S
C1059  N1075   1.434   .     S
C1059  C1061   1.402   .     A
C1059  C953    1.384   1_655 S
C1060  C1062   1.402   .     A
C1060  N1078   1.434   .     S
C1063  N1068   1.372   .     A
C1063  N1081   1.422   .     S
C1063  C1378   1.423   1_545 S
C1064  N1067   1.372   .     A
C1064  N1084   1.422   .     S
C1064  C1221   1.423   .     S
C1065  N1087   1.421   .     S
C1065  N1068   1.373   .     A
C1065  C1376   1.423   1_545 S
C1066  N1067   1.373   .     A
C1066  N1090   1.421   .     S
C1066  C1219   1.423   .     S
N1069  O1070   1.301   .     A
N1069  O1071   1.301   .     A
N1072  O1073   1.301   .     A
N1072  O1074   1.301   .     A
N1075  O1077   1.301   .     A
N1075  O1076   1.301   .     A
N1078  O1080   1.301   .     A
N1078  O1079   1.301   .     A
N1081  O1082   1.300   .     A
N1081  O1083   1.301   .     A
N1084  O1085   1.300   .     A
N1084  O1086   1.301   .     A
N1087  O1089   1.301   .     A
N1087  O1088   1.300   .     A
N1090  O1092   1.301   .     A
N1090  O1091   1.300   .     A
O1093  Zn1105  1.989   .     S
O1093  C1097   1.293   .     A
O1094  C1098   1.293   .     A
O1094  Zn1106  1.989   .     S
O1095  Zn1105  1.989   .     S
O1095  C1098   1.295   .     A
O1096  Zn1106  1.989   .     S
O1096  C1097   1.295   .     A
C1097  C1114   1.413   .     S
C1098  C1113   1.413   .     S
O1099  C1103   1.291   .     A
O1099  Zn1105  1.951   .     S
O1100  C1104   1.291   .     A
O1100  Zn1106  1.951   .     S
O1101  C1104   1.292   .     A
O1101  Zn1105  1.951   .     S
O1102  C1103   1.292   .     A
O1102  Zn1106  1.951   .     S
C1103  C1107   1.369   .     S
C1104  C1108   1.369   .     S
Zn1105 N1119   2.046   .     S
Zn1106 N1120   2.046   .     S
C1108  C171    1.167   1_556 S
C1109  N1121   1.438   .     S
C1109  C1114   1.404   .     A
C1109  C1215   1.384   1_455 S
C1110  C1113   1.404   .     A
C1110  N1124   1.438   .     S
C1110  C1164   1.384   .     S
C1111  N1127   1.434   .     S
C1111  C1113   1.402   .     A
C1111  C1161   1.384   .     S
C1112  C1114   1.402   .     A
C1112  N1130   1.434   .     S
C1112  C1214   1.384   1_455 S
C1115  N1120   1.372   .     A
C1115  N1133   1.422   .     S
C1116  N1119   1.372   .     A
C1116  N1136   1.422   .     S
C1116  C1273   1.423   .     S
C1117  N1139   1.421   .     S
C1117  N1120   1.373   .     A
C1118  N1119   1.373   .     A
C1118  N1142   1.421   .     S
C1118  C1271   1.423   .     S
N1121  O1122   1.301   .     A
N1121  O1123   1.301   .     A
N1124  O1125   1.301   .     A
N1124  O1126   1.301   .     A
N1127  O1129   1.301   .     A
N1127  O1128   1.301   .     A
N1130  O1132   1.301   .     A
N1130  O1131   1.301   .     A
N1133  O1134   1.300   .     A
N1133  O1135   1.301   .     A
N1136  O1137   1.300   .     A
N1136  O1138   1.301   .     A
N1139  O1141   1.301   .     A
N1139  O1140   1.300   .     A
N1142  O1144   1.301   .     A
N1142  O1143   1.300   .     A
O1145  Zn1157  1.989   .     S
O1145  C1149   1.293   .     A
O1146  C1150   1.293   .     A
O1146  Zn1158  1.989   .     S
O1147  Zn1157  1.989   .     S
O1147  C1150   1.295   .     A
O1148  Zn1158  1.989   .     S
O1148  C1149   1.295   .     A
C1149  C1166   1.413   .     S
C1150  C1165   1.413   .     S
O1151  C1155   1.291   .     A
O1151  Zn1157  1.951   .     S
O1152  C1156   1.291   .     A
O1152  Zn1158  1.951   .     S
O1153  C1156   1.292   .     A
O1153  Zn1157  1.951   .     S
O1154  C1155   1.292   .     A
O1154  Zn1158  1.951   .     S
C1155  C1159   1.369   .     S
C1156  C1160   1.369   .     S
Zn1157 N1171   2.046   .     S
Zn1158 N1172   2.046   .     S
C1160  C223    1.167   1_556 S
C1161  N1173   1.438   .     S
C1161  C1166   1.404   .     A
C1162  C1165   1.404   .     A
C1162  N1176   1.438   .     S
C1162  C1216   1.384   .     S
C1163  N1179   1.434   .     S
C1163  C1165   1.402   .     A
C1163  C1213   1.384   .     S
C1164  C1166   1.402   .     A
C1164  N1182   1.434   .     S
C1167  N1172   1.372   .     A
C1167  N1185   1.422   .     S
C1168  N1171   1.372   .     A
C1168  N1188   1.422   .     S
C1168  C1325   1.423   .     S
C1169  N1191   1.421   .     S
C1169  N1172   1.373   .     A
C1170  N1171   1.373   .     A
C1170  N1194   1.421   .     S
C1170  C1323   1.423   .     S
N1173  O1174   1.301   .     A
N1173  O1175   1.301   .     A
N1176  O1177   1.301   .     A
N1176  O1178   1.301   .     A
N1179  O1181   1.301   .     A
N1179  O1180   1.301   .     A
N1182  O1184   1.301   .     A
N1182  O1183   1.301   .     A
N1185  O1186   1.300   .     A
N1185  O1187   1.301   .     A
N1188  O1189   1.300   .     A
N1188  O1190   1.301   .     A
N1191  O1193   1.301   .     A
N1191  O1192   1.300   .     A
N1194  O1196   1.301   .     A
N1194  O1195   1.300   .     A
O1197  Zn1209  1.989   .     S
O1197  C1201   1.293   .     A
O1198  C1202   1.293   .     A
O1198  Zn1210  1.989   .     S
O1199  Zn1209  1.989   .     S
O1199  C1202   1.295   .     A
O1200  Zn1210  1.989   .     S
O1200  C1201   1.295   .     A
C1201  C1218   1.413   .     S
C1202  C1217   1.413   .     S
O1203  C1207   1.291   .     A
O1203  Zn1209  1.951   .     S
O1204  C1208   1.291   .     A
O1204  Zn1210  1.951   .     S
O1205  C1208   1.292   .     A
O1205  Zn1209  1.951   .     S
O1206  C1207   1.292   .     A
O1206  Zn1210  1.951   .     S
C1207  C1211   1.369   .     S
C1208  C1212   1.369   .     S
Zn1209 N1223   2.046   .     S
Zn1210 N1224   2.046   .     S
C1212  C275    1.167   1_556 S
C1213  N1225   1.438   .     S
C1213  C1218   1.404   .     A
C1214  C1217   1.404   .     A
C1214  N1228   1.438   .     S
C1214  C1112   1.384   1_655 S
C1215  N1231   1.434   .     S
C1215  C1217   1.402   .     A
C1215  C1109   1.384   1_655 S
C1216  C1218   1.402   .     A
C1216  N1234   1.434   .     S
C1219  N1224   1.372   .     A
C1219  N1237   1.422   .     S
C1220  N1223   1.372   .     A
C1220  N1240   1.422   .     S
C1220  C1377   1.423   .     S
C1221  N1243   1.421   .     S
C1221  N1224   1.373   .     A
C1222  N1223   1.373   .     A
C1222  N1246   1.421   .     S
C1222  C1375   1.423   .     S
N1225  O1226   1.301   .     A
N1225  O1227   1.301   .     A
N1228  O1229   1.301   .     A
N1228  O1230   1.301   .     A
N1231  O1233   1.301   .     A
N1231  O1232   1.301   .     A
N1234  O1236   1.301   .     A
N1234  O1235   1.301   .     A
N1237  O1238   1.300   .     A
N1237  O1239   1.301   .     A
N1240  O1241   1.300   .     A
N1240  O1242   1.301   .     A
N1243  O1245   1.301   .     A
N1243  O1244   1.300   .     A
N1246  O1248   1.301   .     A
N1246  O1247   1.300   .     A
O1249  Zn1261  1.989   .     S
O1249  C1253   1.293   .     A
O1250  C1254   1.293   .     A
O1250  Zn1262  1.989   .     S
O1251  Zn1261  1.989   .     S
O1251  C1254   1.295   .     A
O1252  Zn1262  1.989   .     S
O1252  C1253   1.295   .     A
C1253  C1270   1.413   .     S
C1254  C1269   1.413   .     S
O1255  C1259   1.291   .     A
O1255  Zn1261  1.951   .     S
O1256  C1260   1.291   .     A
O1256  Zn1262  1.951   .     S
O1257  C1260   1.292   .     A
O1257  Zn1261  1.951   .     S
O1258  C1259   1.292   .     A
O1258  Zn1262  1.951   .     S
C1259  C1263   1.369   .     S
C1260  C1264   1.369   .     S
Zn1261 N1275   2.046   .     S
Zn1262 N1276   2.046   .     S
C1264  C327    1.167   1_556 S
C1265  N1277   1.438   .     S
C1265  C1270   1.404   .     A
C1265  C1371   1.384   1_455 S
C1266  C1269   1.404   .     A
C1266  N1280   1.438   .     S
C1266  C1320   1.384   .     S
C1267  N1283   1.434   .     S
C1267  C1269   1.402   .     A
C1267  C1317   1.384   .     S
C1268  C1270   1.402   .     A
C1268  N1286   1.434   .     S
C1268  C1370   1.384   1_455 S
C1271  N1276   1.372   .     A
C1271  N1289   1.422   .     S
C1272  N1275   1.372   .     A
C1272  N1292   1.422   .     S
C1272  C961    1.423   1_565 S
C1273  N1295   1.421   .     S
C1273  N1276   1.373   .     A
C1274  N1275   1.373   .     A
C1274  N1298   1.421   .     S
C1274  C959    1.423   1_565 S
N1277  O1278   1.301   .     A
N1277  O1279   1.301   .     A
N1280  O1281   1.301   .     A
N1280  O1282   1.301   .     A
N1283  O1285   1.301   .     A
N1283  O1284   1.301   .     A
N1286  O1288   1.301   .     A
N1286  O1287   1.301   .     A
N1289  O1290   1.300   .     A
N1289  O1291   1.301   .     A
N1292  O1293   1.300   .     A
N1292  O1294   1.301   .     A
N1295  O1297   1.301   .     A
N1295  O1296   1.300   .     A
N1298  O1300   1.301   .     A
N1298  O1299   1.300   .     A
O1301  Zn1313  1.989   .     S
O1301  C1305   1.293   .     A
O1302  C1306   1.293   .     A
O1302  Zn1314  1.989   .     S
O1303  Zn1313  1.989   .     S
O1303  C1306   1.295   .     A
O1304  Zn1314  1.989   .     S
O1304  C1305   1.295   .     A
C1305  C1322   1.413   .     S
C1306  C1321   1.413   .     S
O1307  C1311   1.291   .     A
O1307  Zn1313  1.951   .     S
O1308  C1312   1.291   .     A
O1308  Zn1314  1.951   .     S
O1309  C1312   1.292   .     A
O1309  Zn1313  1.951   .     S
O1310  C1311   1.292   .     A
O1310  Zn1314  1.951   .     S
C1311  C1315   1.369   .     S
C1312  C1316   1.369   .     S
Zn1313 N1327   2.046   .     S
Zn1314 N1328   2.046   .     S
C1316  C379    1.167   1_556 S
C1317  N1329   1.438   .     S
C1317  C1322   1.404   .     A
C1318  C1321   1.404   .     A
C1318  N1332   1.438   .     S
C1318  C1372   1.384   .     S
C1319  N1335   1.434   .     S
C1319  C1321   1.402   .     A
C1319  C1369   1.384   .     S
C1320  C1322   1.402   .     A
C1320  N1338   1.434   .     S
C1323  N1328   1.372   .     A
C1323  N1341   1.422   .     S
C1324  N1327   1.372   .     A
C1324  N1344   1.422   .     S
C1324  C1013   1.423   1_565 S
C1325  N1347   1.421   .     S
C1325  N1328   1.373   .     A
C1326  N1327   1.373   .     A
C1326  N1350   1.421   .     S
C1326  C1011   1.423   1_565 S
N1329  O1330   1.301   .     A
N1329  O1331   1.301   .     A
N1332  O1333   1.301   .     A
N1332  O1334   1.301   .     A
N1335  O1337   1.301   .     A
N1335  O1336   1.301   .     A
N1338  O1340   1.301   .     A
N1338  O1339   1.301   .     A
N1341  O1342   1.300   .     A
N1341  O1343   1.301   .     A
N1344  O1345   1.300   .     A
N1344  O1346   1.301   .     A
N1347  O1349   1.301   .     A
N1347  O1348   1.300   .     A
N1350  O1352   1.301   .     A
N1350  O1351   1.300   .     A
O1353  Zn1365  1.989   .     S
O1353  C1357   1.293   .     A
O1354  C1358   1.293   .     A
O1354  Zn1366  1.989   .     S
O1355  Zn1365  1.989   .     S
O1355  C1358   1.295   .     A
O1356  Zn1366  1.989   .     S
O1356  C1357   1.295   .     A
C1357  C1374   1.413   .     S
C1358  C1373   1.413   .     S
O1359  C1363   1.291   .     A
O1359  Zn1365  1.951   .     S
O1360  C1364   1.291   .     A
O1360  Zn1366  1.951   .     S
O1361  C1364   1.292   .     A
O1361  Zn1365  1.951   .     S
O1362  C1363   1.292   .     A
O1362  Zn1366  1.951   .     S
C1363  C1367   1.369   .     S
C1364  C1368   1.369   .     S
Zn1365 N1379   2.046   .     S
Zn1366 N1380   2.046   .     S
C1368  C431    1.167   1_556 S
C1369  N1381   1.438   .     S
C1369  C1374   1.404   .     A
C1370  C1373   1.404   .     A
C1370  N1384   1.438   .     S
C1370  C1268   1.384   1_655 S
C1371  N1387   1.434   .     S
C1371  C1373   1.402   .     A
C1371  C1265   1.384   1_655 S
C1372  C1374   1.402   .     A
C1372  N1390   1.434   .     S
C1375  N1380   1.372   .     A
C1375  N1393   1.422   .     S
C1376  N1379   1.372   .     A
C1376  N1396   1.422   .     S
C1376  C1065   1.423   1_565 S
C1377  N1399   1.421   .     S
C1377  N1380   1.373   .     A
C1378  N1379   1.373   .     A
C1378  N1402   1.421   .     S
C1378  C1063   1.423   1_565 S
N1381  O1382   1.301   .     A
N1381  O1383   1.301   .     A
N1384  O1385   1.301   .     A
N1384  O1386   1.301   .     A
N1387  O1389   1.301   .     A
N1387  O1388   1.301   .     A
N1390  O1392   1.301   .     A
N1390  O1391   1.301   .     A
N1393  O1394   1.300   .     A
N1393  O1395   1.301   .     A
N1396  O1397   1.300   .     A
N1396  O1398   1.301   .     A
N1399  O1401   1.301   .     A
N1399  O1400   1.300   .     A
N1402  O1404   1.301   .     A
N1402  O1403   1.300   .     A
