data_str_m3_o10_o18_pcu_sym.66
_audit_creation_date              2020-01-03
_audit_creation_method            'Materials Studio'
_symmetry_space_group_name_H-M    'P1'
_symmetry_Int_Tables_number       1
_symmetry_cell_setting            triclinic
loop_
_symmetry_equiv_pos_as_xyz
  x,y,z
_cell_length_a                    23.4899
_cell_length_b                    25.8706
_cell_length_c                    27.3875
_cell_angle_alpha                 93.6291
_cell_angle_beta                  92.6050
_cell_angle_gamma                 94.0580
loop_
_atom_site_label
_atom_site_type_symbol
_atom_site_fract_x
_atom_site_fract_y
_atom_site_fract_z
_atom_site_U_iso_or_equiv
_atom_site_adp_type
_atom_site_occupancy
C1     C     0.01482   0.26474   0.24887   0.00000  Uiso   1.00
C2     C     0.31253   0.16238   0.15863   0.00000  Uiso   1.00
C3     C     0.03250   0.18410   0.39357   0.00000  Uiso   1.00
C4     C     0.30324   0.15891   0.10532   0.00000  Uiso   1.00
C5     C     0.02681   0.23945   0.46763   0.00000  Uiso   1.00
C6     C     0.32112   0.12450   0.02357   0.00000  Uiso   1.00
C7     C     0.00439   0.22183   0.42096   0.00000  Uiso   1.00
C8     C     0.00523   0.13281   0.07299   0.00000  Uiso   1.00
C9     C     0.08058   0.16373   0.41368   0.00000  Uiso   1.00
C10    C     0.25440   0.17994   0.08702   0.00000  Uiso   1.00
C11    C     0.10758   0.18585   0.45710   0.00000  Uiso   1.00
C12    C     0.31852   0.06859   0.25118   0.00000  Uiso   1.00
C13    C     0.23670   0.17248   0.03770   0.00000  Uiso   1.00
C14    C     0.07879   0.22260   0.48538   0.00000  Uiso   1.00
C15    C     0.26950   0.14227   0.00625   0.00000  Uiso   1.00
C16    C     0.16270   0.17276   0.47257   0.00000  Uiso   1.00
C17    C     0.18496   0.19107   0.01986   0.00000  Uiso   1.00
C18    C     0.05762   0.11182   0.08941   0.00000  Uiso   1.00
C19    C     0.28768   0.24454   0.40170   0.00000  Uiso   1.00
C20    C     0.07412   0.00585   0.28432   0.00000  Uiso   1.00
C21    C     0.25917   0.32747   0.21582   0.00000  Uiso   1.00
C22    C     0.15497   0.22748   0.04758   0.00000  Uiso   1.00
C23    C     0.19714   0.14368   0.44155   0.00000  Uiso   1.00
C24    C     0.10294   0.24310   0.03033   0.00000  Uiso   1.00
C25    C     0.24992   0.12928   0.45812   0.00000  Uiso   1.00
C26    C     0.02233   0.31908   0.25590   0.00000  Uiso   1.00
C27    C     0.31098   0.01425   0.24420   0.00000  Uiso   1.00
C28    C     0.02104   0.17212   0.34120   0.00000  Uiso   1.00
H29    H     0.08169   0.27162   0.05221   0.00000  Uiso   1.00
H30    H     0.17080   0.20871   0.28621   0.00000  Uiso   1.00
H31    H     0.27504   0.10701   0.43334   0.00000  Uiso   1.00
H32    H     0.22850   0.19927   0.11287   0.00000  Uiso   1.00
H33    H     0.09764   0.13181   0.39326   0.00000  Uiso   1.00
H34    H     0.00515   0.26801   0.48916   0.00000  Uiso   1.00
H35    H     0.01359   0.10276   0.49888   0.00000  Uiso   1.00
H36    H     0.17178   0.24650   0.08190   0.00000  Uiso   1.00
H37    H     0.18548   0.13303   0.40354   0.00000  Uiso   1.00
H38    H     0.16254   0.12461   0.21380   0.00000  Uiso   1.00
N39    N     0.14695   0.15216   0.23739   0.00000  Uiso   1.00
N40    N     0.18638   0.18117   0.26260   0.00000  Uiso   1.00
N41    N     0.09967   0.09504   0.10243   0.00000  Uiso   1.00
N42    N     0.24755   0.26274   0.38634   0.00000  Uiso   1.00
N43    N     0.11523   0.02168   0.30689   0.00000  Uiso   1.00
N44    N     0.21804   0.31163   0.19327   0.00000  Uiso   1.00
O45    O     0.29719   0.24631   0.25310   0.00000  Uiso   1.00
O46    O     0.03614   0.08702   0.24690   0.00000  Uiso   1.00
O47    O     0.05822   0.23702   0.24501   0.00000  Uiso   1.00
O48    O     0.27512   0.09632   0.25499   0.00000  Uiso   1.00
O49    O     0.30328   0.17397   0.32247   0.00000  Uiso   1.00
O50    O     0.03005   0.15937   0.17753   0.00000  Uiso   1.00
O51    O     0.06431   0.16467   0.31439   0.00000  Uiso   1.00
O52    O     0.26902   0.16866   0.18561   0.00000  Uiso   1.00
Zn53   Zn    0.27033   0.17287   0.25540   0.00000  Uiso   1.00
Zn54   Zn    0.06300   0.16046   0.24460   0.00000  Uiso   1.00
C55    C     0.34815   0.26474   0.24887   0.00000  Uiso   1.00
C56    C     0.64586   0.16238   0.15863   0.00000  Uiso   1.00
C57    C     0.36583   0.18410   0.39357   0.00000  Uiso   1.00
C58    C     0.63658   0.15891   0.10532   0.00000  Uiso   1.00
C59    C     0.36014   0.23945   0.46763   0.00000  Uiso   1.00
C60    C     0.65446   0.12450   0.02357   0.00000  Uiso   1.00
C61    C     0.33772   0.22183   0.42096   0.00000  Uiso   1.00
C62    C     0.33856   0.13281   0.07299   0.00000  Uiso   1.00
C63    C     0.41391   0.16373   0.41368   0.00000  Uiso   1.00
C64    C     0.58774   0.17994   0.08702   0.00000  Uiso   1.00
C65    C     0.44091   0.18585   0.45710   0.00000  Uiso   1.00
C66    C     0.65185   0.06859   0.25118   0.00000  Uiso   1.00
C67    C     0.57003   0.17248   0.03770   0.00000  Uiso   1.00
C68    C     0.41212   0.22260   0.48538   0.00000  Uiso   1.00
C69    C     0.60284   0.14227   0.00625   0.00000  Uiso   1.00
C70    C     0.49603   0.17276   0.47257   0.00000  Uiso   1.00
C71    C     0.51829   0.19107   0.01986   0.00000  Uiso   1.00
C72    C     0.39095   0.11182   0.08941   0.00000  Uiso   1.00
C73    C     0.62102   0.24454   0.40170   0.00000  Uiso   1.00
C74    C     0.40745   0.00585   0.28432   0.00000  Uiso   1.00
C75    C     0.59250   0.32747   0.21582   0.00000  Uiso   1.00
C76    C     0.48831   0.22748   0.04758   0.00000  Uiso   1.00
C77    C     0.53047   0.14368   0.44155   0.00000  Uiso   1.00
C78    C     0.43627   0.24310   0.03033   0.00000  Uiso   1.00
C79    C     0.58326   0.12928   0.45812   0.00000  Uiso   1.00
C80    C     0.35567   0.31908   0.25590   0.00000  Uiso   1.00
C81    C     0.64431   0.01425   0.24420   0.00000  Uiso   1.00
C82    C     0.35437   0.17212   0.34120   0.00000  Uiso   1.00
H83    H     0.41502   0.27162   0.05221   0.00000  Uiso   1.00
H84    H     0.50413   0.20871   0.28621   0.00000  Uiso   1.00
H85    H     0.60837   0.10701   0.43334   0.00000  Uiso   1.00
H86    H     0.56183   0.19927   0.11287   0.00000  Uiso   1.00
H87    H     0.43097   0.13181   0.39326   0.00000  Uiso   1.00
H88    H     0.33849   0.26801   0.48916   0.00000  Uiso   1.00
H89    H     0.34692   0.10276   0.49888   0.00000  Uiso   1.00
H90    H     0.50512   0.24650   0.08190   0.00000  Uiso   1.00
H91    H     0.51882   0.13303   0.40354   0.00000  Uiso   1.00
H92    H     0.49587   0.12461   0.21380   0.00000  Uiso   1.00
N93    N     0.48029   0.15216   0.23739   0.00000  Uiso   1.00
N94    N     0.51971   0.18117   0.26260   0.00000  Uiso   1.00
N95    N     0.43301   0.09504   0.10243   0.00000  Uiso   1.00
N96    N     0.58088   0.26274   0.38634   0.00000  Uiso   1.00
N97    N     0.44856   0.02168   0.30689   0.00000  Uiso   1.00
N98    N     0.55138   0.31163   0.19327   0.00000  Uiso   1.00
O99    O     0.63052   0.24631   0.25310   0.00000  Uiso   1.00
O100   O     0.36948   0.08702   0.24690   0.00000  Uiso   1.00
O101   O     0.39155   0.23702   0.24501   0.00000  Uiso   1.00
O102   O     0.60845   0.09632   0.25499   0.00000  Uiso   1.00
O103   O     0.63662   0.17397   0.32247   0.00000  Uiso   1.00
O104   O     0.36338   0.15937   0.17753   0.00000  Uiso   1.00
O105   O     0.39764   0.16467   0.31439   0.00000  Uiso   1.00
O106   O     0.60236   0.16866   0.18561   0.00000  Uiso   1.00
Zn107  Zn    0.60366   0.17287   0.25540   0.00000  Uiso   1.00
Zn108  Zn    0.39634   0.16046   0.24460   0.00000  Uiso   1.00
C109   C     0.68148   0.26474   0.24887   0.00000  Uiso   1.00
C110   C     0.97919   0.16238   0.15863   0.00000  Uiso   1.00
C111   C     0.69917   0.18410   0.39357   0.00000  Uiso   1.00
C112   C     0.96991   0.15891   0.10532   0.00000  Uiso   1.00
C113   C     0.69347   0.23945   0.46763   0.00000  Uiso   1.00
C114   C     0.98779   0.12450   0.02357   0.00000  Uiso   1.00
C115   C     0.67106   0.22183   0.42096   0.00000  Uiso   1.00
C116   C     0.67190   0.13281   0.07299   0.00000  Uiso   1.00
C117   C     0.74724   0.16373   0.41368   0.00000  Uiso   1.00
C118   C     0.92107   0.17994   0.08702   0.00000  Uiso   1.00
C119   C     0.77424   0.18585   0.45710   0.00000  Uiso   1.00
C120   C     0.98518   0.06859   0.25118   0.00000  Uiso   1.00
C121   C     0.90336   0.17248   0.03770   0.00000  Uiso   1.00
C122   C     0.74546   0.22260   0.48538   0.00000  Uiso   1.00
C123   C     0.93617   0.14227   0.00625   0.00000  Uiso   1.00
C124   C     0.82936   0.17276   0.47257   0.00000  Uiso   1.00
C125   C     0.85163   0.19107   0.01986   0.00000  Uiso   1.00
C126   C     0.72428   0.11182   0.08941   0.00000  Uiso   1.00
C127   C     0.95435   0.24454   0.40170   0.00000  Uiso   1.00
C128   C     0.74078   0.00585   0.28432   0.00000  Uiso   1.00
C129   C     0.92584   0.32747   0.21582   0.00000  Uiso   1.00
C130   C     0.82164   0.22748   0.04758   0.00000  Uiso   1.00
C131   C     0.86380   0.14368   0.44155   0.00000  Uiso   1.00
C132   C     0.76961   0.24310   0.03033   0.00000  Uiso   1.00
C133   C     0.91659   0.12928   0.45812   0.00000  Uiso   1.00
C134   C     0.68900   0.31908   0.25590   0.00000  Uiso   1.00
C135   C     0.97765   0.01425   0.24420   0.00000  Uiso   1.00
C136   C     0.68771   0.17212   0.34120   0.00000  Uiso   1.00
H137   H     0.74836   0.27162   0.05221   0.00000  Uiso   1.00
H138   H     0.83747   0.20871   0.28621   0.00000  Uiso   1.00
H139   H     0.94170   0.10701   0.43334   0.00000  Uiso   1.00
H140   H     0.89516   0.19927   0.11287   0.00000  Uiso   1.00
H141   H     0.76430   0.13181   0.39326   0.00000  Uiso   1.00
H142   H     0.67182   0.26801   0.48916   0.00000  Uiso   1.00
H143   H     0.68025   0.10276   0.49888   0.00000  Uiso   1.00
H144   H     0.83845   0.24650   0.08190   0.00000  Uiso   1.00
H145   H     0.85215   0.13303   0.40354   0.00000  Uiso   1.00
H146   H     0.82920   0.12461   0.21380   0.00000  Uiso   1.00
N147   N     0.81362   0.15216   0.23739   0.00000  Uiso   1.00
N148   N     0.85305   0.18117   0.26260   0.00000  Uiso   1.00
N149   N     0.76634   0.09504   0.10243   0.00000  Uiso   1.00
N150   N     0.91422   0.26274   0.38634   0.00000  Uiso   1.00
N151   N     0.78190   0.02168   0.30689   0.00000  Uiso   1.00
N152   N     0.88471   0.31163   0.19327   0.00000  Uiso   1.00
O153   O     0.96386   0.24631   0.25310   0.00000  Uiso   1.00
O154   O     0.70281   0.08702   0.24690   0.00000  Uiso   1.00
O155   O     0.72488   0.23702   0.24501   0.00000  Uiso   1.00
O156   O     0.94178   0.09632   0.25499   0.00000  Uiso   1.00
O157   O     0.96995   0.17397   0.32247   0.00000  Uiso   1.00
O158   O     0.69672   0.15937   0.17753   0.00000  Uiso   1.00
O159   O     0.73098   0.16467   0.31439   0.00000  Uiso   1.00
O160   O     0.93569   0.16866   0.18561   0.00000  Uiso   1.00
Zn161  Zn    0.93700   0.17287   0.25540   0.00000  Uiso   1.00
Zn162  Zn    0.72967   0.16046   0.24460   0.00000  Uiso   1.00
C163   C     0.01482   0.59807   0.24887   0.00000  Uiso   1.00
C164   C     0.31253   0.49571   0.15863   0.00000  Uiso   1.00
C165   C     0.03250   0.51743   0.39357   0.00000  Uiso   1.00
C166   C     0.30324   0.49224   0.10532   0.00000  Uiso   1.00
C167   C     0.02681   0.57278   0.46763   0.00000  Uiso   1.00
C168   C     0.32112   0.45783   0.02357   0.00000  Uiso   1.00
C169   C     0.00439   0.55516   0.42096   0.00000  Uiso   1.00
C170   C     0.00523   0.46614   0.07299   0.00000  Uiso   1.00
C171   C     0.08058   0.49706   0.41368   0.00000  Uiso   1.00
C172   C     0.25440   0.51327   0.08702   0.00000  Uiso   1.00
C173   C     0.10758   0.51919   0.45710   0.00000  Uiso   1.00
C174   C     0.31852   0.40193   0.25118   0.00000  Uiso   1.00
C175   C     0.23670   0.50581   0.03770   0.00000  Uiso   1.00
C176   C     0.07879   0.55593   0.48538   0.00000  Uiso   1.00
C177   C     0.26950   0.47560   0.00625   0.00000  Uiso   1.00
C178   C     0.16270   0.50610   0.47257   0.00000  Uiso   1.00
C179   C     0.18496   0.52440   0.01986   0.00000  Uiso   1.00
C180   C     0.05762   0.44516   0.08941   0.00000  Uiso   1.00
C181   C     0.28768   0.57787   0.40170   0.00000  Uiso   1.00
C182   C     0.07412   0.33919   0.28432   0.00000  Uiso   1.00
C183   C     0.25917   0.66080   0.21582   0.00000  Uiso   1.00
C184   C     0.15497   0.56081   0.04758   0.00000  Uiso   1.00
C185   C     0.19714   0.47702   0.44155   0.00000  Uiso   1.00
C186   C     0.10294   0.57644   0.03033   0.00000  Uiso   1.00
C187   C     0.24992   0.46262   0.45812   0.00000  Uiso   1.00
C188   C     0.02233   0.65241   0.25590   0.00000  Uiso   1.00
C189   C     0.31098   0.34758   0.24420   0.00000  Uiso   1.00
C190   C     0.02104   0.50545   0.34120   0.00000  Uiso   1.00
H191   H     0.08169   0.60495   0.05221   0.00000  Uiso   1.00
H192   H     0.17080   0.54204   0.28621   0.00000  Uiso   1.00
H193   H     0.27504   0.44034   0.43334   0.00000  Uiso   1.00
H194   H     0.22850   0.53260   0.11287   0.00000  Uiso   1.00
H195   H     0.09764   0.46514   0.39326   0.00000  Uiso   1.00
H196   H     0.00515   0.60135   0.48916   0.00000  Uiso   1.00
H197   H     0.01359   0.43609   0.49888   0.00000  Uiso   1.00
H198   H     0.17178   0.57983   0.08190   0.00000  Uiso   1.00
H199   H     0.18548   0.46636   0.40354   0.00000  Uiso   1.00
H200   H     0.16254   0.45795   0.21380   0.00000  Uiso   1.00
N201   N     0.14695   0.48550   0.23739   0.00000  Uiso   1.00
N202   N     0.18638   0.51450   0.26260   0.00000  Uiso   1.00
N203   N     0.09967   0.42838   0.10243   0.00000  Uiso   1.00
N204   N     0.24755   0.59607   0.38634   0.00000  Uiso   1.00
N205   N     0.11523   0.35501   0.30689   0.00000  Uiso   1.00
N206   N     0.21804   0.64496   0.19327   0.00000  Uiso   1.00
O207   O     0.29719   0.57964   0.25310   0.00000  Uiso   1.00
O208   O     0.03614   0.42036   0.24690   0.00000  Uiso   1.00
O209   O     0.05822   0.57035   0.24501   0.00000  Uiso   1.00
O210   O     0.27512   0.42965   0.25499   0.00000  Uiso   1.00
O211   O     0.30328   0.50730   0.32247   0.00000  Uiso   1.00
O212   O     0.03005   0.49270   0.17753   0.00000  Uiso   1.00
O213   O     0.06431   0.49801   0.31439   0.00000  Uiso   1.00
O214   O     0.26902   0.50199   0.18561   0.00000  Uiso   1.00
Zn215  Zn    0.27033   0.50621   0.25540   0.00000  Uiso   1.00
Zn216  Zn    0.06300   0.49379   0.24460   0.00000  Uiso   1.00
C217   C     0.34815   0.59807   0.24887   0.00000  Uiso   1.00
C218   C     0.64586   0.49571   0.15863   0.00000  Uiso   1.00
C219   C     0.36583   0.51743   0.39357   0.00000  Uiso   1.00
C220   C     0.63658   0.49224   0.10532   0.00000  Uiso   1.00
C221   C     0.36014   0.57278   0.46763   0.00000  Uiso   1.00
C222   C     0.65446   0.45783   0.02357   0.00000  Uiso   1.00
C223   C     0.33772   0.55516   0.42096   0.00000  Uiso   1.00
C224   C     0.33856   0.46614   0.07299   0.00000  Uiso   1.00
C225   C     0.41391   0.49706   0.41368   0.00000  Uiso   1.00
C226   C     0.58774   0.51327   0.08702   0.00000  Uiso   1.00
C227   C     0.44091   0.51919   0.45710   0.00000  Uiso   1.00
C228   C     0.65185   0.40193   0.25118   0.00000  Uiso   1.00
C229   C     0.57003   0.50581   0.03770   0.00000  Uiso   1.00
C230   C     0.41212   0.55593   0.48538   0.00000  Uiso   1.00
C231   C     0.60284   0.47560   0.00625   0.00000  Uiso   1.00
C232   C     0.49603   0.50610   0.47257   0.00000  Uiso   1.00
C233   C     0.51829   0.52440   0.01986   0.00000  Uiso   1.00
C234   C     0.39095   0.44516   0.08941   0.00000  Uiso   1.00
C235   C     0.62102   0.57787   0.40170   0.00000  Uiso   1.00
C236   C     0.40745   0.33919   0.28432   0.00000  Uiso   1.00
C237   C     0.59250   0.66080   0.21582   0.00000  Uiso   1.00
C238   C     0.48831   0.56081   0.04758   0.00000  Uiso   1.00
C239   C     0.53047   0.47702   0.44155   0.00000  Uiso   1.00
C240   C     0.43627   0.57644   0.03033   0.00000  Uiso   1.00
C241   C     0.58326   0.46262   0.45812   0.00000  Uiso   1.00
C242   C     0.35567   0.65241   0.25590   0.00000  Uiso   1.00
C243   C     0.64431   0.34758   0.24420   0.00000  Uiso   1.00
C244   C     0.35437   0.50545   0.34120   0.00000  Uiso   1.00
H245   H     0.41502   0.60495   0.05221   0.00000  Uiso   1.00
H246   H     0.50413   0.54204   0.28621   0.00000  Uiso   1.00
H247   H     0.60837   0.44034   0.43334   0.00000  Uiso   1.00
H248   H     0.56183   0.53260   0.11287   0.00000  Uiso   1.00
H249   H     0.43097   0.46514   0.39326   0.00000  Uiso   1.00
H250   H     0.33849   0.60135   0.48916   0.00000  Uiso   1.00
H251   H     0.34692   0.43609   0.49888   0.00000  Uiso   1.00
H252   H     0.50512   0.57983   0.08190   0.00000  Uiso   1.00
H253   H     0.51882   0.46636   0.40354   0.00000  Uiso   1.00
H254   H     0.49587   0.45795   0.21380   0.00000  Uiso   1.00
N255   N     0.48029   0.48550   0.23739   0.00000  Uiso   1.00
N256   N     0.51971   0.51450   0.26260   0.00000  Uiso   1.00
N257   N     0.43301   0.42838   0.10243   0.00000  Uiso   1.00
N258   N     0.58088   0.59607   0.38634   0.00000  Uiso   1.00
N259   N     0.44856   0.35501   0.30689   0.00000  Uiso   1.00
N260   N     0.55138   0.64496   0.19327   0.00000  Uiso   1.00
O261   O     0.63052   0.57964   0.25310   0.00000  Uiso   1.00
O262   O     0.36948   0.42036   0.24690   0.00000  Uiso   1.00
O263   O     0.39155   0.57035   0.24501   0.00000  Uiso   1.00
O264   O     0.60845   0.42965   0.25499   0.00000  Uiso   1.00
O265   O     0.63662   0.50730   0.32247   0.00000  Uiso   1.00
O266   O     0.36338   0.49270   0.17753   0.00000  Uiso   1.00
O267   O     0.39764   0.49801   0.31439   0.00000  Uiso   1.00
O268   O     0.60236   0.50199   0.18561   0.00000  Uiso   1.00
Zn269  Zn    0.60366   0.50621   0.25540   0.00000  Uiso   1.00
Zn270  Zn    0.39634   0.49379   0.24460   0.00000  Uiso   1.00
C271   C     0.68148   0.59807   0.24887   0.00000  Uiso   1.00
C272   C     0.97919   0.49571   0.15863   0.00000  Uiso   1.00
C273   C     0.69917   0.51743   0.39357   0.00000  Uiso   1.00
C274   C     0.96991   0.49224   0.10532   0.00000  Uiso   1.00
C275   C     0.69347   0.57278   0.46763   0.00000  Uiso   1.00
C276   C     0.98779   0.45783   0.02357   0.00000  Uiso   1.00
C277   C     0.67106   0.55516   0.42096   0.00000  Uiso   1.00
C278   C     0.67190   0.46614   0.07299   0.00000  Uiso   1.00
C279   C     0.74724   0.49706   0.41368   0.00000  Uiso   1.00
C280   C     0.92107   0.51327   0.08702   0.00000  Uiso   1.00
C281   C     0.77424   0.51919   0.45710   0.00000  Uiso   1.00
C282   C     0.98518   0.40193   0.25118   0.00000  Uiso   1.00
C283   C     0.90336   0.50581   0.03770   0.00000  Uiso   1.00
C284   C     0.74546   0.55593   0.48538   0.00000  Uiso   1.00
C285   C     0.93617   0.47560   0.00625   0.00000  Uiso   1.00
C286   C     0.82936   0.50610   0.47257   0.00000  Uiso   1.00
C287   C     0.85163   0.52440   0.01986   0.00000  Uiso   1.00
C288   C     0.72428   0.44516   0.08941   0.00000  Uiso   1.00
C289   C     0.95435   0.57787   0.40170   0.00000  Uiso   1.00
C290   C     0.74078   0.33919   0.28432   0.00000  Uiso   1.00
C291   C     0.92584   0.66080   0.21582   0.00000  Uiso   1.00
C292   C     0.82164   0.56081   0.04758   0.00000  Uiso   1.00
C293   C     0.86380   0.47702   0.44155   0.00000  Uiso   1.00
C294   C     0.76961   0.57644   0.03033   0.00000  Uiso   1.00
C295   C     0.91659   0.46262   0.45812   0.00000  Uiso   1.00
C296   C     0.68900   0.65241   0.25590   0.00000  Uiso   1.00
C297   C     0.97765   0.34758   0.24420   0.00000  Uiso   1.00
C298   C     0.68771   0.50545   0.34120   0.00000  Uiso   1.00
H299   H     0.74836   0.60495   0.05221   0.00000  Uiso   1.00
H300   H     0.83747   0.54204   0.28621   0.00000  Uiso   1.00
H301   H     0.94170   0.44034   0.43334   0.00000  Uiso   1.00
H302   H     0.89516   0.53260   0.11287   0.00000  Uiso   1.00
H303   H     0.76430   0.46514   0.39326   0.00000  Uiso   1.00
H304   H     0.67182   0.60135   0.48916   0.00000  Uiso   1.00
H305   H     0.68025   0.43609   0.49888   0.00000  Uiso   1.00
H306   H     0.83845   0.57983   0.08190   0.00000  Uiso   1.00
H307   H     0.85215   0.46636   0.40354   0.00000  Uiso   1.00
H308   H     0.82920   0.45795   0.21380   0.00000  Uiso   1.00
N309   N     0.81362   0.48550   0.23739   0.00000  Uiso   1.00
N310   N     0.85305   0.51450   0.26260   0.00000  Uiso   1.00
N311   N     0.76634   0.42838   0.10243   0.00000  Uiso   1.00
N312   N     0.91422   0.59607   0.38634   0.00000  Uiso   1.00
N313   N     0.78190   0.35501   0.30689   0.00000  Uiso   1.00
N314   N     0.88471   0.64496   0.19327   0.00000  Uiso   1.00
O315   O     0.96386   0.57964   0.25310   0.00000  Uiso   1.00
O316   O     0.70281   0.42036   0.24690   0.00000  Uiso   1.00
O317   O     0.72488   0.57035   0.24501   0.00000  Uiso   1.00
O318   O     0.94178   0.42965   0.25499   0.00000  Uiso   1.00
O319   O     0.96995   0.50730   0.32247   0.00000  Uiso   1.00
O320   O     0.69672   0.49270   0.17753   0.00000  Uiso   1.00
O321   O     0.73098   0.49801   0.31439   0.00000  Uiso   1.00
O322   O     0.93569   0.50199   0.18561   0.00000  Uiso   1.00
Zn323  Zn    0.93700   0.50621   0.25540   0.00000  Uiso   1.00
Zn324  Zn    0.72967   0.49379   0.24460   0.00000  Uiso   1.00
C325   C     0.01482   0.93141   0.24887   0.00000  Uiso   1.00
C326   C     0.31253   0.82904   0.15863   0.00000  Uiso   1.00
C327   C     0.03250   0.85076   0.39357   0.00000  Uiso   1.00
C328   C     0.30324   0.82558   0.10532   0.00000  Uiso   1.00
C329   C     0.02681   0.90611   0.46763   0.00000  Uiso   1.00
C330   C     0.32112   0.79116   0.02357   0.00000  Uiso   1.00
C331   C     0.00439   0.88850   0.42096   0.00000  Uiso   1.00
C332   C     0.00523   0.79948   0.07299   0.00000  Uiso   1.00
C333   C     0.08058   0.83039   0.41368   0.00000  Uiso   1.00
C334   C     0.25440   0.84661   0.08702   0.00000  Uiso   1.00
C335   C     0.10758   0.85252   0.45710   0.00000  Uiso   1.00
C336   C     0.31852   0.73526   0.25118   0.00000  Uiso   1.00
C337   C     0.23670   0.83915   0.03770   0.00000  Uiso   1.00
C338   C     0.07879   0.88927   0.48538   0.00000  Uiso   1.00
C339   C     0.26950   0.80894   0.00625   0.00000  Uiso   1.00
C340   C     0.16270   0.83943   0.47257   0.00000  Uiso   1.00
C341   C     0.18496   0.85773   0.01986   0.00000  Uiso   1.00
C342   C     0.05762   0.77849   0.08941   0.00000  Uiso   1.00
C343   C     0.28768   0.91121   0.40170   0.00000  Uiso   1.00
C344   C     0.07412   0.67252   0.28432   0.00000  Uiso   1.00
C345   C     0.25917   0.99414   0.21582   0.00000  Uiso   1.00
C346   C     0.15497   0.89414   0.04758   0.00000  Uiso   1.00
C347   C     0.19714   0.81035   0.44155   0.00000  Uiso   1.00
C348   C     0.10294   0.90977   0.03033   0.00000  Uiso   1.00
C349   C     0.24992   0.79595   0.45812   0.00000  Uiso   1.00
C350   C     0.02233   0.98575   0.25590   0.00000  Uiso   1.00
C351   C     0.31098   0.68092   0.24420   0.00000  Uiso   1.00
C352   C     0.02104   0.83878   0.34120   0.00000  Uiso   1.00
H353   H     0.08169   0.93828   0.05221   0.00000  Uiso   1.00
H354   H     0.17080   0.87538   0.28621   0.00000  Uiso   1.00
H355   H     0.27504   0.77367   0.43334   0.00000  Uiso   1.00
H356   H     0.22850   0.86593   0.11287   0.00000  Uiso   1.00
H357   H     0.09764   0.79847   0.39326   0.00000  Uiso   1.00
H358   H     0.00515   0.93468   0.48916   0.00000  Uiso   1.00
H359   H     0.01359   0.76942   0.49888   0.00000  Uiso   1.00
H360   H     0.17178   0.91316   0.08190   0.00000  Uiso   1.00
H361   H     0.18548   0.79970   0.40354   0.00000  Uiso   1.00
H362   H     0.16254   0.79128   0.21380   0.00000  Uiso   1.00
N363   N     0.14695   0.81883   0.23739   0.00000  Uiso   1.00
N364   N     0.18638   0.84784   0.26260   0.00000  Uiso   1.00
N365   N     0.09967   0.76171   0.10243   0.00000  Uiso   1.00
N366   N     0.24755   0.92941   0.38634   0.00000  Uiso   1.00
N367   N     0.11523   0.68834   0.30689   0.00000  Uiso   1.00
N368   N     0.21804   0.97830   0.19327   0.00000  Uiso   1.00
O369   O     0.29719   0.91298   0.25310   0.00000  Uiso   1.00
O370   O     0.03614   0.75369   0.24690   0.00000  Uiso   1.00
O371   O     0.05822   0.90368   0.24501   0.00000  Uiso   1.00
O372   O     0.27512   0.76298   0.25499   0.00000  Uiso   1.00
O373   O     0.30328   0.84063   0.32247   0.00000  Uiso   1.00
O374   O     0.03005   0.82603   0.17753   0.00000  Uiso   1.00
O375   O     0.06431   0.83134   0.31439   0.00000  Uiso   1.00
O376   O     0.26902   0.83533   0.18561   0.00000  Uiso   1.00
Zn377  Zn    0.27033   0.83954   0.25540   0.00000  Uiso   1.00
Zn378  Zn    0.06300   0.82713   0.24460   0.00000  Uiso   1.00
C379   C     0.34815   0.93141   0.24887   0.00000  Uiso   1.00
C380   C     0.64586   0.82904   0.15863   0.00000  Uiso   1.00
C381   C     0.36583   0.85076   0.39357   0.00000  Uiso   1.00
C382   C     0.63658   0.82558   0.10532   0.00000  Uiso   1.00
C383   C     0.36014   0.90611   0.46763   0.00000  Uiso   1.00
C384   C     0.65446   0.79116   0.02357   0.00000  Uiso   1.00
C385   C     0.33772   0.88850   0.42096   0.00000  Uiso   1.00
C386   C     0.33856   0.79948   0.07299   0.00000  Uiso   1.00
C387   C     0.41391   0.83039   0.41368   0.00000  Uiso   1.00
C388   C     0.58774   0.84661   0.08702   0.00000  Uiso   1.00
C389   C     0.44091   0.85252   0.45710   0.00000  Uiso   1.00
C390   C     0.65185   0.73526   0.25118   0.00000  Uiso   1.00
C391   C     0.57003   0.83915   0.03770   0.00000  Uiso   1.00
C392   C     0.41212   0.88927   0.48538   0.00000  Uiso   1.00
C393   C     0.60284   0.80894   0.00625   0.00000  Uiso   1.00
C394   C     0.49603   0.83943   0.47257   0.00000  Uiso   1.00
C395   C     0.51829   0.85773   0.01986   0.00000  Uiso   1.00
C396   C     0.39095   0.77849   0.08941   0.00000  Uiso   1.00
C397   C     0.62102   0.91121   0.40170   0.00000  Uiso   1.00
C398   C     0.40745   0.67252   0.28432   0.00000  Uiso   1.00
C399   C     0.59250   0.99414   0.21582   0.00000  Uiso   1.00
C400   C     0.48831   0.89414   0.04758   0.00000  Uiso   1.00
C401   C     0.53047   0.81035   0.44155   0.00000  Uiso   1.00
C402   C     0.43627   0.90977   0.03033   0.00000  Uiso   1.00
C403   C     0.58326   0.79595   0.45812   0.00000  Uiso   1.00
C404   C     0.35567   0.98575   0.25590   0.00000  Uiso   1.00
C405   C     0.64431   0.68092   0.24420   0.00000  Uiso   1.00
C406   C     0.35437   0.83878   0.34120   0.00000  Uiso   1.00
H407   H     0.41502   0.93828   0.05221   0.00000  Uiso   1.00
H408   H     0.50413   0.87538   0.28621   0.00000  Uiso   1.00
H409   H     0.60837   0.77367   0.43334   0.00000  Uiso   1.00
H410   H     0.56183   0.86593   0.11287   0.00000  Uiso   1.00
H411   H     0.43097   0.79847   0.39326   0.00000  Uiso   1.00
H412   H     0.33849   0.93468   0.48916   0.00000  Uiso   1.00
H413   H     0.34692   0.76942   0.49888   0.00000  Uiso   1.00
H414   H     0.50512   0.91316   0.08190   0.00000  Uiso   1.00
H415   H     0.51882   0.79970   0.40354   0.00000  Uiso   1.00
H416   H     0.49587   0.79128   0.21380   0.00000  Uiso   1.00
N417   N     0.48029   0.81883   0.23739   0.00000  Uiso   1.00
N418   N     0.51971   0.84784   0.26260   0.00000  Uiso   1.00
N419   N     0.43301   0.76171   0.10243   0.00000  Uiso   1.00
N420   N     0.58088   0.92941   0.38634   0.00000  Uiso   1.00
N421   N     0.44856   0.68834   0.30689   0.00000  Uiso   1.00
N422   N     0.55138   0.97830   0.19327   0.00000  Uiso   1.00
O423   O     0.63052   0.91298   0.25310   0.00000  Uiso   1.00
O424   O     0.36948   0.75369   0.24690   0.00000  Uiso   1.00
O425   O     0.39155   0.90368   0.24501   0.00000  Uiso   1.00
O426   O     0.60845   0.76298   0.25499   0.00000  Uiso   1.00
O427   O     0.63662   0.84063   0.32247   0.00000  Uiso   1.00
O428   O     0.36338   0.82603   0.17753   0.00000  Uiso   1.00
O429   O     0.39764   0.83134   0.31439   0.00000  Uiso   1.00
O430   O     0.60236   0.83533   0.18561   0.00000  Uiso   1.00
Zn431  Zn    0.60366   0.83954   0.25540   0.00000  Uiso   1.00
Zn432  Zn    0.39634   0.82713   0.24460   0.00000  Uiso   1.00
C433   C     0.68148   0.93141   0.24887   0.00000  Uiso   1.00
C434   C     0.97919   0.82904   0.15863   0.00000  Uiso   1.00
C435   C     0.69917   0.85076   0.39357   0.00000  Uiso   1.00
C436   C     0.96991   0.82558   0.10532   0.00000  Uiso   1.00
C437   C     0.69347   0.90611   0.46763   0.00000  Uiso   1.00
C438   C     0.98779   0.79116   0.02357   0.00000  Uiso   1.00
C439   C     0.67106   0.88850   0.42096   0.00000  Uiso   1.00
C440   C     0.67190   0.79948   0.07299   0.00000  Uiso   1.00
C441   C     0.74724   0.83039   0.41368   0.00000  Uiso   1.00
C442   C     0.92107   0.84661   0.08702   0.00000  Uiso   1.00
C443   C     0.77424   0.85252   0.45710   0.00000  Uiso   1.00
C444   C     0.98518   0.73526   0.25118   0.00000  Uiso   1.00
C445   C     0.90336   0.83915   0.03770   0.00000  Uiso   1.00
C446   C     0.74546   0.88927   0.48538   0.00000  Uiso   1.00
C447   C     0.93617   0.80894   0.00625   0.00000  Uiso   1.00
C448   C     0.82936   0.83943   0.47257   0.00000  Uiso   1.00
C449   C     0.85163   0.85773   0.01986   0.00000  Uiso   1.00
C450   C     0.72428   0.77849   0.08941   0.00000  Uiso   1.00
C451   C     0.95435   0.91121   0.40170   0.00000  Uiso   1.00
C452   C     0.74078   0.67252   0.28432   0.00000  Uiso   1.00
C453   C     0.92584   0.99414   0.21582   0.00000  Uiso   1.00
C454   C     0.82164   0.89414   0.04758   0.00000  Uiso   1.00
C455   C     0.86380   0.81035   0.44155   0.00000  Uiso   1.00
C456   C     0.76961   0.90977   0.03033   0.00000  Uiso   1.00
C457   C     0.91659   0.79595   0.45812   0.00000  Uiso   1.00
C458   C     0.68900   0.98575   0.25590   0.00000  Uiso   1.00
C459   C     0.97765   0.68092   0.24420   0.00000  Uiso   1.00
C460   C     0.68771   0.83878   0.34120   0.00000  Uiso   1.00
H461   H     0.74836   0.93828   0.05221   0.00000  Uiso   1.00
H462   H     0.83747   0.87538   0.28621   0.00000  Uiso   1.00
H463   H     0.94170   0.77367   0.43334   0.00000  Uiso   1.00
H464   H     0.89516   0.86593   0.11287   0.00000  Uiso   1.00
H465   H     0.76430   0.79847   0.39326   0.00000  Uiso   1.00
H466   H     0.67182   0.93468   0.48916   0.00000  Uiso   1.00
H467   H     0.68025   0.76942   0.49888   0.00000  Uiso   1.00
H468   H     0.83845   0.91316   0.08190   0.00000  Uiso   1.00
H469   H     0.85215   0.79970   0.40354   0.00000  Uiso   1.00
H470   H     0.82920   0.79128   0.21380   0.00000  Uiso   1.00
N471   N     0.81362   0.81883   0.23739   0.00000  Uiso   1.00
N472   N     0.85305   0.84784   0.26260   0.00000  Uiso   1.00
N473   N     0.76634   0.76171   0.10243   0.00000  Uiso   1.00
N474   N     0.91422   0.92941   0.38634   0.00000  Uiso   1.00
N475   N     0.78190   0.68834   0.30689   0.00000  Uiso   1.00
N476   N     0.88471   0.97830   0.19327   0.00000  Uiso   1.00
O477   O     0.96386   0.91298   0.25310   0.00000  Uiso   1.00
O478   O     0.70281   0.75369   0.24690   0.00000  Uiso   1.00
O479   O     0.72488   0.90368   0.24501   0.00000  Uiso   1.00
O480   O     0.94178   0.76298   0.25499   0.00000  Uiso   1.00
O481   O     0.96995   0.84063   0.32247   0.00000  Uiso   1.00
O482   O     0.69672   0.82603   0.17753   0.00000  Uiso   1.00
O483   O     0.73098   0.83134   0.31439   0.00000  Uiso   1.00
O484   O     0.93569   0.83533   0.18561   0.00000  Uiso   1.00
Zn485  Zn    0.93700   0.83954   0.25540   0.00000  Uiso   1.00
Zn486  Zn    0.72967   0.82713   0.24460   0.00000  Uiso   1.00
C487   C     0.01482   0.26474   0.74887   0.00000  Uiso   1.00
C488   C     0.31253   0.16238   0.65863   0.00000  Uiso   1.00
C489   C     0.03250   0.18410   0.89357   0.00000  Uiso   1.00
C490   C     0.30324   0.15891   0.60532   0.00000  Uiso   1.00
C491   C     0.02681   0.23945   0.96763   0.00000  Uiso   1.00
C492   C     0.32112   0.12450   0.52357   0.00000  Uiso   1.00
C493   C     0.00439   0.22183   0.92096   0.00000  Uiso   1.00
C494   C     0.00523   0.13281   0.57299   0.00000  Uiso   1.00
C495   C     0.08058   0.16373   0.91368   0.00000  Uiso   1.00
C496   C     0.25440   0.17994   0.58702   0.00000  Uiso   1.00
C497   C     0.10758   0.18585   0.95710   0.00000  Uiso   1.00
C498   C     0.31852   0.06859   0.75118   0.00000  Uiso   1.00
C499   C     0.23670   0.17248   0.53770   0.00000  Uiso   1.00
C500   C     0.07879   0.22260   0.98538   0.00000  Uiso   1.00
C501   C     0.26950   0.14227   0.50625   0.00000  Uiso   1.00
C502   C     0.16270   0.17276   0.97257   0.00000  Uiso   1.00
C503   C     0.18496   0.19107   0.51986   0.00000  Uiso   1.00
C504   C     0.05762   0.11182   0.58941   0.00000  Uiso   1.00
C505   C     0.28768   0.24454   0.90170   0.00000  Uiso   1.00
C506   C     0.07412   0.00585   0.78432   0.00000  Uiso   1.00
C507   C     0.25917   0.32747   0.71582   0.00000  Uiso   1.00
C508   C     0.15497   0.22748   0.54758   0.00000  Uiso   1.00
C509   C     0.19714   0.14368   0.94155   0.00000  Uiso   1.00
C510   C     0.10294   0.24310   0.53033   0.00000  Uiso   1.00
C511   C     0.24992   0.12928   0.95812   0.00000  Uiso   1.00
C512   C     0.02233   0.31908   0.75590   0.00000  Uiso   1.00
C513   C     0.31098   0.01425   0.74420   0.00000  Uiso   1.00
C514   C     0.02104   0.17212   0.84120   0.00000  Uiso   1.00
H515   H     0.08169   0.27162   0.55221   0.00000  Uiso   1.00
H516   H     0.17080   0.20871   0.78621   0.00000  Uiso   1.00
H517   H     0.27504   0.10701   0.93334   0.00000  Uiso   1.00
H518   H     0.22850   0.19927   0.61287   0.00000  Uiso   1.00
H519   H     0.09764   0.13181   0.89326   0.00000  Uiso   1.00
H520   H     0.00515   0.26801   0.98916   0.00000  Uiso   1.00
H521   H     0.01359   0.10276   0.99888   0.00000  Uiso   1.00
H522   H     0.17178   0.24650   0.58190   0.00000  Uiso   1.00
H523   H     0.18548   0.13303   0.90354   0.00000  Uiso   1.00
H524   H     0.16254   0.12461   0.71380   0.00000  Uiso   1.00
N525   N     0.14695   0.15216   0.73739   0.00000  Uiso   1.00
N526   N     0.18638   0.18117   0.76260   0.00000  Uiso   1.00
N527   N     0.09967   0.09504   0.60243   0.00000  Uiso   1.00
N528   N     0.24755   0.26274   0.88634   0.00000  Uiso   1.00
N529   N     0.11523   0.02168   0.80689   0.00000  Uiso   1.00
N530   N     0.21804   0.31163   0.69327   0.00000  Uiso   1.00
O531   O     0.29719   0.24631   0.75310   0.00000  Uiso   1.00
O532   O     0.03614   0.08702   0.74690   0.00000  Uiso   1.00
O533   O     0.05822   0.23702   0.74501   0.00000  Uiso   1.00
O534   O     0.27512   0.09632   0.75499   0.00000  Uiso   1.00
O535   O     0.30328   0.17397   0.82247   0.00000  Uiso   1.00
O536   O     0.03005   0.15937   0.67753   0.00000  Uiso   1.00
O537   O     0.06431   0.16467   0.81439   0.00000  Uiso   1.00
O538   O     0.26902   0.16866   0.68561   0.00000  Uiso   1.00
Zn539  Zn    0.27033   0.17287   0.75540   0.00000  Uiso   1.00
Zn540  Zn    0.06300   0.16046   0.74460   0.00000  Uiso   1.00
C541   C     0.34815   0.26474   0.74887   0.00000  Uiso   1.00
C542   C     0.64586   0.16238   0.65863   0.00000  Uiso   1.00
C543   C     0.36583   0.18410   0.89357   0.00000  Uiso   1.00
C544   C     0.63658   0.15891   0.60532   0.00000  Uiso   1.00
C545   C     0.36014   0.23945   0.96763   0.00000  Uiso   1.00
C546   C     0.65446   0.12450   0.52357   0.00000  Uiso   1.00
C547   C     0.33772   0.22183   0.92096   0.00000  Uiso   1.00
C548   C     0.33856   0.13281   0.57299   0.00000  Uiso   1.00
C549   C     0.41391   0.16373   0.91368   0.00000  Uiso   1.00
C550   C     0.58774   0.17994   0.58702   0.00000  Uiso   1.00
C551   C     0.44091   0.18585   0.95710   0.00000  Uiso   1.00
C552   C     0.65185   0.06859   0.75118   0.00000  Uiso   1.00
C553   C     0.57003   0.17248   0.53770   0.00000  Uiso   1.00
C554   C     0.41212   0.22260   0.98538   0.00000  Uiso   1.00
C555   C     0.60284   0.14227   0.50625   0.00000  Uiso   1.00
C556   C     0.49603   0.17276   0.97257   0.00000  Uiso   1.00
C557   C     0.51829   0.19107   0.51986   0.00000  Uiso   1.00
C558   C     0.39095   0.11182   0.58941   0.00000  Uiso   1.00
C559   C     0.62102   0.24454   0.90170   0.00000  Uiso   1.00
C560   C     0.40745   0.00585   0.78432   0.00000  Uiso   1.00
C561   C     0.59250   0.32747   0.71582   0.00000  Uiso   1.00
C562   C     0.48831   0.22748   0.54758   0.00000  Uiso   1.00
C563   C     0.53047   0.14368   0.94155   0.00000  Uiso   1.00
C564   C     0.43627   0.24310   0.53033   0.00000  Uiso   1.00
C565   C     0.58326   0.12928   0.95812   0.00000  Uiso   1.00
C566   C     0.35567   0.31908   0.75590   0.00000  Uiso   1.00
C567   C     0.64431   0.01425   0.74420   0.00000  Uiso   1.00
C568   C     0.35437   0.17212   0.84120   0.00000  Uiso   1.00
H569   H     0.41502   0.27162   0.55221   0.00000  Uiso   1.00
H570   H     0.50413   0.20871   0.78621   0.00000  Uiso   1.00
H571   H     0.60837   0.10701   0.93334   0.00000  Uiso   1.00
H572   H     0.56183   0.19927   0.61287   0.00000  Uiso   1.00
H573   H     0.43097   0.13181   0.89326   0.00000  Uiso   1.00
H574   H     0.33849   0.26801   0.98916   0.00000  Uiso   1.00
H575   H     0.34692   0.10276   0.99888   0.00000  Uiso   1.00
H576   H     0.50512   0.24650   0.58190   0.00000  Uiso   1.00
H577   H     0.51882   0.13303   0.90354   0.00000  Uiso   1.00
H578   H     0.49587   0.12461   0.71380   0.00000  Uiso   1.00
N579   N     0.48029   0.15216   0.73739   0.00000  Uiso   1.00
N580   N     0.51971   0.18117   0.76260   0.00000  Uiso   1.00
N581   N     0.43301   0.09504   0.60243   0.00000  Uiso   1.00
N582   N     0.58088   0.26274   0.88634   0.00000  Uiso   1.00
N583   N     0.44856   0.02168   0.80689   0.00000  Uiso   1.00
N584   N     0.55138   0.31163   0.69327   0.00000  Uiso   1.00
O585   O     0.63052   0.24631   0.75310   0.00000  Uiso   1.00
O586   O     0.36948   0.08702   0.74690   0.00000  Uiso   1.00
O587   O     0.39155   0.23702   0.74501   0.00000  Uiso   1.00
O588   O     0.60845   0.09632   0.75499   0.00000  Uiso   1.00
O589   O     0.63662   0.17397   0.82247   0.00000  Uiso   1.00
O590   O     0.36338   0.15937   0.67753   0.00000  Uiso   1.00
O591   O     0.39764   0.16467   0.81439   0.00000  Uiso   1.00
O592   O     0.60236   0.16866   0.68561   0.00000  Uiso   1.00
Zn593  Zn    0.60366   0.17287   0.75540   0.00000  Uiso   1.00
Zn594  Zn    0.39634   0.16046   0.74460   0.00000  Uiso   1.00
C595   C     0.68148   0.26474   0.74887   0.00000  Uiso   1.00
C596   C     0.97919   0.16238   0.65863   0.00000  Uiso   1.00
C597   C     0.69917   0.18410   0.89357   0.00000  Uiso   1.00
C598   C     0.96991   0.15891   0.60532   0.00000  Uiso   1.00
C599   C     0.69347   0.23945   0.96763   0.00000  Uiso   1.00
C600   C     0.98779   0.12450   0.52357   0.00000  Uiso   1.00
C601   C     0.67106   0.22183   0.92096   0.00000  Uiso   1.00
C602   C     0.67190   0.13281   0.57299   0.00000  Uiso   1.00
C603   C     0.74724   0.16373   0.91368   0.00000  Uiso   1.00
C604   C     0.92107   0.17994   0.58702   0.00000  Uiso   1.00
C605   C     0.77424   0.18585   0.95710   0.00000  Uiso   1.00
C606   C     0.98518   0.06859   0.75118   0.00000  Uiso   1.00
C607   C     0.90336   0.17248   0.53770   0.00000  Uiso   1.00
C608   C     0.74546   0.22260   0.98538   0.00000  Uiso   1.00
C609   C     0.93617   0.14227   0.50625   0.00000  Uiso   1.00
C610   C     0.82936   0.17276   0.97257   0.00000  Uiso   1.00
C611   C     0.85163   0.19107   0.51986   0.00000  Uiso   1.00
C612   C     0.72428   0.11182   0.58941   0.00000  Uiso   1.00
C613   C     0.95435   0.24454   0.90170   0.00000  Uiso   1.00
C614   C     0.74078   0.00585   0.78432   0.00000  Uiso   1.00
C615   C     0.92584   0.32747   0.71582   0.00000  Uiso   1.00
C616   C     0.82164   0.22748   0.54758   0.00000  Uiso   1.00
C617   C     0.86380   0.14368   0.94155   0.00000  Uiso   1.00
C618   C     0.76961   0.24310   0.53033   0.00000  Uiso   1.00
C619   C     0.91659   0.12928   0.95812   0.00000  Uiso   1.00
C620   C     0.68900   0.31908   0.75590   0.00000  Uiso   1.00
C621   C     0.97765   0.01425   0.74420   0.00000  Uiso   1.00
C622   C     0.68771   0.17212   0.84120   0.00000  Uiso   1.00
H623   H     0.74836   0.27162   0.55221   0.00000  Uiso   1.00
H624   H     0.83747   0.20871   0.78621   0.00000  Uiso   1.00
H625   H     0.94170   0.10701   0.93334   0.00000  Uiso   1.00
H626   H     0.89516   0.19927   0.61287   0.00000  Uiso   1.00
H627   H     0.76430   0.13181   0.89326   0.00000  Uiso   1.00
H628   H     0.67182   0.26801   0.98916   0.00000  Uiso   1.00
H629   H     0.68025   0.10276   0.99888   0.00000  Uiso   1.00
H630   H     0.83845   0.24650   0.58190   0.00000  Uiso   1.00
H631   H     0.85215   0.13303   0.90354   0.00000  Uiso   1.00
H632   H     0.82920   0.12461   0.71380   0.00000  Uiso   1.00
N633   N     0.81362   0.15216   0.73739   0.00000  Uiso   1.00
N634   N     0.85305   0.18117   0.76260   0.00000  Uiso   1.00
N635   N     0.76634   0.09504   0.60243   0.00000  Uiso   1.00
N636   N     0.91422   0.26274   0.88634   0.00000  Uiso   1.00
N637   N     0.78190   0.02168   0.80689   0.00000  Uiso   1.00
N638   N     0.88471   0.31163   0.69327   0.00000  Uiso   1.00
O639   O     0.96386   0.24631   0.75310   0.00000  Uiso   1.00
O640   O     0.70281   0.08702   0.74690   0.00000  Uiso   1.00
O641   O     0.72488   0.23702   0.74501   0.00000  Uiso   1.00
O642   O     0.94178   0.09632   0.75499   0.00000  Uiso   1.00
O643   O     0.96995   0.17397   0.82247   0.00000  Uiso   1.00
O644   O     0.69672   0.15937   0.67753   0.00000  Uiso   1.00
O645   O     0.73098   0.16467   0.81439   0.00000  Uiso   1.00
O646   O     0.93569   0.16866   0.68561   0.00000  Uiso   1.00
Zn647  Zn    0.93700   0.17287   0.75540   0.00000  Uiso   1.00
Zn648  Zn    0.72967   0.16046   0.74460   0.00000  Uiso   1.00
C649   C     0.01482   0.59807   0.74887   0.00000  Uiso   1.00
C650   C     0.31253   0.49571   0.65863   0.00000  Uiso   1.00
C651   C     0.03250   0.51743   0.89357   0.00000  Uiso   1.00
C652   C     0.30324   0.49224   0.60532   0.00000  Uiso   1.00
C653   C     0.02681   0.57278   0.96763   0.00000  Uiso   1.00
C654   C     0.32112   0.45783   0.52357   0.00000  Uiso   1.00
C655   C     0.00439   0.55516   0.92096   0.00000  Uiso   1.00
C656   C     0.00523   0.46614   0.57299   0.00000  Uiso   1.00
C657   C     0.08058   0.49706   0.91368   0.00000  Uiso   1.00
C658   C     0.25440   0.51327   0.58702   0.00000  Uiso   1.00
C659   C     0.10758   0.51919   0.95710   0.00000  Uiso   1.00
C660   C     0.31852   0.40193   0.75118   0.00000  Uiso   1.00
C661   C     0.23670   0.50581   0.53770   0.00000  Uiso   1.00
C662   C     0.07879   0.55593   0.98538   0.00000  Uiso   1.00
C663   C     0.26950   0.47560   0.50625   0.00000  Uiso   1.00
C664   C     0.16270   0.50610   0.97257   0.00000  Uiso   1.00
C665   C     0.18496   0.52440   0.51986   0.00000  Uiso   1.00
C666   C     0.05762   0.44516   0.58941   0.00000  Uiso   1.00
C667   C     0.28768   0.57787   0.90170   0.00000  Uiso   1.00
C668   C     0.07412   0.33919   0.78432   0.00000  Uiso   1.00
C669   C     0.25917   0.66080   0.71582   0.00000  Uiso   1.00
C670   C     0.15497   0.56081   0.54758   0.00000  Uiso   1.00
C671   C     0.19714   0.47702   0.94155   0.00000  Uiso   1.00
C672   C     0.10294   0.57644   0.53033   0.00000  Uiso   1.00
C673   C     0.24992   0.46262   0.95812   0.00000  Uiso   1.00
C674   C     0.02233   0.65241   0.75590   0.00000  Uiso   1.00
C675   C     0.31098   0.34758   0.74420   0.00000  Uiso   1.00
C676   C     0.02104   0.50545   0.84120   0.00000  Uiso   1.00
H677   H     0.08169   0.60495   0.55221   0.00000  Uiso   1.00
H678   H     0.17080   0.54204   0.78621   0.00000  Uiso   1.00
H679   H     0.27504   0.44034   0.93334   0.00000  Uiso   1.00
H680   H     0.22850   0.53260   0.61287   0.00000  Uiso   1.00
H681   H     0.09764   0.46514   0.89326   0.00000  Uiso   1.00
H682   H     0.00515   0.60135   0.98916   0.00000  Uiso   1.00
H683   H     0.01359   0.43609   0.99888   0.00000  Uiso   1.00
H684   H     0.17178   0.57983   0.58190   0.00000  Uiso   1.00
H685   H     0.18548   0.46636   0.90354   0.00000  Uiso   1.00
H686   H     0.16254   0.45795   0.71380   0.00000  Uiso   1.00
N687   N     0.14695   0.48550   0.73739   0.00000  Uiso   1.00
N688   N     0.18638   0.51450   0.76260   0.00000  Uiso   1.00
N689   N     0.09967   0.42838   0.60243   0.00000  Uiso   1.00
N690   N     0.24755   0.59607   0.88634   0.00000  Uiso   1.00
N691   N     0.11523   0.35501   0.80689   0.00000  Uiso   1.00
N692   N     0.21804   0.64496   0.69327   0.00000  Uiso   1.00
O693   O     0.29719   0.57964   0.75310   0.00000  Uiso   1.00
O694   O     0.03614   0.42036   0.74690   0.00000  Uiso   1.00
O695   O     0.05822   0.57035   0.74501   0.00000  Uiso   1.00
O696   O     0.27512   0.42965   0.75499   0.00000  Uiso   1.00
O697   O     0.30328   0.50730   0.82247   0.00000  Uiso   1.00
O698   O     0.03005   0.49270   0.67753   0.00000  Uiso   1.00
O699   O     0.06431   0.49801   0.81439   0.00000  Uiso   1.00
O700   O     0.26902   0.50199   0.68561   0.00000  Uiso   1.00
Zn701  Zn    0.27033   0.50621   0.75540   0.00000  Uiso   1.00
Zn702  Zn    0.06300   0.49379   0.74460   0.00000  Uiso   1.00
C703   C     0.34815   0.59807   0.74887   0.00000  Uiso   1.00
C704   C     0.64586   0.49571   0.65863   0.00000  Uiso   1.00
C705   C     0.36583   0.51743   0.89357   0.00000  Uiso   1.00
C706   C     0.63658   0.49224   0.60532   0.00000  Uiso   1.00
C707   C     0.36014   0.57278   0.96763   0.00000  Uiso   1.00
C708   C     0.65446   0.45783   0.52357   0.00000  Uiso   1.00
C709   C     0.33772   0.55516   0.92096   0.00000  Uiso   1.00
C710   C     0.33856   0.46614   0.57299   0.00000  Uiso   1.00
C711   C     0.41391   0.49706   0.91368   0.00000  Uiso   1.00
C712   C     0.58774   0.51327   0.58702   0.00000  Uiso   1.00
C713   C     0.44091   0.51919   0.95710   0.00000  Uiso   1.00
C714   C     0.65185   0.40193   0.75118   0.00000  Uiso   1.00
C715   C     0.57003   0.50581   0.53770   0.00000  Uiso   1.00
C716   C     0.41212   0.55593   0.98538   0.00000  Uiso   1.00
C717   C     0.60284   0.47560   0.50625   0.00000  Uiso   1.00
C718   C     0.49603   0.50610   0.97257   0.00000  Uiso   1.00
C719   C     0.51829   0.52440   0.51986   0.00000  Uiso   1.00
C720   C     0.39095   0.44516   0.58941   0.00000  Uiso   1.00
C721   C     0.62102   0.57787   0.90170   0.00000  Uiso   1.00
C722   C     0.40745   0.33919   0.78432   0.00000  Uiso   1.00
C723   C     0.59250   0.66080   0.71582   0.00000  Uiso   1.00
C724   C     0.48831   0.56081   0.54758   0.00000  Uiso   1.00
C725   C     0.53047   0.47702   0.94155   0.00000  Uiso   1.00
C726   C     0.43627   0.57644   0.53033   0.00000  Uiso   1.00
C727   C     0.58326   0.46262   0.95812   0.00000  Uiso   1.00
C728   C     0.35567   0.65241   0.75590   0.00000  Uiso   1.00
C729   C     0.64431   0.34758   0.74420   0.00000  Uiso   1.00
C730   C     0.35437   0.50545   0.84120   0.00000  Uiso   1.00
H731   H     0.41502   0.60495   0.55221   0.00000  Uiso   1.00
H732   H     0.50413   0.54204   0.78621   0.00000  Uiso   1.00
H733   H     0.60837   0.44034   0.93334   0.00000  Uiso   1.00
H734   H     0.56183   0.53260   0.61287   0.00000  Uiso   1.00
H735   H     0.43097   0.46514   0.89326   0.00000  Uiso   1.00
H736   H     0.33849   0.60135   0.98916   0.00000  Uiso   1.00
H737   H     0.34692   0.43609   0.99888   0.00000  Uiso   1.00
H738   H     0.50512   0.57983   0.58190   0.00000  Uiso   1.00
H739   H     0.51882   0.46636   0.90354   0.00000  Uiso   1.00
H740   H     0.49587   0.45795   0.71380   0.00000  Uiso   1.00
N741   N     0.48029   0.48550   0.73739   0.00000  Uiso   1.00
N742   N     0.51971   0.51450   0.76260   0.00000  Uiso   1.00
N743   N     0.43301   0.42838   0.60243   0.00000  Uiso   1.00
N744   N     0.58088   0.59607   0.88634   0.00000  Uiso   1.00
N745   N     0.44856   0.35501   0.80689   0.00000  Uiso   1.00
N746   N     0.55138   0.64496   0.69327   0.00000  Uiso   1.00
O747   O     0.63052   0.57964   0.75310   0.00000  Uiso   1.00
O748   O     0.36948   0.42036   0.74690   0.00000  Uiso   1.00
O749   O     0.39155   0.57035   0.74501   0.00000  Uiso   1.00
O750   O     0.60845   0.42965   0.75499   0.00000  Uiso   1.00
O751   O     0.63662   0.50730   0.82247   0.00000  Uiso   1.00
O752   O     0.36338   0.49270   0.67753   0.00000  Uiso   1.00
O753   O     0.39764   0.49801   0.81439   0.00000  Uiso   1.00
O754   O     0.60236   0.50199   0.68561   0.00000  Uiso   1.00
Zn755  Zn    0.60366   0.50621   0.75540   0.00000  Uiso   1.00
Zn756  Zn    0.39634   0.49379   0.74460   0.00000  Uiso   1.00
C757   C     0.68148   0.59807   0.74887   0.00000  Uiso   1.00
C758   C     0.97919   0.49571   0.65863   0.00000  Uiso   1.00
C759   C     0.69917   0.51743   0.89357   0.00000  Uiso   1.00
C760   C     0.96991   0.49224   0.60532   0.00000  Uiso   1.00
C761   C     0.69347   0.57278   0.96763   0.00000  Uiso   1.00
C762   C     0.98779   0.45783   0.52357   0.00000  Uiso   1.00
C763   C     0.67106   0.55516   0.92096   0.00000  Uiso   1.00
C764   C     0.67190   0.46614   0.57299   0.00000  Uiso   1.00
C765   C     0.74724   0.49706   0.91368   0.00000  Uiso   1.00
C766   C     0.92107   0.51327   0.58702   0.00000  Uiso   1.00
C767   C     0.77424   0.51919   0.95710   0.00000  Uiso   1.00
C768   C     0.98518   0.40193   0.75118   0.00000  Uiso   1.00
C769   C     0.90336   0.50581   0.53770   0.00000  Uiso   1.00
C770   C     0.74546   0.55593   0.98538   0.00000  Uiso   1.00
C771   C     0.93617   0.47560   0.50625   0.00000  Uiso   1.00
C772   C     0.82936   0.50610   0.97257   0.00000  Uiso   1.00
C773   C     0.85163   0.52440   0.51986   0.00000  Uiso   1.00
C774   C     0.72428   0.44516   0.58941   0.00000  Uiso   1.00
C775   C     0.95435   0.57787   0.90170   0.00000  Uiso   1.00
C776   C     0.74078   0.33919   0.78432   0.00000  Uiso   1.00
C777   C     0.92584   0.66080   0.71582   0.00000  Uiso   1.00
C778   C     0.82164   0.56081   0.54758   0.00000  Uiso   1.00
C779   C     0.86380   0.47702   0.94155   0.00000  Uiso   1.00
C780   C     0.76961   0.57644   0.53033   0.00000  Uiso   1.00
C781   C     0.91659   0.46262   0.95812   0.00000  Uiso   1.00
C782   C     0.68900   0.65241   0.75590   0.00000  Uiso   1.00
C783   C     0.97765   0.34758   0.74420   0.00000  Uiso   1.00
C784   C     0.68771   0.50545   0.84120   0.00000  Uiso   1.00
H785   H     0.74836   0.60495   0.55221   0.00000  Uiso   1.00
H786   H     0.83747   0.54204   0.78621   0.00000  Uiso   1.00
H787   H     0.94170   0.44034   0.93334   0.00000  Uiso   1.00
H788   H     0.89516   0.53260   0.61287   0.00000  Uiso   1.00
H789   H     0.76430   0.46514   0.89326   0.00000  Uiso   1.00
H790   H     0.67182   0.60135   0.98916   0.00000  Uiso   1.00
H791   H     0.68025   0.43609   0.99888   0.00000  Uiso   1.00
H792   H     0.83845   0.57983   0.58190   0.00000  Uiso   1.00
H793   H     0.85215   0.46636   0.90354   0.00000  Uiso   1.00
H794   H     0.82920   0.45795   0.71380   0.00000  Uiso   1.00
N795   N     0.81362   0.48550   0.73739   0.00000  Uiso   1.00
N796   N     0.85305   0.51450   0.76260   0.00000  Uiso   1.00
N797   N     0.76634   0.42838   0.60243   0.00000  Uiso   1.00
N798   N     0.91422   0.59607   0.88634   0.00000  Uiso   1.00
N799   N     0.78190   0.35501   0.80689   0.00000  Uiso   1.00
N800   N     0.88471   0.64496   0.69327   0.00000  Uiso   1.00
O801   O     0.96386   0.57964   0.75310   0.00000  Uiso   1.00
O802   O     0.70281   0.42036   0.74690   0.00000  Uiso   1.00
O803   O     0.72488   0.57035   0.74501   0.00000  Uiso   1.00
O804   O     0.94178   0.42965   0.75499   0.00000  Uiso   1.00
O805   O     0.96995   0.50730   0.82247   0.00000  Uiso   1.00
O806   O     0.69672   0.49270   0.67753   0.00000  Uiso   1.00
O807   O     0.73098   0.49801   0.81439   0.00000  Uiso   1.00
O808   O     0.93569   0.50199   0.68561   0.00000  Uiso   1.00
Zn809  Zn    0.93700   0.50621   0.75540   0.00000  Uiso   1.00
Zn810  Zn    0.72967   0.49379   0.74460   0.00000  Uiso   1.00
C811   C     0.01482   0.93141   0.74887   0.00000  Uiso   1.00
C812   C     0.31253   0.82904   0.65863   0.00000  Uiso   1.00
C813   C     0.03250   0.85076   0.89357   0.00000  Uiso   1.00
C814   C     0.30324   0.82558   0.60532   0.00000  Uiso   1.00
C815   C     0.02681   0.90611   0.96763   0.00000  Uiso   1.00
C816   C     0.32112   0.79116   0.52357   0.00000  Uiso   1.00
C817   C     0.00439   0.88850   0.92096   0.00000  Uiso   1.00
C818   C     0.00523   0.79948   0.57299   0.00000  Uiso   1.00
C819   C     0.08058   0.83039   0.91368   0.00000  Uiso   1.00
C820   C     0.25440   0.84661   0.58702   0.00000  Uiso   1.00
C821   C     0.10758   0.85252   0.95710   0.00000  Uiso   1.00
C822   C     0.31852   0.73526   0.75118   0.00000  Uiso   1.00
C823   C     0.23670   0.83915   0.53770   0.00000  Uiso   1.00
C824   C     0.07879   0.88927   0.98538   0.00000  Uiso   1.00
C825   C     0.26950   0.80894   0.50625   0.00000  Uiso   1.00
C826   C     0.16270   0.83943   0.97257   0.00000  Uiso   1.00
C827   C     0.18496   0.85773   0.51986   0.00000  Uiso   1.00
C828   C     0.05762   0.77849   0.58941   0.00000  Uiso   1.00
C829   C     0.28768   0.91121   0.90170   0.00000  Uiso   1.00
C830   C     0.07412   0.67252   0.78432   0.00000  Uiso   1.00
C831   C     0.25917   0.99414   0.71582   0.00000  Uiso   1.00
C832   C     0.15497   0.89414   0.54758   0.00000  Uiso   1.00
C833   C     0.19714   0.81035   0.94155   0.00000  Uiso   1.00
C834   C     0.10294   0.90977   0.53033   0.00000  Uiso   1.00
C835   C     0.24992   0.79595   0.95812   0.00000  Uiso   1.00
C836   C     0.02233   0.98575   0.75590   0.00000  Uiso   1.00
C837   C     0.31098   0.68092   0.74420   0.00000  Uiso   1.00
C838   C     0.02104   0.83878   0.84120   0.00000  Uiso   1.00
H839   H     0.08169   0.93828   0.55221   0.00000  Uiso   1.00
H840   H     0.17080   0.87538   0.78621   0.00000  Uiso   1.00
H841   H     0.27504   0.77367   0.93334   0.00000  Uiso   1.00
H842   H     0.22850   0.86593   0.61287   0.00000  Uiso   1.00
H843   H     0.09764   0.79847   0.89326   0.00000  Uiso   1.00
H844   H     0.00515   0.93468   0.98916   0.00000  Uiso   1.00
H845   H     0.01359   0.76942   0.99888   0.00000  Uiso   1.00
H846   H     0.17178   0.91316   0.58190   0.00000  Uiso   1.00
H847   H     0.18548   0.79970   0.90354   0.00000  Uiso   1.00
H848   H     0.16254   0.79128   0.71380   0.00000  Uiso   1.00
N849   N     0.14695   0.81883   0.73739   0.00000  Uiso   1.00
N850   N     0.18638   0.84784   0.76260   0.00000  Uiso   1.00
N851   N     0.09967   0.76171   0.60243   0.00000  Uiso   1.00
N852   N     0.24755   0.92941   0.88634   0.00000  Uiso   1.00
N853   N     0.11523   0.68834   0.80689   0.00000  Uiso   1.00
N854   N     0.21804   0.97830   0.69327   0.00000  Uiso   1.00
O855   O     0.29719   0.91298   0.75310   0.00000  Uiso   1.00
O856   O     0.03614   0.75369   0.74690   0.00000  Uiso   1.00
O857   O     0.05822   0.90368   0.74501   0.00000  Uiso   1.00
O858   O     0.27512   0.76298   0.75499   0.00000  Uiso   1.00
O859   O     0.30328   0.84063   0.82247   0.00000  Uiso   1.00
O860   O     0.03005   0.82603   0.67753   0.00000  Uiso   1.00
O861   O     0.06431   0.83134   0.81439   0.00000  Uiso   1.00
O862   O     0.26902   0.83533   0.68561   0.00000  Uiso   1.00
Zn863  Zn    0.27033   0.83954   0.75540   0.00000  Uiso   1.00
Zn864  Zn    0.06300   0.82713   0.74460   0.00000  Uiso   1.00
C865   C     0.34815   0.93141   0.74887   0.00000  Uiso   1.00
C866   C     0.64586   0.82904   0.65863   0.00000  Uiso   1.00
C867   C     0.36583   0.85076   0.89357   0.00000  Uiso   1.00
C868   C     0.63658   0.82558   0.60532   0.00000  Uiso   1.00
C869   C     0.36014   0.90611   0.96763   0.00000  Uiso   1.00
C870   C     0.65446   0.79116   0.52357   0.00000  Uiso   1.00
C871   C     0.33772   0.88850   0.92096   0.00000  Uiso   1.00
C872   C     0.33856   0.79948   0.57299   0.00000  Uiso   1.00
C873   C     0.41391   0.83039   0.91368   0.00000  Uiso   1.00
C874   C     0.58774   0.84661   0.58702   0.00000  Uiso   1.00
C875   C     0.44091   0.85252   0.95710   0.00000  Uiso   1.00
C876   C     0.65185   0.73526   0.75118   0.00000  Uiso   1.00
C877   C     0.57003   0.83915   0.53770   0.00000  Uiso   1.00
C878   C     0.41212   0.88927   0.98538   0.00000  Uiso   1.00
C879   C     0.60284   0.80894   0.50625   0.00000  Uiso   1.00
C880   C     0.49603   0.83943   0.97257   0.00000  Uiso   1.00
C881   C     0.51829   0.85773   0.51986   0.00000  Uiso   1.00
C882   C     0.39095   0.77849   0.58941   0.00000  Uiso   1.00
C883   C     0.62102   0.91121   0.90170   0.00000  Uiso   1.00
C884   C     0.40745   0.67252   0.78432   0.00000  Uiso   1.00
C885   C     0.59250   0.99414   0.71582   0.00000  Uiso   1.00
C886   C     0.48831   0.89414   0.54758   0.00000  Uiso   1.00
C887   C     0.53047   0.81035   0.94155   0.00000  Uiso   1.00
C888   C     0.43627   0.90977   0.53033   0.00000  Uiso   1.00
C889   C     0.58326   0.79595   0.95812   0.00000  Uiso   1.00
C890   C     0.35567   0.98575   0.75590   0.00000  Uiso   1.00
C891   C     0.64431   0.68092   0.74420   0.00000  Uiso   1.00
C892   C     0.35437   0.83878   0.84120   0.00000  Uiso   1.00
H893   H     0.41502   0.93828   0.55221   0.00000  Uiso   1.00
H894   H     0.50413   0.87538   0.78621   0.00000  Uiso   1.00
H895   H     0.60837   0.77367   0.93334   0.00000  Uiso   1.00
H896   H     0.56183   0.86593   0.61287   0.00000  Uiso   1.00
H897   H     0.43097   0.79847   0.89326   0.00000  Uiso   1.00
H898   H     0.33849   0.93468   0.98916   0.00000  Uiso   1.00
H899   H     0.34692   0.76942   0.99888   0.00000  Uiso   1.00
H900   H     0.50512   0.91316   0.58190   0.00000  Uiso   1.00
H901   H     0.51882   0.79970   0.90354   0.00000  Uiso   1.00
H902   H     0.49587   0.79128   0.71380   0.00000  Uiso   1.00
N903   N     0.48029   0.81883   0.73739   0.00000  Uiso   1.00
N904   N     0.51971   0.84784   0.76260   0.00000  Uiso   1.00
N905   N     0.43301   0.76171   0.60243   0.00000  Uiso   1.00
N906   N     0.58088   0.92941   0.88634   0.00000  Uiso   1.00
N907   N     0.44856   0.68834   0.80689   0.00000  Uiso   1.00
N908   N     0.55138   0.97830   0.69327   0.00000  Uiso   1.00
O909   O     0.63052   0.91298   0.75310   0.00000  Uiso   1.00
O910   O     0.36948   0.75369   0.74690   0.00000  Uiso   1.00
O911   O     0.39155   0.90368   0.74501   0.00000  Uiso   1.00
O912   O     0.60845   0.76298   0.75499   0.00000  Uiso   1.00
O913   O     0.63662   0.84063   0.82247   0.00000  Uiso   1.00
O914   O     0.36338   0.82603   0.67753   0.00000  Uiso   1.00
O915   O     0.39764   0.83134   0.81439   0.00000  Uiso   1.00
O916   O     0.60236   0.83533   0.68561   0.00000  Uiso   1.00
Zn917  Zn    0.60366   0.83954   0.75540   0.00000  Uiso   1.00
Zn918  Zn    0.39634   0.82713   0.74460   0.00000  Uiso   1.00
C919   C     0.68148   0.93141   0.74887   0.00000  Uiso   1.00
C920   C     0.97919   0.82904   0.65863   0.00000  Uiso   1.00
C921   C     0.69917   0.85076   0.89357   0.00000  Uiso   1.00
C922   C     0.96991   0.82558   0.60532   0.00000  Uiso   1.00
C923   C     0.69347   0.90611   0.96763   0.00000  Uiso   1.00
C924   C     0.98779   0.79116   0.52357   0.00000  Uiso   1.00
C925   C     0.67106   0.88850   0.92096   0.00000  Uiso   1.00
C926   C     0.67190   0.79948   0.57299   0.00000  Uiso   1.00
C927   C     0.74724   0.83039   0.91368   0.00000  Uiso   1.00
C928   C     0.92107   0.84661   0.58702   0.00000  Uiso   1.00
C929   C     0.77424   0.85252   0.95710   0.00000  Uiso   1.00
C930   C     0.98518   0.73526   0.75118   0.00000  Uiso   1.00
C931   C     0.90336   0.83915   0.53770   0.00000  Uiso   1.00
C932   C     0.74546   0.88927   0.98538   0.00000  Uiso   1.00
C933   C     0.93617   0.80894   0.50625   0.00000  Uiso   1.00
C934   C     0.82936   0.83943   0.97257   0.00000  Uiso   1.00
C935   C     0.85163   0.85773   0.51986   0.00000  Uiso   1.00
C936   C     0.72428   0.77849   0.58941   0.00000  Uiso   1.00
C937   C     0.95435   0.91121   0.90170   0.00000  Uiso   1.00
C938   C     0.74078   0.67252   0.78432   0.00000  Uiso   1.00
C939   C     0.92584   0.99414   0.71582   0.00000  Uiso   1.00
C940   C     0.82164   0.89414   0.54758   0.00000  Uiso   1.00
C941   C     0.86380   0.81035   0.94155   0.00000  Uiso   1.00
C942   C     0.76961   0.90977   0.53033   0.00000  Uiso   1.00
C943   C     0.91659   0.79595   0.95812   0.00000  Uiso   1.00
C944   C     0.68900   0.98575   0.75590   0.00000  Uiso   1.00
C945   C     0.97765   0.68092   0.74420   0.00000  Uiso   1.00
C946   C     0.68771   0.83878   0.84120   0.00000  Uiso   1.00
H947   H     0.74836   0.93828   0.55221   0.00000  Uiso   1.00
H948   H     0.83747   0.87538   0.78621   0.00000  Uiso   1.00
H949   H     0.94170   0.77367   0.93334   0.00000  Uiso   1.00
H950   H     0.89516   0.86593   0.61287   0.00000  Uiso   1.00
H951   H     0.76430   0.79847   0.89326   0.00000  Uiso   1.00
H952   H     0.67182   0.93468   0.98916   0.00000  Uiso   1.00
H953   H     0.68025   0.76942   0.99888   0.00000  Uiso   1.00
H954   H     0.83845   0.91316   0.58190   0.00000  Uiso   1.00
H955   H     0.85215   0.79970   0.90354   0.00000  Uiso   1.00
H956   H     0.82920   0.79128   0.71380   0.00000  Uiso   1.00
N957   N     0.81362   0.81883   0.73739   0.00000  Uiso   1.00
N958   N     0.85305   0.84784   0.76260   0.00000  Uiso   1.00
N959   N     0.76634   0.76171   0.60243   0.00000  Uiso   1.00
N960   N     0.91422   0.92941   0.88634   0.00000  Uiso   1.00
N961   N     0.78190   0.68834   0.80689   0.00000  Uiso   1.00
N962   N     0.88471   0.97830   0.69327   0.00000  Uiso   1.00
O963   O     0.96386   0.91298   0.75310   0.00000  Uiso   1.00
O964   O     0.70281   0.75369   0.74690   0.00000  Uiso   1.00
O965   O     0.72488   0.90368   0.74501   0.00000  Uiso   1.00
O966   O     0.94178   0.76298   0.75499   0.00000  Uiso   1.00
O967   O     0.96995   0.84063   0.82247   0.00000  Uiso   1.00
O968   O     0.69672   0.82603   0.67753   0.00000  Uiso   1.00
O969   O     0.73098   0.83134   0.81439   0.00000  Uiso   1.00
O970   O     0.93569   0.83533   0.68561   0.00000  Uiso   1.00
Zn971  Zn    0.93700   0.83954   0.75540   0.00000  Uiso   1.00
Zn972  Zn    0.72967   0.82713   0.74460   0.00000  Uiso   1.00
loop_
_geom_bond_atom_site_label_1
_geom_bond_atom_site_label_2
_geom_bond_distance
_geom_bond_site_symmetry_2
_ccdc_geom_bond_type
C1     C26     1.404   .     S
C1     O47     1.292   .     A
C1     O153    1.270   1_455 S
C2     C4      1.463   .     S
C2     O52     1.301   .     A
C2     O104    1.290   .     S
C3     C9      1.386   .     A
C3     C7      1.413   .     A
C3     C28     1.457   .     S
C4     C10     1.391   .     A
C4     C62     1.414   .     S
C5     H34     1.085   .     S
C5     C14     1.402   .     A
C5     C7      1.396   .     A
C6     C15     1.400   .     A
C6     C62     1.395   .     S
C6     H575    1.085   1_554 S
C7     C127    1.444   1_455 S
C8     C18     1.444   .     S
C8     C112    1.414   1_455 S
C8     C114    1.395   1_455 S
C9     H33     1.079   .     S
C9     C11     1.392   .     A
C10    H32     1.076   .     S
C10    C13     1.393   .     A
C11    C14     1.416   .     A
C11    C16     1.415   .     A
C12    O48     1.292   .     A
C12    C27     1.404   .     S
C12    O100    1.270   .     S
C13    C17     1.416   .     A
C13    C15     1.417   .     A
C14    C510    1.389   .     S
C15    C511    1.389   1_554 S
C16    C23     1.418   .     A
C16    C503    1.415   .     S
C17    C22     1.418   .     A
C17    C502    1.415   1_554 S
C18    N41     1.158   .     T
C19    N42     1.157   .     T
C19    C61     1.444   .     S
C20    N43     1.158   .     T
C20    C350    1.459   1_545 S
C21    N44     1.158   .     T
C21    C189    1.459   .     S
C22    H36     1.078   .     S
C22    C24     1.386   .     A
C23    C25     1.385   .     A
C23    H37     1.078   .     S
C24    H29     1.084   .     S
C24    C500    1.389   1_554 S
C25    H31     1.084   .     S
C25    C501    1.389   .     S
C26    C182    1.459   .     S
C26    C297    1.363   1_455 S
C27    C345    1.459   1_545 S
C27    C404    1.363   1_545 S
C28    O51     1.299   .     A
C28    O157    1.289   1_455 S
H30    N40     1.029   .     S
H35    C600    1.085   1_455 S
H38    N39     1.029   .     S
N39    Zn54    2.016   .     S
N39    N40     1.294   .     D
N40    Zn53    2.016   .     S
O45    Zn53    1.965   .     S
O45    C55     1.270   .     S
O46    Zn54    1.965   .     S
O46    C120    1.270   1_455 S
O47    Zn54    1.991   .     S
O48    Zn53    1.991   .     S
O49    Zn53    1.958   .     S
O49    C82     1.289   .     S
O50    Zn54    1.958   .     S
O50    C110    1.290   1_455 S
O51    Zn54    1.906   .     S
O52    Zn53    1.906   .     S
C55    C80     1.404   .     S
C55    O101    1.292   .     A
C56    C58     1.463   .     S
C56    O106    1.301   .     A
C56    O158    1.290   .     S
C57    C63     1.386   .     A
C57    C61     1.413   .     A
C57    C82     1.457   .     S
C58    C64     1.391   .     A
C58    C116    1.414   .     S
C59    H88     1.085   .     S
C59    C68     1.402   .     A
C59    C61     1.396   .     A
C60    C69     1.400   .     A
C60    C116    1.395   .     S
C60    H629    1.085   1_554 S
C62    C72     1.444   .     S
C63    H87     1.079   .     S
C63    C65     1.392   .     A
C64    H86     1.076   .     S
C64    C67     1.393   .     A
C65    C68     1.416   .     A
C65    C70     1.415   .     A
C66    O102    1.292   .     A
C66    C81     1.404   .     S
C66    O154    1.270   .     S
C67    C71     1.416   .     A
C67    C69     1.417   .     A
C68    C564    1.389   .     S
C69    C565    1.389   1_554 S
C70    C77     1.418   .     A
C70    C557    1.415   .     S
C71    C76     1.418   .     A
C71    C556    1.415   1_554 S
C72    N95     1.158   .     T
C73    N96     1.157   .     T
C73    C115    1.444   .     S
C74    N97     1.158   .     T
C74    C404    1.459   1_545 S
C75    N98     1.158   .     T
C75    C243    1.459   .     S
C76    H90     1.078   .     S
C76    C78     1.386   .     A
C77    C79     1.385   .     A
C77    H91     1.078   .     S
C78    H83     1.084   .     S
C78    C554    1.389   1_554 S
C79    H85     1.084   .     S
C79    C555    1.389   .     S
C80    C236    1.459   .     S
C80    C189    1.363   .     S
C81    C399    1.459   1_545 S
C81    C458    1.363   1_545 S
C82    O105    1.299   .     A
H84    N94     1.029   .     S
H89    C492    1.085   .     S
H92    N93     1.029   .     S
N93    Zn108   2.016   .     S
N93    N94     1.294   .     D
N94    Zn107   2.016   .     S
O99    Zn107   1.965   .     S
O99    C109    1.270   .     S
O100   Zn108   1.965   .     S
O101   Zn108   1.991   .     S
O102   Zn107   1.991   .     S
O103   Zn107   1.958   .     S
O103   C136    1.289   .     S
O104   Zn108   1.958   .     S
O105   Zn108   1.906   .     S
O106   Zn107   1.906   .     S
C109   C134    1.404   .     S
C109   O155    1.292   .     A
C110   C112    1.463   .     S
C110   O160    1.301   .     A
C110   O50     1.290   1_655 S
C111   C117    1.386   .     A
C111   C115    1.413   .     A
C111   C136    1.457   .     S
C112   C118    1.391   .     A
C112   C8      1.414   1_655 S
C113   H142    1.085   .     S
C113   C122    1.402   .     A
C113   C115    1.396   .     A
C114   C123    1.400   .     A
C114   C8      1.395   1_655 S
C114   H521    1.085   1_654 S
C116   C126    1.444   .     S
C117   H141    1.079   .     S
C117   C119    1.392   .     A
C118   H140    1.076   .     S
C118   C121    1.393   .     A
C119   C122    1.416   .     A
C119   C124    1.415   .     A
C120   O156    1.292   .     A
C120   C135    1.404   .     S
C120   O46     1.270   1_655 S
C121   C125    1.416   .     A
C121   C123    1.417   .     A
C122   C618    1.389   .     S
C123   C619    1.389   1_554 S
C124   C131    1.418   .     A
C124   C611    1.415   .     S
C125   C130    1.418   .     A
C125   C610    1.415   1_554 S
C126   N149    1.158   .     T
C127   N150    1.157   .     T
C127   C7      1.444   1_655 S
C128   N151    1.158   .     T
C128   C458    1.459   1_545 S
C129   N152    1.158   .     T
C129   C297    1.459   .     S
C130   H144    1.078   .     S
C130   C132    1.386   .     A
C131   C133    1.385   .     A
C131   H145    1.078   .     S
C132   H137    1.084   .     S
C132   C608    1.389   1_554 S
C133   H139    1.084   .     S
C133   C609    1.389   .     S
C134   C290    1.459   .     S
C134   C243    1.363   .     S
C135   C453    1.459   1_545 S
C135   C350    1.363   1_645 S
C136   O159    1.299   .     A
H138   N148    1.029   .     S
H143   C546    1.085   .     S
H146   N147    1.029   .     S
N147   Zn162   2.016   .     S
N147   N148    1.294   .     D
N148   Zn161   2.016   .     S
O153   Zn161   1.965   .     S
O153   C1      1.270   1_655 S
O154   Zn162   1.965   .     S
O155   Zn162   1.991   .     S
O156   Zn161   1.991   .     S
O157   Zn161   1.958   .     S
O157   C28     1.289   1_655 S
O158   Zn162   1.958   .     S
O159   Zn162   1.906   .     S
O160   Zn161   1.906   .     S
C163   C188    1.404   .     S
C163   O209    1.292   .     A
C163   O315    1.270   1_455 S
C164   C166    1.463   .     S
C164   O214    1.301   .     A
C164   O266    1.290   .     S
C165   C171    1.386   .     A
C165   C169    1.413   .     A
C165   C190    1.457   .     S
C166   C172    1.391   .     A
C166   C224    1.414   .     S
C167   H196    1.085   .     S
C167   C176    1.402   .     A
C167   C169    1.396   .     A
C168   C177    1.400   .     A
C168   C224    1.395   .     S
C168   H737    1.085   1_554 S
C169   C289    1.444   1_455 S
C170   C180    1.444   .     S
C170   C274    1.414   1_455 S
C170   C276    1.395   1_455 S
C171   H195    1.079   .     S
C171   C173    1.392   .     A
C172   H194    1.076   .     S
C172   C175    1.393   .     A
C173   C176    1.416   .     A
C173   C178    1.415   .     A
C174   O210    1.292   .     A
C174   C189    1.404   .     S
C174   O262    1.270   .     S
C175   C179    1.416   .     A
C175   C177    1.417   .     A
C176   C672    1.389   .     S
C177   C673    1.389   1_554 S
C178   C185    1.418   .     A
C178   C665    1.415   .     S
C179   C184    1.418   .     A
C179   C664    1.415   1_554 S
C180   N203    1.158   .     T
C181   N204    1.157   .     T
C181   C223    1.444   .     S
C182   N205    1.158   .     T
C183   N206    1.158   .     T
C183   C351    1.459   .     S
C184   H198    1.078   .     S
C184   C186    1.386   .     A
C185   C187    1.385   .     A
C185   H199    1.078   .     S
C186   H191    1.084   .     S
C186   C662    1.389   1_554 S
C187   H193    1.084   .     S
C187   C663    1.389   .     S
C188   C344    1.459   .     S
C188   C459    1.363   1_455 S
C190   O213    1.299   .     A
C190   O319    1.289   1_455 S
H192   N202    1.029   .     S
H197   C762    1.085   1_455 S
H200   N201    1.029   .     S
N201   Zn216   2.016   .     S
N201   N202    1.294   .     D
N202   Zn215   2.016   .     S
O207   Zn215   1.965   .     S
O207   C217    1.270   .     S
O208   Zn216   1.965   .     S
O208   C282    1.270   1_455 S
O209   Zn216   1.991   .     S
O210   Zn215   1.991   .     S
O211   Zn215   1.958   .     S
O211   C244    1.289   .     S
O212   Zn216   1.958   .     S
O212   C272    1.290   1_455 S
O213   Zn216   1.906   .     S
O214   Zn215   1.906   .     S
C217   C242    1.404   .     S
C217   O263    1.292   .     A
C218   C220    1.463   .     S
C218   O268    1.301   .     A
C218   O320    1.290   .     S
C219   C225    1.386   .     A
C219   C223    1.413   .     A
C219   C244    1.457   .     S
C220   C226    1.391   .     A
C220   C278    1.414   .     S
C221   H250    1.085   .     S
C221   C230    1.402   .     A
C221   C223    1.396   .     A
C222   C231    1.400   .     A
C222   C278    1.395   .     S
C222   H791    1.085   1_554 S
C224   C234    1.444   .     S
C225   H249    1.079   .     S
C225   C227    1.392   .     A
C226   H248    1.076   .     S
C226   C229    1.393   .     A
C227   C230    1.416   .     A
C227   C232    1.415   .     A
C228   O264    1.292   .     A
C228   C243    1.404   .     S
C228   O316    1.270   .     S
C229   C233    1.416   .     A
C229   C231    1.417   .     A
C230   C726    1.389   .     S
C231   C727    1.389   1_554 S
C232   C239    1.418   .     A
C232   C719    1.415   .     S
C233   C238    1.418   .     A
C233   C718    1.415   1_554 S
C234   N257    1.158   .     T
C235   N258    1.157   .     T
C235   C277    1.444   .     S
C236   N259    1.158   .     T
C237   N260    1.158   .     T
C237   C405    1.459   .     S
C238   H252    1.078   .     S
C238   C240    1.386   .     A
C239   C241    1.385   .     A
C239   H253    1.078   .     S
C240   H245    1.084   .     S
C240   C716    1.389   1_554 S
C241   H247    1.084   .     S
C241   C717    1.389   .     S
C242   C398    1.459   .     S
C242   C351    1.363   .     S
C244   O267    1.299   .     A
H246   N256    1.029   .     S
H251   C654    1.085   .     S
H254   N255    1.029   .     S
N255   Zn270   2.016   .     S
N255   N256    1.294   .     D
N256   Zn269   2.016   .     S
O261   Zn269   1.965   .     S
O261   C271    1.270   .     S
O262   Zn270   1.965   .     S
O263   Zn270   1.991   .     S
O264   Zn269   1.991   .     S
O265   Zn269   1.958   .     S
O265   C298    1.289   .     S
O266   Zn270   1.958   .     S
O267   Zn270   1.906   .     S
O268   Zn269   1.906   .     S
C271   C296    1.404   .     S
C271   O317    1.292   .     A
C272   C274    1.463   .     S
C272   O322    1.301   .     A
C272   O212    1.290   1_655 S
C273   C279    1.386   .     A
C273   C277    1.413   .     A
C273   C298    1.457   .     S
C274   C280    1.391   .     A
C274   C170    1.414   1_655 S
C275   H304    1.085   .     S
C275   C284    1.402   .     A
C275   C277    1.396   .     A
C276   C285    1.400   .     A
C276   C170    1.395   1_655 S
C276   H683    1.085   1_654 S
C278   C288    1.444   .     S
C279   H303    1.079   .     S
C279   C281    1.392   .     A
C280   H302    1.076   .     S
C280   C283    1.393   .     A
C281   C284    1.416   .     A
C281   C286    1.415   .     A
C282   O318    1.292   .     A
C282   C297    1.404   .     S
C282   O208    1.270   1_655 S
C283   C287    1.416   .     A
C283   C285    1.417   .     A
C284   C780    1.389   .     S
C285   C781    1.389   1_554 S
C286   C293    1.418   .     A
C286   C773    1.415   .     S
C287   C292    1.418   .     A
C287   C772    1.415   1_554 S
C288   N311    1.158   .     T
C289   N312    1.157   .     T
C289   C169    1.444   1_655 S
C290   N313    1.158   .     T
C291   N314    1.158   .     T
C291   C459    1.459   .     S
C292   H306    1.078   .     S
C292   C294    1.386   .     A
C293   C295    1.385   .     A
C293   H307    1.078   .     S
C294   H299    1.084   .     S
C294   C770    1.389   1_554 S
C295   H301    1.084   .     S
C295   C771    1.389   .     S
C296   C452    1.459   .     S
C296   C405    1.363   .     S
C297   C26     1.363   1_655 S
C298   O321    1.299   .     A
H300   N310    1.029   .     S
H305   C708    1.085   .     S
H308   N309    1.029   .     S
N309   Zn324   2.016   .     S
N309   N310    1.294   .     D
N310   Zn323   2.016   .     S
O315   Zn323   1.965   .     S
O315   C163    1.270   1_655 S
O316   Zn324   1.965   .     S
O317   Zn324   1.991   .     S
O318   Zn323   1.991   .     S
O319   Zn323   1.958   .     S
O319   C190    1.289   1_655 S
O320   Zn324   1.958   .     S
O321   Zn324   1.906   .     S
O322   Zn323   1.906   .     S
C325   C350    1.404   .     S
C325   O371    1.292   .     A
C325   O477    1.270   1_455 S
C326   C328    1.463   .     S
C326   O376    1.301   .     A
C326   O428    1.290   .     S
C327   C333    1.386   .     A
C327   C331    1.413   .     A
C327   C352    1.457   .     S
C328   C334    1.391   .     A
C328   C386    1.414   .     S
C329   H358    1.085   .     S
C329   C338    1.402   .     A
C329   C331    1.396   .     A
C330   C339    1.400   .     A
C330   C386    1.395   .     S
C330   H899    1.085   1_554 S
C331   C451    1.444   1_455 S
C332   C342    1.444   .     S
C332   C436    1.414   1_455 S
C332   C438    1.395   1_455 S
C333   H357    1.079   .     S
C333   C335    1.392   .     A
C334   H356    1.076   .     S
C334   C337    1.393   .     A
C335   C338    1.416   .     A
C335   C340    1.415   .     A
C336   O372    1.292   .     A
C336   C351    1.404   .     S
C336   O424    1.270   .     S
C337   C341    1.416   .     A
C337   C339    1.417   .     A
C338   C834    1.389   .     S
C339   C835    1.389   1_554 S
C340   C347    1.418   .     A
C340   C827    1.415   .     S
C341   C346    1.418   .     A
C341   C826    1.415   1_554 S
C342   N365    1.158   .     T
C343   N366    1.157   .     T
C343   C385    1.444   .     S
C344   N367    1.158   .     T
C345   N368    1.158   .     T
C345   C27     1.459   1_565 S
C346   H360    1.078   .     S
C346   C348    1.386   .     A
C347   C349    1.385   .     A
C347   H361    1.078   .     S
C348   H353    1.084   .     S
C348   C824    1.389   1_554 S
C349   H355    1.084   .     S
C349   C825    1.389   .     S
C350   C20     1.459   1_565 S
C350   C135    1.363   1_465 S
C352   O375    1.299   .     A
C352   O481    1.289   1_455 S
H354   N364    1.029   .     S
H359   C924    1.085   1_455 S
H362   N363    1.029   .     S
N363   Zn378   2.016   .     S
N363   N364    1.294   .     D
N364   Zn377   2.016   .     S
O369   Zn377   1.965   .     S
O369   C379    1.270   .     S
O370   Zn378   1.965   .     S
O370   C444    1.270   1_455 S
O371   Zn378   1.991   .     S
O372   Zn377   1.991   .     S
O373   Zn377   1.958   .     S
O373   C406    1.289   .     S
O374   Zn378   1.958   .     S
O374   C434    1.290   1_455 S
O375   Zn378   1.906   .     S
O376   Zn377   1.906   .     S
C379   C404    1.404   .     S
C379   O425    1.292   .     A
C380   C382    1.463   .     S
C380   O430    1.301   .     A
C380   O482    1.290   .     S
C381   C387    1.386   .     A
C381   C385    1.413   .     A
C381   C406    1.457   .     S
C382   C388    1.391   .     A
C382   C440    1.414   .     S
C383   H412    1.085   .     S
C383   C392    1.402   .     A
C383   C385    1.396   .     A
C384   C393    1.400   .     A
C384   C440    1.395   .     S
C384   H953    1.085   1_554 S
C386   C396    1.444   .     S
C387   H411    1.079   .     S
C387   C389    1.392   .     A
C388   H410    1.076   .     S
C388   C391    1.393   .     A
C389   C392    1.416   .     A
C389   C394    1.415   .     A
C390   O426    1.292   .     A
C390   C405    1.404   .     S
C390   O478    1.270   .     S
C391   C395    1.416   .     A
C391   C393    1.417   .     A
C392   C888    1.389   .     S
C393   C889    1.389   1_554 S
C394   C401    1.418   .     A
C394   C881    1.415   .     S
C395   C400    1.418   .     A
C395   C880    1.415   1_554 S
C396   N419    1.158   .     T
C397   N420    1.157   .     T
C397   C439    1.444   .     S
C398   N421    1.158   .     T
C399   N422    1.158   .     T
C399   C81     1.459   1_565 S
C400   H414    1.078   .     S
C400   C402    1.386   .     A
C401   C403    1.385   .     A
C401   H415    1.078   .     S
C402   H407    1.084   .     S
C402   C878    1.389   1_554 S
C403   H409    1.084   .     S
C403   C879    1.389   .     S
C404   C74     1.459   1_565 S
C404   C27     1.363   1_565 S
C406   O429    1.299   .     A
H408   N418    1.029   .     S
H413   C816    1.085   .     S
H416   N417    1.029   .     S
N417   Zn432   2.016   .     S
N417   N418    1.294   .     D
N418   Zn431   2.016   .     S
O423   Zn431   1.965   .     S
O423   C433    1.270   .     S
O424   Zn432   1.965   .     S
O425   Zn432   1.991   .     S
O426   Zn431   1.991   .     S
O427   Zn431   1.958   .     S
O427   C460    1.289   .     S
O428   Zn432   1.958   .     S
O429   Zn432   1.906   .     S
O430   Zn431   1.906   .     S
C433   C458    1.404   .     S
C433   O479    1.292   .     A
C434   C436    1.463   .     S
C434   O484    1.301   .     A
C434   O374    1.290   1_655 S
C435   C441    1.386   .     A
C435   C439    1.413   .     A
C435   C460    1.457   .     S
C436   C442    1.391   .     A
C436   C332    1.414   1_655 S
C437   H466    1.085   .     S
C437   C446    1.402   .     A
C437   C439    1.396   .     A
C438   C447    1.400   .     A
C438   C332    1.395   1_655 S
C438   H845    1.085   1_654 S
C440   C450    1.444   .     S
C441   H465    1.079   .     S
C441   C443    1.392   .     A
C442   H464    1.076   .     S
C442   C445    1.393   .     A
C443   C446    1.416   .     A
C443   C448    1.415   .     A
C444   O480    1.292   .     A
C444   C459    1.404   .     S
C444   O370    1.270   1_655 S
C445   C449    1.416   .     A
C445   C447    1.417   .     A
C446   C942    1.389   .     S
C447   C943    1.389   1_554 S
C448   C455    1.418   .     A
C448   C935    1.415   .     S
C449   C454    1.418   .     A
C449   C934    1.415   1_554 S
C450   N473    1.158   .     T
C451   N474    1.157   .     T
C451   C331    1.444   1_655 S
C452   N475    1.158   .     T
C453   N476    1.158   .     T
C453   C135    1.459   1_565 S
C454   H468    1.078   .     S
C454   C456    1.386   .     A
C455   C457    1.385   .     A
C455   H469    1.078   .     S
C456   H461    1.084   .     S
C456   C932    1.389   1_554 S
C457   H463    1.084   .     S
C457   C933    1.389   .     S
C458   C128    1.459   1_565 S
C458   C81     1.363   1_565 S
C459   C188    1.363   1_655 S
C460   O483    1.299   .     A
H462   N472    1.029   .     S
H467   C870    1.085   .     S
H470   N471    1.029   .     S
N471   Zn486   2.016   .     S
N471   N472    1.294   .     D
N472   Zn485   2.016   .     S
O477   Zn485   1.965   .     S
O477   C325    1.270   1_655 S
O478   Zn486   1.965   .     S
O479   Zn486   1.991   .     S
O480   Zn485   1.991   .     S
O481   Zn485   1.958   .     S
O481   C352    1.289   1_655 S
O482   Zn486   1.958   .     S
O483   Zn486   1.906   .     S
O484   Zn485   1.906   .     S
C487   C512    1.404   .     S
C487   O533    1.292   .     A
C487   O639    1.270   1_455 S
C488   C490    1.463   .     S
C488   O538    1.301   .     A
C488   O590    1.290   .     S
C489   C495    1.386   .     A
C489   C493    1.413   .     A
C489   C514    1.457   .     S
C490   C496    1.391   .     A
C490   C548    1.414   .     S
C491   H520    1.085   .     S
C491   C500    1.402   .     A
C491   C493    1.396   .     A
C492   C501    1.400   .     A
C492   C548    1.395   .     S
C493   C613    1.444   1_455 S
C494   C504    1.444   .     S
C494   C598    1.414   1_455 S
C494   C600    1.395   1_455 S
C495   H519    1.079   .     S
C495   C497    1.392   .     A
C496   H518    1.076   .     S
C496   C499    1.393   .     A
C497   C500    1.416   .     A
C497   C502    1.415   .     A
C498   O534    1.292   .     A
C498   C513    1.404   .     S
C498   O586    1.270   .     S
C499   C503    1.416   .     A
C499   C501    1.417   .     A
C500   C24     1.389   1_556 S
C502   C509    1.418   .     A
C502   C17     1.415   1_556 S
C503   C508    1.418   .     A
C504   N527    1.158   .     T
C505   N528    1.157   .     T
C505   C547    1.444   .     S
C506   N529    1.158   .     T
C506   C836    1.459   1_545 S
C507   N530    1.158   .     T
C507   C675    1.459   .     S
C508   H522    1.078   .     S
C508   C510    1.386   .     A
C509   C511    1.385   .     A
C509   H523    1.078   .     S
C510   H515    1.084   .     S
C511   H517    1.084   .     S
C511   C15     1.389   1_556 S
C512   C668    1.459   .     S
C512   C783    1.363   1_455 S
C513   C831    1.459   1_545 S
C513   C890    1.363   1_545 S
C514   O537    1.299   .     A
C514   O643    1.289   1_455 S
H516   N526    1.029   .     S
H521   C114    1.085   1_456 S
H524   N525    1.029   .     S
N525   Zn540   2.016   .     S
N525   N526    1.294   .     D
N526   Zn539   2.016   .     S
O531   Zn539   1.965   .     S
O531   C541    1.270   .     S
O532   Zn540   1.965   .     S
O532   C606    1.270   1_455 S
O533   Zn540   1.991   .     S
O534   Zn539   1.991   .     S
O535   Zn539   1.958   .     S
O535   C568    1.289   .     S
O536   Zn540   1.958   .     S
O536   C596    1.290   1_455 S
O537   Zn540   1.906   .     S
O538   Zn539   1.906   .     S
C541   C566    1.404   .     S
C541   O587    1.292   .     A
C542   C544    1.463   .     S
C542   O592    1.301   .     A
C542   O644    1.290   .     S
C543   C549    1.386   .     A
C543   C547    1.413   .     A
C543   C568    1.457   .     S
C544   C550    1.391   .     A
C544   C602    1.414   .     S
C545   H574    1.085   .     S
C545   C554    1.402   .     A
C545   C547    1.396   .     A
C546   C555    1.400   .     A
C546   C602    1.395   .     S
C548   C558    1.444   .     S
C549   H573    1.079   .     S
C549   C551    1.392   .     A
C550   H572    1.076   .     S
C550   C553    1.393   .     A
C551   C554    1.416   .     A
C551   C556    1.415   .     A
C552   O588    1.292   .     A
C552   C567    1.404   .     S
C552   O640    1.270   .     S
C553   C557    1.416   .     A
C553   C555    1.417   .     A
C554   C78     1.389   1_556 S
C556   C563    1.418   .     A
C556   C71     1.415   1_556 S
C557   C562    1.418   .     A
C558   N581    1.158   .     T
C559   N582    1.157   .     T
C559   C601    1.444   .     S
C560   N583    1.158   .     T
C560   C890    1.459   1_545 S
C561   N584    1.158   .     T
C561   C729    1.459   .     S
C562   H576    1.078   .     S
C562   C564    1.386   .     A
C563   C565    1.385   .     A
C563   H577    1.078   .     S
C564   H569    1.084   .     S
C565   H571    1.084   .     S
C565   C69     1.389   1_556 S
C566   C722    1.459   .     S
C566   C675    1.363   .     S
C567   C885    1.459   1_545 S
C567   C944    1.363   1_545 S
C568   O591    1.299   .     A
H570   N580    1.029   .     S
H575   C6      1.085   1_556 S
H578   N579    1.029   .     S
N579   Zn594   2.016   .     S
N579   N580    1.294   .     D
N580   Zn593   2.016   .     S
O585   Zn593   1.965   .     S
O585   C595    1.270   .     S
O586   Zn594   1.965   .     S
O587   Zn594   1.991   .     S
O588   Zn593   1.991   .     S
O589   Zn593   1.958   .     S
O589   C622    1.289   .     S
O590   Zn594   1.958   .     S
O591   Zn594   1.906   .     S
O592   Zn593   1.906   .     S
C595   C620    1.404   .     S
C595   O641    1.292   .     A
C596   C598    1.463   .     S
C596   O646    1.301   .     A
C596   O536    1.290   1_655 S
C597   C603    1.386   .     A
C597   C601    1.413   .     A
C597   C622    1.457   .     S
C598   C604    1.391   .     A
C598   C494    1.414   1_655 S
C599   H628    1.085   .     S
C599   C608    1.402   .     A
C599   C601    1.396   .     A
C600   C609    1.400   .     A
C600   C494    1.395   1_655 S
C600   H35     1.085   1_655 S
C602   C612    1.444   .     S
C603   H627    1.079   .     S
C603   C605    1.392   .     A
C604   H626    1.076   .     S
C604   C607    1.393   .     A
C605   C608    1.416   .     A
C605   C610    1.415   .     A
C606   O642    1.292   .     A
C606   C621    1.404   .     S
C606   O532    1.270   1_655 S
C607   C611    1.416   .     A
C607   C609    1.417   .     A
C608   C132    1.389   1_556 S
C610   C617    1.418   .     A
C610   C125    1.415   1_556 S
C611   C616    1.418   .     A
C612   N635    1.158   .     T
C613   N636    1.157   .     T
C613   C493    1.444   1_655 S
C614   N637    1.158   .     T
C614   C944    1.459   1_545 S
C615   N638    1.158   .     T
C615   C783    1.459   .     S
C616   H630    1.078   .     S
C616   C618    1.386   .     A
C617   C619    1.385   .     A
C617   H631    1.078   .     S
C618   H623    1.084   .     S
C619   H625    1.084   .     S
C619   C123    1.389   1_556 S
C620   C776    1.459   .     S
C620   C729    1.363   .     S
C621   C939    1.459   1_545 S
C621   C836    1.363   1_645 S
C622   O645    1.299   .     A
H624   N634    1.029   .     S
H629   C60     1.085   1_556 S
H632   N633    1.029   .     S
N633   Zn648   2.016   .     S
N633   N634    1.294   .     D
N634   Zn647   2.016   .     S
O639   Zn647   1.965   .     S
O639   C487    1.270   1_655 S
O640   Zn648   1.965   .     S
O641   Zn648   1.991   .     S
O642   Zn647   1.991   .     S
O643   Zn647   1.958   .     S
O643   C514    1.289   1_655 S
O644   Zn648   1.958   .     S
O645   Zn648   1.906   .     S
O646   Zn647   1.906   .     S
C649   C674    1.404   .     S
C649   O695    1.292   .     A
C649   O801    1.270   1_455 S
C650   C652    1.463   .     S
C650   O700    1.301   .     A
C650   O752    1.290   .     S
C651   C657    1.386   .     A
C651   C655    1.413   .     A
C651   C676    1.457   .     S
C652   C658    1.391   .     A
C652   C710    1.414   .     S
C653   H682    1.085   .     S
C653   C662    1.402   .     A
C653   C655    1.396   .     A
C654   C663    1.400   .     A
C654   C710    1.395   .     S
C655   C775    1.444   1_455 S
C656   C666    1.444   .     S
C656   C760    1.414   1_455 S
C656   C762    1.395   1_455 S
C657   H681    1.079   .     S
C657   C659    1.392   .     A
C658   H680    1.076   .     S
C658   C661    1.393   .     A
C659   C662    1.416   .     A
C659   C664    1.415   .     A
C660   O696    1.292   .     A
C660   C675    1.404   .     S
C660   O748    1.270   .     S
C661   C665    1.416   .     A
C661   C663    1.417   .     A
C662   C186    1.389   1_556 S
C664   C671    1.418   .     A
C664   C179    1.415   1_556 S
C665   C670    1.418   .     A
C666   N689    1.158   .     T
C667   N690    1.157   .     T
C667   C709    1.444   .     S
C668   N691    1.158   .     T
C669   N692    1.158   .     T
C669   C837    1.459   .     S
C670   H684    1.078   .     S
C670   C672    1.386   .     A
C671   C673    1.385   .     A
C671   H685    1.078   .     S
C672   H677    1.084   .     S
C673   H679    1.084   .     S
C673   C177    1.389   1_556 S
C674   C830    1.459   .     S
C674   C945    1.363   1_455 S
C676   O699    1.299   .     A
C676   O805    1.289   1_455 S
H678   N688    1.029   .     S
H683   C276    1.085   1_456 S
H686   N687    1.029   .     S
N687   Zn702   2.016   .     S
N687   N688    1.294   .     D
N688   Zn701   2.016   .     S
O693   Zn701   1.965   .     S
O693   C703    1.270   .     S
O694   Zn702   1.965   .     S
O694   C768    1.270   1_455 S
O695   Zn702   1.991   .     S
O696   Zn701   1.991   .     S
O697   Zn701   1.958   .     S
O697   C730    1.289   .     S
O698   Zn702   1.958   .     S
O698   C758    1.290   1_455 S
O699   Zn702   1.906   .     S
O700   Zn701   1.906   .     S
C703   C728    1.404   .     S
C703   O749    1.292   .     A
C704   C706    1.463   .     S
C704   O754    1.301   .     A
C704   O806    1.290   .     S
C705   C711    1.386   .     A
C705   C709    1.413   .     A
C705   C730    1.457   .     S
C706   C712    1.391   .     A
C706   C764    1.414   .     S
C707   H736    1.085   .     S
C707   C716    1.402   .     A
C707   C709    1.396   .     A
C708   C717    1.400   .     A
C708   C764    1.395   .     S
C710   C720    1.444   .     S
C711   H735    1.079   .     S
C711   C713    1.392   .     A
C712   H734    1.076   .     S
C712   C715    1.393   .     A
C713   C716    1.416   .     A
C713   C718    1.415   .     A
C714   O750    1.292   .     A
C714   C729    1.404   .     S
C714   O802    1.270   .     S
C715   C719    1.416   .     A
C715   C717    1.417   .     A
C716   C240    1.389   1_556 S
C718   C725    1.418   .     A
C718   C233    1.415   1_556 S
C719   C724    1.418   .     A
C720   N743    1.158   .     T
C721   N744    1.157   .     T
C721   C763    1.444   .     S
C722   N745    1.158   .     T
C723   N746    1.158   .     T
C723   C891    1.459   .     S
C724   H738    1.078   .     S
C724   C726    1.386   .     A
C725   C727    1.385   .     A
C725   H739    1.078   .     S
C726   H731    1.084   .     S
C727   H733    1.084   .     S
C727   C231    1.389   1_556 S
C728   C884    1.459   .     S
C728   C837    1.363   .     S
C730   O753    1.299   .     A
H732   N742    1.029   .     S
H737   C168    1.085   1_556 S
H740   N741    1.029   .     S
N741   Zn756   2.016   .     S
N741   N742    1.294   .     D
N742   Zn755   2.016   .     S
O747   Zn755   1.965   .     S
O747   C757    1.270   .     S
O748   Zn756   1.965   .     S
O749   Zn756   1.991   .     S
O750   Zn755   1.991   .     S
O751   Zn755   1.958   .     S
O751   C784    1.289   .     S
O752   Zn756   1.958   .     S
O753   Zn756   1.906   .     S
O754   Zn755   1.906   .     S
C757   C782    1.404   .     S
C757   O803    1.292   .     A
C758   C760    1.463   .     S
C758   O808    1.301   .     A
C758   O698    1.290   1_655 S
C759   C765    1.386   .     A
C759   C763    1.413   .     A
C759   C784    1.457   .     S
C760   C766    1.391   .     A
C760   C656    1.414   1_655 S
C761   H790    1.085   .     S
C761   C770    1.402   .     A
C761   C763    1.396   .     A
C762   C771    1.400   .     A
C762   C656    1.395   1_655 S
C762   H197    1.085   1_655 S
C764   C774    1.444   .     S
C765   H789    1.079   .     S
C765   C767    1.392   .     A
C766   H788    1.076   .     S
C766   C769    1.393   .     A
C767   C770    1.416   .     A
C767   C772    1.415   .     A
C768   O804    1.292   .     A
C768   C783    1.404   .     S
C768   O694    1.270   1_655 S
C769   C773    1.416   .     A
C769   C771    1.417   .     A
C770   C294    1.389   1_556 S
C772   C779    1.418   .     A
C772   C287    1.415   1_556 S
C773   C778    1.418   .     A
C774   N797    1.158   .     T
C775   N798    1.157   .     T
C775   C655    1.444   1_655 S
C776   N799    1.158   .     T
C777   N800    1.158   .     T
C777   C945    1.459   .     S
C778   H792    1.078   .     S
C778   C780    1.386   .     A
C779   C781    1.385   .     A
C779   H793    1.078   .     S
C780   H785    1.084   .     S
C781   H787    1.084   .     S
C781   C285    1.389   1_556 S
C782   C938    1.459   .     S
C782   C891    1.363   .     S
C783   C512    1.363   1_655 S
C784   O807    1.299   .     A
H786   N796    1.029   .     S
H791   C222    1.085   1_556 S
H794   N795    1.029   .     S
N795   Zn810   2.016   .     S
N795   N796    1.294   .     D
N796   Zn809   2.016   .     S
O801   Zn809   1.965   .     S
O801   C649    1.270   1_655 S
O802   Zn810   1.965   .     S
O803   Zn810   1.991   .     S
O804   Zn809   1.991   .     S
O805   Zn809   1.958   .     S
O805   C676    1.289   1_655 S
O806   Zn810   1.958   .     S
O807   Zn810   1.906   .     S
O808   Zn809   1.906   .     S
C811   C836    1.404   .     S
C811   O857    1.292   .     A
C811   O963    1.270   1_455 S
C812   C814    1.463   .     S
C812   O862    1.301   .     A
C812   O914    1.290   .     S
C813   C819    1.386   .     A
C813   C817    1.413   .     A
C813   C838    1.457   .     S
C814   C820    1.391   .     A
C814   C872    1.414   .     S
C815   H844    1.085   .     S
C815   C824    1.402   .     A
C815   C817    1.396   .     A
C816   C825    1.400   .     A
C816   C872    1.395   .     S
C817   C937    1.444   1_455 S
C818   C828    1.444   .     S
C818   C922    1.414   1_455 S
C818   C924    1.395   1_455 S
C819   H843    1.079   .     S
C819   C821    1.392   .     A
C820   H842    1.076   .     S
C820   C823    1.393   .     A
C821   C824    1.416   .     A
C821   C826    1.415   .     A
C822   O858    1.292   .     A
C822   C837    1.404   .     S
C822   O910    1.270   .     S
C823   C827    1.416   .     A
C823   C825    1.417   .     A
C824   C348    1.389   1_556 S
C826   C833    1.418   .     A
C826   C341    1.415   1_556 S
C827   C832    1.418   .     A
C828   N851    1.158   .     T
C829   N852    1.157   .     T
C829   C871    1.444   .     S
C830   N853    1.158   .     T
C831   N854    1.158   .     T
C831   C513    1.459   1_565 S
C832   H846    1.078   .     S
C832   C834    1.386   .     A
C833   C835    1.385   .     A
C833   H847    1.078   .     S
C834   H839    1.084   .     S
C835   H841    1.084   .     S
C835   C339    1.389   1_556 S
C836   C506    1.459   1_565 S
C836   C621    1.363   1_465 S
C838   O861    1.299   .     A
C838   O967    1.289   1_455 S
H840   N850    1.029   .     S
H845   C438    1.085   1_456 S
H848   N849    1.029   .     S
N849   Zn864   2.016   .     S
N849   N850    1.294   .     D
N850   Zn863   2.016   .     S
O855   Zn863   1.965   .     S
O855   C865    1.270   .     S
O856   Zn864   1.965   .     S
O856   C930    1.270   1_455 S
O857   Zn864   1.991   .     S
O858   Zn863   1.991   .     S
O859   Zn863   1.958   .     S
O859   C892    1.289   .     S
O860   Zn864   1.958   .     S
O860   C920    1.290   1_455 S
O861   Zn864   1.906   .     S
O862   Zn863   1.906   .     S
C865   C890    1.404   .     S
C865   O911    1.292   .     A
C866   C868    1.463   .     S
C866   O916    1.301   .     A
C866   O968    1.290   .     S
C867   C873    1.386   .     A
C867   C871    1.413   .     A
C867   C892    1.457   .     S
C868   C874    1.391   .     A
C868   C926    1.414   .     S
C869   H898    1.085   .     S
C869   C878    1.402   .     A
C869   C871    1.396   .     A
C870   C879    1.400   .     A
C870   C926    1.395   .     S
C872   C882    1.444   .     S
C873   H897    1.079   .     S
C873   C875    1.392   .     A
C874   H896    1.076   .     S
C874   C877    1.393   .     A
C875   C878    1.416   .     A
C875   C880    1.415   .     A
C876   O912    1.292   .     A
C876   C891    1.404   .     S
C876   O964    1.270   .     S
C877   C881    1.416   .     A
C877   C879    1.417   .     A
C878   C402    1.389   1_556 S
C880   C887    1.418   .     A
C880   C395    1.415   1_556 S
C881   C886    1.418   .     A
C882   N905    1.158   .     T
C883   N906    1.157   .     T
C883   C925    1.444   .     S
C884   N907    1.158   .     T
C885   N908    1.158   .     T
C885   C567    1.459   1_565 S
C886   H900    1.078   .     S
C886   C888    1.386   .     A
C887   C889    1.385   .     A
C887   H901    1.078   .     S
C888   H893    1.084   .     S
C889   H895    1.084   .     S
C889   C393    1.389   1_556 S
C890   C560    1.459   1_565 S
C890   C513    1.363   1_565 S
C892   O915    1.299   .     A
H894   N904    1.029   .     S
H899   C330    1.085   1_556 S
H902   N903    1.029   .     S
N903   Zn918   2.016   .     S
N903   N904    1.294   .     D
N904   Zn917   2.016   .     S
O909   Zn917   1.965   .     S
O909   C919    1.270   .     S
O910   Zn918   1.965   .     S
O911   Zn918   1.991   .     S
O912   Zn917   1.991   .     S
O913   Zn917   1.958   .     S
O913   C946    1.289   .     S
O914   Zn918   1.958   .     S
O915   Zn918   1.906   .     S
O916   Zn917   1.906   .     S
C919   C944    1.404   .     S
C919   O965    1.292   .     A
C920   C922    1.463   .     S
C920   O970    1.301   .     A
C920   O860    1.290   1_655 S
C921   C927    1.386   .     A
C921   C925    1.413   .     A
C921   C946    1.457   .     S
C922   C928    1.391   .     A
C922   C818    1.414   1_655 S
C923   H952    1.085   .     S
C923   C932    1.402   .     A
C923   C925    1.396   .     A
C924   C933    1.400   .     A
C924   C818    1.395   1_655 S
C924   H359    1.085   1_655 S
C926   C936    1.444   .     S
C927   H951    1.079   .     S
C927   C929    1.392   .     A
C928   H950    1.076   .     S
C928   C931    1.393   .     A
C929   C932    1.416   .     A
C929   C934    1.415   .     A
C930   O966    1.292   .     A
C930   C945    1.404   .     S
C930   O856    1.270   1_655 S
C931   C935    1.416   .     A
C931   C933    1.417   .     A
C932   C456    1.389   1_556 S
C934   C941    1.418   .     A
C934   C449    1.415   1_556 S
C935   C940    1.418   .     A
C936   N959    1.158   .     T
C937   N960    1.157   .     T
C937   C817    1.444   1_655 S
C938   N961    1.158   .     T
C939   N962    1.158   .     T
C939   C621    1.459   1_565 S
C940   H954    1.078   .     S
C940   C942    1.386   .     A
C941   C943    1.385   .     A
C941   H955    1.078   .     S
C942   H947    1.084   .     S
C943   H949    1.084   .     S
C943   C447    1.389   1_556 S
C944   C614    1.459   1_565 S
C944   C567    1.363   1_565 S
C945   C674    1.363   1_655 S
C946   O969    1.299   .     A
H948   N958    1.029   .     S
H953   C384    1.085   1_556 S
H956   N957    1.029   .     S
N957   Zn972   2.016   .     S
N957   N958    1.294   .     D
N958   Zn971   2.016   .     S
O963   Zn971   1.965   .     S
O963   C811    1.270   1_655 S
O964   Zn972   1.965   .     S
O965   Zn972   1.991   .     S
O966   Zn971   1.991   .     S
O967   Zn971   1.958   .     S
O967   C838    1.289   1_655 S
O968   Zn972   1.958   .     S
O969   Zn972   1.906   .     S
O970   Zn971   1.906   .     S
