data_str_m1_o10_o16_pcu_sym.216
_audit_creation_date              2020-01-03
_audit_creation_method            'Materials Studio'
_symmetry_space_group_name_H-M    'P1'
_symmetry_Int_Tables_number       1
_symmetry_cell_setting            triclinic
loop_
_symmetry_equiv_pos_as_xyz
  x,y,z
_cell_length_a                    32.5955
_cell_length_b                    32.5632
_cell_length_c                    31.1159
_cell_angle_alpha                 95.9630
_cell_angle_beta                  74.1196
_cell_angle_gamma                 98.9677
loop_
_atom_site_label
_atom_site_type_symbol
_atom_site_fract_x
_atom_site_fract_y
_atom_site_fract_z
_atom_site_U_iso_or_equiv
_atom_site_adp_type
_atom_site_occupancy
C1     C     0.05271   0.15930   0.26057   0.00000  Uiso   1.00
C2     C     0.16562   0.15450   0.06023   0.00000  Uiso   1.00
C3     C     0.23505   0.13410   0.05606   0.00000  Uiso   1.00
C4     C     0.28109   0.17382   0.23939   0.00000  Uiso   1.00
C5     C     0.13718   0.18801   0.42018   0.00000  Uiso   1.00
C6     C     0.32763   0.17644   0.23322   0.00000  Uiso   1.00
C7     C     0.00785   0.15838   0.26295   0.00000  Uiso   1.00
C8     C     0.18240   0.32296   0.23489   0.00000  Uiso   1.00
C9     C     0.15315   0.01177   0.26260   0.00000  Uiso   1.00
C10    C     0.15558   0.05601   0.26075   0.00000  Uiso   1.00
C11    C     0.17705   0.27811   0.23981   0.00000  Uiso   1.00
C12    C     0.07818   0.18563   0.48705   0.00000  Uiso   1.00
C13    C     0.18566   0.14848   0.12934   0.00000  Uiso   1.00
C14    C     0.14899   0.18497   0.37079   0.00000  Uiso   1.00
C15    C     0.24749   0.13834   0.01026   0.00000  Uiso   1.00
C16    C     0.19454   0.14306   0.08104   0.00000  Uiso   1.00
C17    C     0.09499   0.19444   0.44257   0.00000  Uiso   1.00
C18    C     0.22003   0.00806   0.19944   0.00000  Uiso   1.00
C19    C     0.06679   0.11236   0.04530   0.00000  Uiso   1.00
C20    C     0.02381   0.19874   0.19432   0.00000  Uiso   1.00
C21    C     0.10285   0.16996   0.01026   0.00000  Uiso   1.00
C22    C     0.14782   0.16858   0.49044   0.00000  Uiso   1.00
C23    C     0.16471   0.17783   0.44457   0.00000  Uiso   1.00
C24    C     0.17652   0.15728   0.01347   0.00000  Uiso   1.00
C25    C     0.21932   0.15136   0.48915   0.00000  Uiso   1.00
C26    C     0.23486   0.16131   0.44477   0.00000  Uiso   1.00
C27    C     0.20872   0.17642   0.42366   0.00000  Uiso   1.00
H28    H     0.25787   0.12616   0.07243   0.00000  Uiso   1.00
H29    H     0.24299   0.32161   0.17930   0.00000  Uiso   1.00
H30    H     0.09399   0.09420   0.02961   0.00000  Uiso   1.00
H31    H     0.04292   0.10739   0.02498   0.00000  Uiso   1.00
H32    H     0.05043   0.10017   0.07856   0.00000  Uiso   1.00
H33    H     0.01042   0.21096   0.17075   0.00000  Uiso   1.00
H34    H     0.31854   0.14321   0.29113   0.00000  Uiso   1.00
H35    H     0.12622   0.33035   0.28762   0.00000  Uiso   1.00
H36    H     0.26811   0.15917   0.42679   0.00000  Uiso   1.00
H37    H     0.27988   0.13335   0.49168   0.00000  Uiso   1.00
H38    H     0.13702   0.16516   0.08204   0.00000  Uiso   1.00
H39    H     0.07365   0.20297   0.42471   0.00000  Uiso   1.00
H40    H     0.04454   0.18803   0.00284   0.00000  Uiso   1.00
H41    H     0.22377   0.18719   0.39058   0.00000  Uiso   1.00
O42    O     0.16667   0.16667   0.25000   0.00000  Uiso   1.00
O43    O     0.15451   0.12637   0.15458   0.00000  Uiso   1.00
O44    O     0.12940   0.20391   0.34968   0.00000  Uiso   1.00
O45    O     0.20824   0.17759   0.14606   0.00000  Uiso   1.00
O46    O     0.17451   0.15880   0.34968   0.00000  Uiso   1.00
O47    O     0.22605   0.04488   0.19194   0.00000  Uiso   1.00
O48    O     0.08150   0.15507   0.05153   0.00000  Uiso   1.00
O49    O     0.06287   0.20397   0.18795   0.00000  Uiso   1.00
O50    O     0.17930   0.08019   0.28214   0.00000  Uiso   1.00
O51    O     0.14632   0.26085   0.27013   0.00000  Uiso   1.00
O52    O     0.07412   0.13291   0.23413   0.00000  Uiso   1.00
O53    O     0.26693   0.19272   0.21361   0.00000  Uiso   1.00
O54    O     0.07071   0.18878   0.28213   0.00000  Uiso   1.00
O55    O     0.25491   0.15226   0.27014   0.00000  Uiso   1.00
O56    O     0.13760   0.06944   0.23413   0.00000  Uiso   1.00
O57    O     0.20345   0.25620   0.21360   0.00000  Uiso   1.00
Zn58   Zn    0.19338   0.13994   0.28734   0.00000  Uiso   1.00
Zn59   Zn    0.13379   0.12458   0.21875   0.00000  Uiso   1.00
Zn60   Zn    0.21056   0.19775   0.20657   0.00000  Uiso   1.00
Zn61   Zn    0.12893   0.20439   0.28733   0.00000  Uiso   1.00
C62    C     0.38604   0.15930   0.26057   0.00000  Uiso   1.00
C63    C     0.49896   0.15450   0.06023   0.00000  Uiso   1.00
C64    C     0.56838   0.13410   0.05606   0.00000  Uiso   1.00
C65    C     0.61443   0.17382   0.23939   0.00000  Uiso   1.00
C66    C     0.47052   0.18801   0.42018   0.00000  Uiso   1.00
C67    C     0.66097   0.17644   0.23322   0.00000  Uiso   1.00
C68    C     0.34119   0.15838   0.26295   0.00000  Uiso   1.00
C69    C     0.51573   0.32296   0.23489   0.00000  Uiso   1.00
C70    C     0.48649   0.01177   0.26260   0.00000  Uiso   1.00
C71    C     0.48892   0.05601   0.26075   0.00000  Uiso   1.00
C72    C     0.51038   0.27811   0.23981   0.00000  Uiso   1.00
C73    C     0.41151   0.18563   0.48705   0.00000  Uiso   1.00
C74    C     0.51899   0.14848   0.12934   0.00000  Uiso   1.00
C75    C     0.48232   0.18497   0.37079   0.00000  Uiso   1.00
C76    C     0.58082   0.13834   0.01026   0.00000  Uiso   1.00
C77    C     0.52787   0.14306   0.08104   0.00000  Uiso   1.00
C78    C     0.42833   0.19444   0.44257   0.00000  Uiso   1.00
C79    C     0.55337   0.00806   0.19944   0.00000  Uiso   1.00
C80    C     0.40013   0.11236   0.04530   0.00000  Uiso   1.00
C81    C     0.35714   0.19874   0.19432   0.00000  Uiso   1.00
C82    C     0.43618   0.16996   0.01026   0.00000  Uiso   1.00
C83    C     0.48116   0.16858   0.49044   0.00000  Uiso   1.00
C84    C     0.49804   0.17783   0.44457   0.00000  Uiso   1.00
C85    C     0.50986   0.15728   0.01347   0.00000  Uiso   1.00
C86    C     0.55265   0.15136   0.48915   0.00000  Uiso   1.00
C87    C     0.56819   0.16131   0.44477   0.00000  Uiso   1.00
C88    C     0.54205   0.17642   0.42366   0.00000  Uiso   1.00
H89    H     0.59120   0.12616   0.07243   0.00000  Uiso   1.00
H90    H     0.57632   0.32161   0.17930   0.00000  Uiso   1.00
H91    H     0.42732   0.09420   0.02961   0.00000  Uiso   1.00
H92    H     0.37625   0.10739   0.02498   0.00000  Uiso   1.00
H93    H     0.38376   0.10017   0.07856   0.00000  Uiso   1.00
H94    H     0.34375   0.21096   0.17075   0.00000  Uiso   1.00
H95    H     0.65188   0.14321   0.29113   0.00000  Uiso   1.00
H96    H     0.45955   0.33035   0.28762   0.00000  Uiso   1.00
H97    H     0.60144   0.15917   0.42679   0.00000  Uiso   1.00
H98    H     0.61321   0.13335   0.49168   0.00000  Uiso   1.00
H99    H     0.47035   0.16516   0.08204   0.00000  Uiso   1.00
H100   H     0.40699   0.20297   0.42471   0.00000  Uiso   1.00
H101   H     0.37788   0.18803   0.00284   0.00000  Uiso   1.00
H102   H     0.55710   0.18719   0.39058   0.00000  Uiso   1.00
O103   O     0.50000   0.16667   0.25000   0.00000  Uiso   1.00
O104   O     0.48784   0.12637   0.15458   0.00000  Uiso   1.00
O105   O     0.46274   0.20391   0.34968   0.00000  Uiso   1.00
O106   O     0.54157   0.17759   0.14606   0.00000  Uiso   1.00
O107   O     0.50785   0.15880   0.34968   0.00000  Uiso   1.00
O108   O     0.55938   0.04488   0.19194   0.00000  Uiso   1.00
O109   O     0.41483   0.15507   0.05153   0.00000  Uiso   1.00
O110   O     0.39620   0.20397   0.18795   0.00000  Uiso   1.00
O111   O     0.51264   0.08019   0.28214   0.00000  Uiso   1.00
O112   O     0.47965   0.26085   0.27013   0.00000  Uiso   1.00
O113   O     0.40745   0.13291   0.23413   0.00000  Uiso   1.00
O114   O     0.60026   0.19272   0.21361   0.00000  Uiso   1.00
O115   O     0.40405   0.18878   0.28213   0.00000  Uiso   1.00
O116   O     0.58824   0.15226   0.27014   0.00000  Uiso   1.00
O117   O     0.47093   0.06944   0.23413   0.00000  Uiso   1.00
O118   O     0.53678   0.25620   0.21360   0.00000  Uiso   1.00
Zn119  Zn    0.52672   0.13994   0.28734   0.00000  Uiso   1.00
Zn120  Zn    0.46713   0.12458   0.21875   0.00000  Uiso   1.00
Zn121  Zn    0.54389   0.19775   0.20657   0.00000  Uiso   1.00
Zn122  Zn    0.46226   0.20439   0.28733   0.00000  Uiso   1.00
C123   C     0.71938   0.15930   0.26057   0.00000  Uiso   1.00
C124   C     0.83229   0.15450   0.06023   0.00000  Uiso   1.00
C125   C     0.90171   0.13410   0.05606   0.00000  Uiso   1.00
C126   C     0.94776   0.17382   0.23939   0.00000  Uiso   1.00
C127   C     0.80385   0.18801   0.42018   0.00000  Uiso   1.00
C128   C     0.99430   0.17644   0.23322   0.00000  Uiso   1.00
C129   C     0.67452   0.15838   0.26295   0.00000  Uiso   1.00
C130   C     0.84906   0.32296   0.23489   0.00000  Uiso   1.00
C131   C     0.81982   0.01177   0.26260   0.00000  Uiso   1.00
C132   C     0.82225   0.05601   0.26075   0.00000  Uiso   1.00
C133   C     0.84372   0.27811   0.23981   0.00000  Uiso   1.00
C134   C     0.74485   0.18563   0.48705   0.00000  Uiso   1.00
C135   C     0.85233   0.14848   0.12934   0.00000  Uiso   1.00
C136   C     0.81566   0.18497   0.37079   0.00000  Uiso   1.00
C137   C     0.91415   0.13834   0.01026   0.00000  Uiso   1.00
C138   C     0.86120   0.14306   0.08104   0.00000  Uiso   1.00
C139   C     0.76166   0.19444   0.44257   0.00000  Uiso   1.00
C140   C     0.88670   0.00806   0.19944   0.00000  Uiso   1.00
C141   C     0.73346   0.11236   0.04530   0.00000  Uiso   1.00
C142   C     0.69047   0.19874   0.19432   0.00000  Uiso   1.00
C143   C     0.76951   0.16996   0.01026   0.00000  Uiso   1.00
C144   C     0.81449   0.16858   0.49044   0.00000  Uiso   1.00
C145   C     0.83137   0.17783   0.44457   0.00000  Uiso   1.00
C146   C     0.84319   0.15728   0.01347   0.00000  Uiso   1.00
C147   C     0.88599   0.15136   0.48915   0.00000  Uiso   1.00
C148   C     0.90153   0.16131   0.44477   0.00000  Uiso   1.00
C149   C     0.87539   0.17642   0.42366   0.00000  Uiso   1.00
H150   H     0.92454   0.12616   0.07243   0.00000  Uiso   1.00
H151   H     0.90965   0.32161   0.17930   0.00000  Uiso   1.00
H152   H     0.76066   0.09420   0.02961   0.00000  Uiso   1.00
H153   H     0.70958   0.10739   0.02498   0.00000  Uiso   1.00
H154   H     0.71710   0.10017   0.07856   0.00000  Uiso   1.00
H155   H     0.67708   0.21096   0.17075   0.00000  Uiso   1.00
H156   H     0.98521   0.14321   0.29113   0.00000  Uiso   1.00
H157   H     0.79288   0.33035   0.28762   0.00000  Uiso   1.00
H158   H     0.93478   0.15917   0.42679   0.00000  Uiso   1.00
H159   H     0.94655   0.13335   0.49168   0.00000  Uiso   1.00
H160   H     0.80368   0.16516   0.08204   0.00000  Uiso   1.00
H161   H     0.74032   0.20297   0.42471   0.00000  Uiso   1.00
H162   H     0.71121   0.18803   0.00284   0.00000  Uiso   1.00
H163   H     0.89043   0.18719   0.39058   0.00000  Uiso   1.00
O164   O     0.83333   0.16667   0.25000   0.00000  Uiso   1.00
O165   O     0.82118   0.12637   0.15458   0.00000  Uiso   1.00
O166   O     0.79607   0.20391   0.34968   0.00000  Uiso   1.00
O167   O     0.87491   0.17759   0.14606   0.00000  Uiso   1.00
O168   O     0.84118   0.15880   0.34968   0.00000  Uiso   1.00
O169   O     0.89271   0.04488   0.19194   0.00000  Uiso   1.00
O170   O     0.74816   0.15507   0.05153   0.00000  Uiso   1.00
O171   O     0.72953   0.20397   0.18795   0.00000  Uiso   1.00
O172   O     0.84597   0.08019   0.28214   0.00000  Uiso   1.00
O173   O     0.81298   0.26085   0.27013   0.00000  Uiso   1.00
O174   O     0.74078   0.13291   0.23413   0.00000  Uiso   1.00
O175   O     0.93360   0.19272   0.21361   0.00000  Uiso   1.00
O176   O     0.73738   0.18878   0.28213   0.00000  Uiso   1.00
O177   O     0.92158   0.15226   0.27014   0.00000  Uiso   1.00
O178   O     0.80426   0.06944   0.23413   0.00000  Uiso   1.00
O179   O     0.87012   0.25620   0.21360   0.00000  Uiso   1.00
Zn180  Zn    0.86005   0.13994   0.28734   0.00000  Uiso   1.00
Zn181  Zn    0.80046   0.12458   0.21875   0.00000  Uiso   1.00
Zn182  Zn    0.87723   0.19775   0.20657   0.00000  Uiso   1.00
Zn183  Zn    0.79560   0.20439   0.28733   0.00000  Uiso   1.00
C184   C     0.05271   0.49264   0.26057   0.00000  Uiso   1.00
C185   C     0.16562   0.48783   0.06023   0.00000  Uiso   1.00
C186   C     0.23505   0.46744   0.05606   0.00000  Uiso   1.00
C187   C     0.28109   0.50716   0.23939   0.00000  Uiso   1.00
C188   C     0.13718   0.52134   0.42018   0.00000  Uiso   1.00
C189   C     0.32763   0.50977   0.23322   0.00000  Uiso   1.00
C190   C     0.00785   0.49171   0.26295   0.00000  Uiso   1.00
C191   C     0.18240   0.65630   0.23489   0.00000  Uiso   1.00
C192   C     0.15315   0.34511   0.26260   0.00000  Uiso   1.00
C193   C     0.15558   0.38935   0.26075   0.00000  Uiso   1.00
C194   C     0.17705   0.61144   0.23981   0.00000  Uiso   1.00
C195   C     0.07818   0.51896   0.48705   0.00000  Uiso   1.00
C196   C     0.18566   0.48182   0.12934   0.00000  Uiso   1.00
C197   C     0.14899   0.51830   0.37079   0.00000  Uiso   1.00
C198   C     0.24749   0.47167   0.01026   0.00000  Uiso   1.00
C199   C     0.19454   0.47640   0.08104   0.00000  Uiso   1.00
C200   C     0.09499   0.52777   0.44257   0.00000  Uiso   1.00
C201   C     0.22003   0.34139   0.19944   0.00000  Uiso   1.00
C202   C     0.06679   0.44569   0.04530   0.00000  Uiso   1.00
C203   C     0.02381   0.53207   0.19432   0.00000  Uiso   1.00
C204   C     0.10285   0.50330   0.01026   0.00000  Uiso   1.00
C205   C     0.14782   0.50191   0.49044   0.00000  Uiso   1.00
C206   C     0.16471   0.51116   0.44457   0.00000  Uiso   1.00
C207   C     0.17652   0.49061   0.01347   0.00000  Uiso   1.00
C208   C     0.21932   0.48470   0.48915   0.00000  Uiso   1.00
C209   C     0.23486   0.49464   0.44477   0.00000  Uiso   1.00
C210   C     0.20872   0.50976   0.42366   0.00000  Uiso   1.00
H211   H     0.25787   0.45949   0.07243   0.00000  Uiso   1.00
H212   H     0.24299   0.65494   0.17930   0.00000  Uiso   1.00
H213   H     0.09399   0.42753   0.02961   0.00000  Uiso   1.00
H214   H     0.04292   0.44073   0.02498   0.00000  Uiso   1.00
H215   H     0.05043   0.43350   0.07856   0.00000  Uiso   1.00
H216   H     0.01042   0.54430   0.17075   0.00000  Uiso   1.00
H217   H     0.31854   0.47654   0.29113   0.00000  Uiso   1.00
H218   H     0.12622   0.66369   0.28762   0.00000  Uiso   1.00
H219   H     0.26811   0.49250   0.42679   0.00000  Uiso   1.00
H220   H     0.27988   0.46668   0.49168   0.00000  Uiso   1.00
H221   H     0.13702   0.49849   0.08204   0.00000  Uiso   1.00
H222   H     0.07365   0.53630   0.42471   0.00000  Uiso   1.00
H223   H     0.04454   0.52137   0.00284   0.00000  Uiso   1.00
H224   H     0.22377   0.52053   0.39058   0.00000  Uiso   1.00
O225   O     0.16667   0.50000   0.25000   0.00000  Uiso   1.00
O226   O     0.15451   0.45970   0.15458   0.00000  Uiso   1.00
O227   O     0.12940   0.53724   0.34968   0.00000  Uiso   1.00
O228   O     0.20824   0.51092   0.14606   0.00000  Uiso   1.00
O229   O     0.17451   0.49213   0.34968   0.00000  Uiso   1.00
O230   O     0.22605   0.37822   0.19194   0.00000  Uiso   1.00
O231   O     0.08150   0.48840   0.05153   0.00000  Uiso   1.00
O232   O     0.06287   0.53730   0.18795   0.00000  Uiso   1.00
O233   O     0.17930   0.41352   0.28214   0.00000  Uiso   1.00
O234   O     0.14632   0.59418   0.27013   0.00000  Uiso   1.00
O235   O     0.07412   0.46625   0.23413   0.00000  Uiso   1.00
O236   O     0.26693   0.52605   0.21361   0.00000  Uiso   1.00
O237   O     0.07071   0.52211   0.28213   0.00000  Uiso   1.00
O238   O     0.25491   0.48559   0.27014   0.00000  Uiso   1.00
O239   O     0.13760   0.40277   0.23413   0.00000  Uiso   1.00
O240   O     0.20345   0.58953   0.21360   0.00000  Uiso   1.00
Zn241  Zn    0.19338   0.47327   0.28734   0.00000  Uiso   1.00
Zn242  Zn    0.13379   0.45791   0.21875   0.00000  Uiso   1.00
Zn243  Zn    0.21056   0.53109   0.20657   0.00000  Uiso   1.00
Zn244  Zn    0.12893   0.53773   0.28733   0.00000  Uiso   1.00
C245   C     0.38604   0.49264   0.26057   0.00000  Uiso   1.00
C246   C     0.49896   0.48783   0.06023   0.00000  Uiso   1.00
C247   C     0.56838   0.46744   0.05606   0.00000  Uiso   1.00
C248   C     0.61443   0.50716   0.23939   0.00000  Uiso   1.00
C249   C     0.47052   0.52134   0.42018   0.00000  Uiso   1.00
C250   C     0.66097   0.50977   0.23322   0.00000  Uiso   1.00
C251   C     0.34119   0.49171   0.26295   0.00000  Uiso   1.00
C252   C     0.51573   0.65630   0.23489   0.00000  Uiso   1.00
C253   C     0.48649   0.34511   0.26260   0.00000  Uiso   1.00
C254   C     0.48892   0.38935   0.26075   0.00000  Uiso   1.00
C255   C     0.51038   0.61144   0.23981   0.00000  Uiso   1.00
C256   C     0.41151   0.51896   0.48705   0.00000  Uiso   1.00
C257   C     0.51899   0.48182   0.12934   0.00000  Uiso   1.00
C258   C     0.48232   0.51830   0.37079   0.00000  Uiso   1.00
C259   C     0.58082   0.47167   0.01026   0.00000  Uiso   1.00
C260   C     0.52787   0.47640   0.08104   0.00000  Uiso   1.00
C261   C     0.42833   0.52777   0.44257   0.00000  Uiso   1.00
C262   C     0.55337   0.34139   0.19944   0.00000  Uiso   1.00
C263   C     0.40013   0.44569   0.04530   0.00000  Uiso   1.00
C264   C     0.35714   0.53207   0.19432   0.00000  Uiso   1.00
C265   C     0.43618   0.50330   0.01026   0.00000  Uiso   1.00
C266   C     0.48116   0.50191   0.49044   0.00000  Uiso   1.00
C267   C     0.49804   0.51116   0.44457   0.00000  Uiso   1.00
C268   C     0.50986   0.49061   0.01347   0.00000  Uiso   1.00
C269   C     0.55265   0.48470   0.48915   0.00000  Uiso   1.00
C270   C     0.56819   0.49464   0.44477   0.00000  Uiso   1.00
C271   C     0.54205   0.50976   0.42366   0.00000  Uiso   1.00
H272   H     0.59120   0.45949   0.07243   0.00000  Uiso   1.00
H273   H     0.57632   0.65494   0.17930   0.00000  Uiso   1.00
H274   H     0.42732   0.42753   0.02961   0.00000  Uiso   1.00
H275   H     0.37625   0.44073   0.02498   0.00000  Uiso   1.00
H276   H     0.38376   0.43350   0.07856   0.00000  Uiso   1.00
H277   H     0.34375   0.54430   0.17075   0.00000  Uiso   1.00
H278   H     0.65188   0.47654   0.29113   0.00000  Uiso   1.00
H279   H     0.45955   0.66369   0.28762   0.00000  Uiso   1.00
H280   H     0.60144   0.49250   0.42679   0.00000  Uiso   1.00
H281   H     0.61321   0.46668   0.49168   0.00000  Uiso   1.00
H282   H     0.47035   0.49849   0.08204   0.00000  Uiso   1.00
H283   H     0.40699   0.53630   0.42471   0.00000  Uiso   1.00
H284   H     0.37788   0.52137   0.00284   0.00000  Uiso   1.00
H285   H     0.55710   0.52053   0.39058   0.00000  Uiso   1.00
O286   O     0.50000   0.50000   0.25000   0.00000  Uiso   1.00
O287   O     0.48784   0.45970   0.15458   0.00000  Uiso   1.00
O288   O     0.46274   0.53724   0.34968   0.00000  Uiso   1.00
O289   O     0.54157   0.51092   0.14606   0.00000  Uiso   1.00
O290   O     0.50785   0.49213   0.34968   0.00000  Uiso   1.00
O291   O     0.55938   0.37822   0.19194   0.00000  Uiso   1.00
O292   O     0.41483   0.48840   0.05153   0.00000  Uiso   1.00
O293   O     0.39620   0.53730   0.18795   0.00000  Uiso   1.00
O294   O     0.51264   0.41352   0.28214   0.00000  Uiso   1.00
O295   O     0.47965   0.59418   0.27013   0.00000  Uiso   1.00
O296   O     0.40745   0.46625   0.23413   0.00000  Uiso   1.00
O297   O     0.60026   0.52605   0.21361   0.00000  Uiso   1.00
O298   O     0.40405   0.52211   0.28213   0.00000  Uiso   1.00
O299   O     0.58824   0.48559   0.27014   0.00000  Uiso   1.00
O300   O     0.47093   0.40277   0.23413   0.00000  Uiso   1.00
O301   O     0.53678   0.58953   0.21360   0.00000  Uiso   1.00
Zn302  Zn    0.52672   0.47327   0.28734   0.00000  Uiso   1.00
Zn303  Zn    0.46713   0.45791   0.21875   0.00000  Uiso   1.00
Zn304  Zn    0.54389   0.53109   0.20657   0.00000  Uiso   1.00
Zn305  Zn    0.46226   0.53773   0.28733   0.00000  Uiso   1.00
C306   C     0.71938   0.49264   0.26057   0.00000  Uiso   1.00
C307   C     0.83229   0.48783   0.06023   0.00000  Uiso   1.00
C308   C     0.90171   0.46744   0.05606   0.00000  Uiso   1.00
C309   C     0.94776   0.50716   0.23939   0.00000  Uiso   1.00
C310   C     0.80385   0.52134   0.42018   0.00000  Uiso   1.00
C311   C     0.99430   0.50977   0.23322   0.00000  Uiso   1.00
C312   C     0.67452   0.49171   0.26295   0.00000  Uiso   1.00
C313   C     0.84906   0.65630   0.23489   0.00000  Uiso   1.00
C314   C     0.81982   0.34511   0.26260   0.00000  Uiso   1.00
C315   C     0.82225   0.38935   0.26075   0.00000  Uiso   1.00
C316   C     0.84372   0.61144   0.23981   0.00000  Uiso   1.00
C317   C     0.74485   0.51896   0.48705   0.00000  Uiso   1.00
C318   C     0.85233   0.48182   0.12934   0.00000  Uiso   1.00
C319   C     0.81566   0.51830   0.37079   0.00000  Uiso   1.00
C320   C     0.91415   0.47167   0.01026   0.00000  Uiso   1.00
C321   C     0.86120   0.47640   0.08104   0.00000  Uiso   1.00
C322   C     0.76166   0.52777   0.44257   0.00000  Uiso   1.00
C323   C     0.88670   0.34139   0.19944   0.00000  Uiso   1.00
C324   C     0.73346   0.44569   0.04530   0.00000  Uiso   1.00
C325   C     0.69047   0.53207   0.19432   0.00000  Uiso   1.00
C326   C     0.76951   0.50330   0.01026   0.00000  Uiso   1.00
C327   C     0.81449   0.50191   0.49044   0.00000  Uiso   1.00
C328   C     0.83137   0.51116   0.44457   0.00000  Uiso   1.00
C329   C     0.84319   0.49061   0.01347   0.00000  Uiso   1.00
C330   C     0.88599   0.48470   0.48915   0.00000  Uiso   1.00
C331   C     0.90153   0.49464   0.44477   0.00000  Uiso   1.00
C332   C     0.87539   0.50976   0.42366   0.00000  Uiso   1.00
H333   H     0.92454   0.45949   0.07243   0.00000  Uiso   1.00
H334   H     0.90965   0.65494   0.17930   0.00000  Uiso   1.00
H335   H     0.76066   0.42753   0.02961   0.00000  Uiso   1.00
H336   H     0.70958   0.44073   0.02498   0.00000  Uiso   1.00
H337   H     0.71710   0.43350   0.07856   0.00000  Uiso   1.00
H338   H     0.67708   0.54430   0.17075   0.00000  Uiso   1.00
H339   H     0.98521   0.47654   0.29113   0.00000  Uiso   1.00
H340   H     0.79288   0.66369   0.28762   0.00000  Uiso   1.00
H341   H     0.93478   0.49250   0.42679   0.00000  Uiso   1.00
H342   H     0.94655   0.46668   0.49168   0.00000  Uiso   1.00
H343   H     0.80368   0.49849   0.08204   0.00000  Uiso   1.00
H344   H     0.74032   0.53630   0.42471   0.00000  Uiso   1.00
H345   H     0.71121   0.52137   0.00284   0.00000  Uiso   1.00
H346   H     0.89043   0.52053   0.39058   0.00000  Uiso   1.00
O347   O     0.83333   0.50000   0.25000   0.00000  Uiso   1.00
O348   O     0.82118   0.45970   0.15458   0.00000  Uiso   1.00
O349   O     0.79607   0.53724   0.34968   0.00000  Uiso   1.00
O350   O     0.87491   0.51092   0.14606   0.00000  Uiso   1.00
O351   O     0.84118   0.49213   0.34968   0.00000  Uiso   1.00
O352   O     0.89271   0.37822   0.19194   0.00000  Uiso   1.00
O353   O     0.74816   0.48840   0.05153   0.00000  Uiso   1.00
O354   O     0.72953   0.53730   0.18795   0.00000  Uiso   1.00
O355   O     0.84597   0.41352   0.28214   0.00000  Uiso   1.00
O356   O     0.81298   0.59418   0.27013   0.00000  Uiso   1.00
O357   O     0.74078   0.46625   0.23413   0.00000  Uiso   1.00
O358   O     0.93360   0.52605   0.21361   0.00000  Uiso   1.00
O359   O     0.73738   0.52211   0.28213   0.00000  Uiso   1.00
O360   O     0.92158   0.48559   0.27014   0.00000  Uiso   1.00
O361   O     0.80426   0.40277   0.23413   0.00000  Uiso   1.00
O362   O     0.87012   0.58953   0.21360   0.00000  Uiso   1.00
Zn363  Zn    0.86005   0.47327   0.28734   0.00000  Uiso   1.00
Zn364  Zn    0.80046   0.45791   0.21875   0.00000  Uiso   1.00
Zn365  Zn    0.87723   0.53109   0.20657   0.00000  Uiso   1.00
Zn366  Zn    0.79560   0.53773   0.28733   0.00000  Uiso   1.00
C367   C     0.05271   0.82597   0.26057   0.00000  Uiso   1.00
C368   C     0.16562   0.82116   0.06023   0.00000  Uiso   1.00
C369   C     0.23505   0.80077   0.05606   0.00000  Uiso   1.00
C370   C     0.28109   0.84049   0.23939   0.00000  Uiso   1.00
C371   C     0.13718   0.85468   0.42018   0.00000  Uiso   1.00
C372   C     0.32763   0.84310   0.23322   0.00000  Uiso   1.00
C373   C     0.00785   0.82504   0.26295   0.00000  Uiso   1.00
C374   C     0.18240   0.98963   0.23489   0.00000  Uiso   1.00
C375   C     0.15315   0.67844   0.26260   0.00000  Uiso   1.00
C376   C     0.15558   0.72268   0.26075   0.00000  Uiso   1.00
C377   C     0.17705   0.94477   0.23981   0.00000  Uiso   1.00
C378   C     0.07818   0.85229   0.48705   0.00000  Uiso   1.00
C379   C     0.18566   0.81515   0.12934   0.00000  Uiso   1.00
C380   C     0.14899   0.85163   0.37079   0.00000  Uiso   1.00
C381   C     0.24749   0.80501   0.01026   0.00000  Uiso   1.00
C382   C     0.19454   0.80973   0.08104   0.00000  Uiso   1.00
C383   C     0.09499   0.86110   0.44257   0.00000  Uiso   1.00
C384   C     0.22003   0.67472   0.19944   0.00000  Uiso   1.00
C385   C     0.06679   0.77903   0.04530   0.00000  Uiso   1.00
C386   C     0.02381   0.86540   0.19432   0.00000  Uiso   1.00
C387   C     0.10285   0.83663   0.01026   0.00000  Uiso   1.00
C388   C     0.14782   0.83524   0.49044   0.00000  Uiso   1.00
C389   C     0.16471   0.84449   0.44457   0.00000  Uiso   1.00
C390   C     0.17652   0.82395   0.01347   0.00000  Uiso   1.00
C391   C     0.21932   0.81803   0.48915   0.00000  Uiso   1.00
C392   C     0.23486   0.82798   0.44477   0.00000  Uiso   1.00
C393   C     0.20872   0.84309   0.42366   0.00000  Uiso   1.00
H394   H     0.25787   0.79282   0.07243   0.00000  Uiso   1.00
H395   H     0.24299   0.98828   0.17930   0.00000  Uiso   1.00
H396   H     0.09399   0.76087   0.02961   0.00000  Uiso   1.00
H397   H     0.04292   0.77406   0.02498   0.00000  Uiso   1.00
H398   H     0.05043   0.76684   0.07856   0.00000  Uiso   1.00
H399   H     0.01042   0.87763   0.17075   0.00000  Uiso   1.00
H400   H     0.31854   0.80988   0.29113   0.00000  Uiso   1.00
H401   H     0.12622   0.99702   0.28762   0.00000  Uiso   1.00
H402   H     0.26811   0.82584   0.42679   0.00000  Uiso   1.00
H403   H     0.27988   0.80002   0.49168   0.00000  Uiso   1.00
H404   H     0.13702   0.83182   0.08204   0.00000  Uiso   1.00
H405   H     0.07365   0.86963   0.42471   0.00000  Uiso   1.00
H406   H     0.04454   0.85470   0.00284   0.00000  Uiso   1.00
H407   H     0.22377   0.85386   0.39058   0.00000  Uiso   1.00
O408   O     0.16667   0.83333   0.25000   0.00000  Uiso   1.00
O409   O     0.15451   0.79304   0.15458   0.00000  Uiso   1.00
O410   O     0.12940   0.87058   0.34968   0.00000  Uiso   1.00
O411   O     0.20824   0.84425   0.14606   0.00000  Uiso   1.00
O412   O     0.17451   0.82546   0.34968   0.00000  Uiso   1.00
O413   O     0.22605   0.71155   0.19194   0.00000  Uiso   1.00
O414   O     0.08150   0.82173   0.05153   0.00000  Uiso   1.00
O415   O     0.06287   0.87063   0.18795   0.00000  Uiso   1.00
O416   O     0.17930   0.74686   0.28214   0.00000  Uiso   1.00
O417   O     0.14632   0.92751   0.27013   0.00000  Uiso   1.00
O418   O     0.07412   0.79958   0.23413   0.00000  Uiso   1.00
O419   O     0.26693   0.85939   0.21361   0.00000  Uiso   1.00
O420   O     0.07071   0.85544   0.28213   0.00000  Uiso   1.00
O421   O     0.25491   0.81892   0.27014   0.00000  Uiso   1.00
O422   O     0.13760   0.73610   0.23413   0.00000  Uiso   1.00
O423   O     0.20345   0.92286   0.21360   0.00000  Uiso   1.00
Zn424  Zn    0.19338   0.80661   0.28734   0.00000  Uiso   1.00
Zn425  Zn    0.13379   0.79124   0.21875   0.00000  Uiso   1.00
Zn426  Zn    0.21056   0.86442   0.20657   0.00000  Uiso   1.00
Zn427  Zn    0.12893   0.87106   0.28733   0.00000  Uiso   1.00
C428   C     0.38604   0.82597   0.26057   0.00000  Uiso   1.00
C429   C     0.49896   0.82116   0.06023   0.00000  Uiso   1.00
C430   C     0.56838   0.80077   0.05606   0.00000  Uiso   1.00
C431   C     0.61443   0.84049   0.23939   0.00000  Uiso   1.00
C432   C     0.47052   0.85468   0.42018   0.00000  Uiso   1.00
C433   C     0.66097   0.84310   0.23322   0.00000  Uiso   1.00
C434   C     0.34119   0.82504   0.26295   0.00000  Uiso   1.00
C435   C     0.51573   0.98963   0.23489   0.00000  Uiso   1.00
C436   C     0.48649   0.67844   0.26260   0.00000  Uiso   1.00
C437   C     0.48892   0.72268   0.26075   0.00000  Uiso   1.00
C438   C     0.51038   0.94477   0.23981   0.00000  Uiso   1.00
C439   C     0.41151   0.85229   0.48705   0.00000  Uiso   1.00
C440   C     0.51899   0.81515   0.12934   0.00000  Uiso   1.00
C441   C     0.48232   0.85163   0.37079   0.00000  Uiso   1.00
C442   C     0.58082   0.80501   0.01026   0.00000  Uiso   1.00
C443   C     0.52787   0.80973   0.08104   0.00000  Uiso   1.00
C444   C     0.42833   0.86110   0.44257   0.00000  Uiso   1.00
C445   C     0.55337   0.67472   0.19944   0.00000  Uiso   1.00
C446   C     0.40013   0.77903   0.04530   0.00000  Uiso   1.00
C447   C     0.35714   0.86540   0.19432   0.00000  Uiso   1.00
C448   C     0.43618   0.83663   0.01026   0.00000  Uiso   1.00
C449   C     0.48116   0.83524   0.49044   0.00000  Uiso   1.00
C450   C     0.49804   0.84449   0.44457   0.00000  Uiso   1.00
C451   C     0.50986   0.82395   0.01347   0.00000  Uiso   1.00
C452   C     0.55265   0.81803   0.48915   0.00000  Uiso   1.00
C453   C     0.56819   0.82798   0.44477   0.00000  Uiso   1.00
C454   C     0.54205   0.84309   0.42366   0.00000  Uiso   1.00
H455   H     0.59120   0.79282   0.07243   0.00000  Uiso   1.00
H456   H     0.57632   0.98828   0.17930   0.00000  Uiso   1.00
H457   H     0.42732   0.76087   0.02961   0.00000  Uiso   1.00
H458   H     0.37625   0.77406   0.02498   0.00000  Uiso   1.00
H459   H     0.38376   0.76684   0.07856   0.00000  Uiso   1.00
H460   H     0.34375   0.87763   0.17075   0.00000  Uiso   1.00
H461   H     0.65188   0.80988   0.29113   0.00000  Uiso   1.00
H462   H     0.45955   0.99702   0.28762   0.00000  Uiso   1.00
H463   H     0.60144   0.82584   0.42679   0.00000  Uiso   1.00
H464   H     0.61321   0.80002   0.49168   0.00000  Uiso   1.00
H465   H     0.47035   0.83182   0.08204   0.00000  Uiso   1.00
H466   H     0.40699   0.86963   0.42471   0.00000  Uiso   1.00
H467   H     0.37788   0.85470   0.00284   0.00000  Uiso   1.00
H468   H     0.55710   0.85386   0.39058   0.00000  Uiso   1.00
O469   O     0.50000   0.83333   0.25000   0.00000  Uiso   1.00
O470   O     0.48784   0.79304   0.15458   0.00000  Uiso   1.00
O471   O     0.46274   0.87058   0.34968   0.00000  Uiso   1.00
O472   O     0.54157   0.84425   0.14606   0.00000  Uiso   1.00
O473   O     0.50785   0.82546   0.34968   0.00000  Uiso   1.00
O474   O     0.55938   0.71155   0.19194   0.00000  Uiso   1.00
O475   O     0.41483   0.82173   0.05153   0.00000  Uiso   1.00
O476   O     0.39620   0.87063   0.18795   0.00000  Uiso   1.00
O477   O     0.51264   0.74686   0.28214   0.00000  Uiso   1.00
O478   O     0.47965   0.92751   0.27013   0.00000  Uiso   1.00
O479   O     0.40745   0.79958   0.23413   0.00000  Uiso   1.00
O480   O     0.60026   0.85939   0.21361   0.00000  Uiso   1.00
O481   O     0.40405   0.85544   0.28213   0.00000  Uiso   1.00
O482   O     0.58824   0.81892   0.27014   0.00000  Uiso   1.00
O483   O     0.47093   0.73610   0.23413   0.00000  Uiso   1.00
O484   O     0.53678   0.92286   0.21360   0.00000  Uiso   1.00
Zn485  Zn    0.52672   0.80661   0.28734   0.00000  Uiso   1.00
Zn486  Zn    0.46713   0.79124   0.21875   0.00000  Uiso   1.00
Zn487  Zn    0.54389   0.86442   0.20657   0.00000  Uiso   1.00
Zn488  Zn    0.46226   0.87106   0.28733   0.00000  Uiso   1.00
C489   C     0.71938   0.82597   0.26057   0.00000  Uiso   1.00
C490   C     0.83229   0.82116   0.06023   0.00000  Uiso   1.00
C491   C     0.90171   0.80077   0.05606   0.00000  Uiso   1.00
C492   C     0.94776   0.84049   0.23939   0.00000  Uiso   1.00
C493   C     0.80385   0.85468   0.42018   0.00000  Uiso   1.00
C494   C     0.99430   0.84310   0.23322   0.00000  Uiso   1.00
C495   C     0.67452   0.82504   0.26295   0.00000  Uiso   1.00
C496   C     0.84906   0.98963   0.23489   0.00000  Uiso   1.00
C497   C     0.81982   0.67844   0.26260   0.00000  Uiso   1.00
C498   C     0.82225   0.72268   0.26075   0.00000  Uiso   1.00
C499   C     0.84372   0.94477   0.23981   0.00000  Uiso   1.00
C500   C     0.74485   0.85229   0.48705   0.00000  Uiso   1.00
C501   C     0.85233   0.81515   0.12934   0.00000  Uiso   1.00
C502   C     0.81566   0.85163   0.37079   0.00000  Uiso   1.00
C503   C     0.91415   0.80501   0.01026   0.00000  Uiso   1.00
C504   C     0.86120   0.80973   0.08104   0.00000  Uiso   1.00
C505   C     0.76166   0.86110   0.44257   0.00000  Uiso   1.00
C506   C     0.88670   0.67472   0.19944   0.00000  Uiso   1.00
C507   C     0.73346   0.77903   0.04530   0.00000  Uiso   1.00
C508   C     0.69047   0.86540   0.19432   0.00000  Uiso   1.00
C509   C     0.76951   0.83663   0.01026   0.00000  Uiso   1.00
C510   C     0.81449   0.83524   0.49044   0.00000  Uiso   1.00
C511   C     0.83137   0.84449   0.44457   0.00000  Uiso   1.00
C512   C     0.84319   0.82395   0.01347   0.00000  Uiso   1.00
C513   C     0.88599   0.81803   0.48915   0.00000  Uiso   1.00
C514   C     0.90153   0.82798   0.44477   0.00000  Uiso   1.00
C515   C     0.87539   0.84309   0.42366   0.00000  Uiso   1.00
H516   H     0.92454   0.79282   0.07243   0.00000  Uiso   1.00
H517   H     0.90965   0.98828   0.17930   0.00000  Uiso   1.00
H518   H     0.76066   0.76087   0.02961   0.00000  Uiso   1.00
H519   H     0.70958   0.77406   0.02498   0.00000  Uiso   1.00
H520   H     0.71710   0.76684   0.07856   0.00000  Uiso   1.00
H521   H     0.67708   0.87763   0.17075   0.00000  Uiso   1.00
H522   H     0.98521   0.80988   0.29113   0.00000  Uiso   1.00
H523   H     0.79288   0.99702   0.28762   0.00000  Uiso   1.00
H524   H     0.93478   0.82584   0.42679   0.00000  Uiso   1.00
H525   H     0.94655   0.80002   0.49168   0.00000  Uiso   1.00
H526   H     0.80368   0.83182   0.08204   0.00000  Uiso   1.00
H527   H     0.74032   0.86963   0.42471   0.00000  Uiso   1.00
H528   H     0.71121   0.85470   0.00284   0.00000  Uiso   1.00
H529   H     0.89043   0.85386   0.39058   0.00000  Uiso   1.00
O530   O     0.83333   0.83333   0.25000   0.00000  Uiso   1.00
O531   O     0.82118   0.79304   0.15458   0.00000  Uiso   1.00
O532   O     0.79607   0.87058   0.34968   0.00000  Uiso   1.00
O533   O     0.87491   0.84425   0.14606   0.00000  Uiso   1.00
O534   O     0.84118   0.82546   0.34968   0.00000  Uiso   1.00
O535   O     0.89271   0.71155   0.19194   0.00000  Uiso   1.00
O536   O     0.74816   0.82173   0.05153   0.00000  Uiso   1.00
O537   O     0.72953   0.87063   0.18795   0.00000  Uiso   1.00
O538   O     0.84597   0.74686   0.28214   0.00000  Uiso   1.00
O539   O     0.81298   0.92751   0.27013   0.00000  Uiso   1.00
O540   O     0.74078   0.79958   0.23413   0.00000  Uiso   1.00
O541   O     0.93360   0.85939   0.21361   0.00000  Uiso   1.00
O542   O     0.73738   0.85544   0.28213   0.00000  Uiso   1.00
O543   O     0.92158   0.81892   0.27014   0.00000  Uiso   1.00
O544   O     0.80426   0.73610   0.23413   0.00000  Uiso   1.00
O545   O     0.87012   0.92286   0.21360   0.00000  Uiso   1.00
Zn546  Zn    0.86005   0.80661   0.28734   0.00000  Uiso   1.00
Zn547  Zn    0.80046   0.79124   0.21875   0.00000  Uiso   1.00
Zn548  Zn    0.87723   0.86442   0.20657   0.00000  Uiso   1.00
Zn549  Zn    0.79560   0.87106   0.28733   0.00000  Uiso   1.00
C550   C     0.05271   0.15930   0.76057   0.00000  Uiso   1.00
C551   C     0.16562   0.15450   0.56023   0.00000  Uiso   1.00
C552   C     0.23505   0.13410   0.55606   0.00000  Uiso   1.00
C553   C     0.28109   0.17382   0.73939   0.00000  Uiso   1.00
C554   C     0.13718   0.18801   0.92018   0.00000  Uiso   1.00
C555   C     0.32763   0.17644   0.73322   0.00000  Uiso   1.00
C556   C     0.00785   0.15838   0.76295   0.00000  Uiso   1.00
C557   C     0.18240   0.32296   0.73489   0.00000  Uiso   1.00
C558   C     0.15315   0.01177   0.76260   0.00000  Uiso   1.00
C559   C     0.15558   0.05601   0.76075   0.00000  Uiso   1.00
C560   C     0.17705   0.27811   0.73981   0.00000  Uiso   1.00
C561   C     0.07818   0.18563   0.98705   0.00000  Uiso   1.00
C562   C     0.18566   0.14848   0.62934   0.00000  Uiso   1.00
C563   C     0.14899   0.18497   0.87079   0.00000  Uiso   1.00
C564   C     0.24749   0.13834   0.51026   0.00000  Uiso   1.00
C565   C     0.19454   0.14306   0.58104   0.00000  Uiso   1.00
C566   C     0.09499   0.19444   0.94257   0.00000  Uiso   1.00
C567   C     0.22003   0.00806   0.69944   0.00000  Uiso   1.00
C568   C     0.06679   0.11236   0.54530   0.00000  Uiso   1.00
C569   C     0.02381   0.19874   0.69432   0.00000  Uiso   1.00
C570   C     0.10285   0.16996   0.51026   0.00000  Uiso   1.00
C571   C     0.14782   0.16858   0.99044   0.00000  Uiso   1.00
C572   C     0.16471   0.17783   0.94457   0.00000  Uiso   1.00
C573   C     0.17652   0.15728   0.51347   0.00000  Uiso   1.00
C574   C     0.21932   0.15136   0.98915   0.00000  Uiso   1.00
C575   C     0.23486   0.16131   0.94477   0.00000  Uiso   1.00
C576   C     0.20872   0.17642   0.92366   0.00000  Uiso   1.00
H577   H     0.25787   0.12616   0.57243   0.00000  Uiso   1.00
H578   H     0.24299   0.32161   0.67930   0.00000  Uiso   1.00
H579   H     0.09399   0.09420   0.52961   0.00000  Uiso   1.00
H580   H     0.04292   0.10739   0.52498   0.00000  Uiso   1.00
H581   H     0.05043   0.10017   0.57856   0.00000  Uiso   1.00
H582   H     0.01042   0.21096   0.67075   0.00000  Uiso   1.00
H583   H     0.31854   0.14321   0.79113   0.00000  Uiso   1.00
H584   H     0.12622   0.33035   0.78762   0.00000  Uiso   1.00
H585   H     0.26811   0.15917   0.92679   0.00000  Uiso   1.00
H586   H     0.27988   0.13335   0.99168   0.00000  Uiso   1.00
H587   H     0.13702   0.16516   0.58204   0.00000  Uiso   1.00
H588   H     0.07365   0.20297   0.92471   0.00000  Uiso   1.00
H589   H     0.04454   0.18803   0.50284   0.00000  Uiso   1.00
H590   H     0.22377   0.18719   0.89058   0.00000  Uiso   1.00
O591   O     0.16667   0.16667   0.75000   0.00000  Uiso   1.00
O592   O     0.15451   0.12637   0.65458   0.00000  Uiso   1.00
O593   O     0.12940   0.20391   0.84968   0.00000  Uiso   1.00
O594   O     0.20824   0.17759   0.64606   0.00000  Uiso   1.00
O595   O     0.17451   0.15880   0.84968   0.00000  Uiso   1.00
O596   O     0.22605   0.04488   0.69194   0.00000  Uiso   1.00
O597   O     0.08150   0.15507   0.55153   0.00000  Uiso   1.00
O598   O     0.06287   0.20397   0.68795   0.00000  Uiso   1.00
O599   O     0.17930   0.08019   0.78214   0.00000  Uiso   1.00
O600   O     0.14632   0.26085   0.77013   0.00000  Uiso   1.00
O601   O     0.07412   0.13291   0.73413   0.00000  Uiso   1.00
O602   O     0.26693   0.19272   0.71361   0.00000  Uiso   1.00
O603   O     0.07071   0.18878   0.78213   0.00000  Uiso   1.00
O604   O     0.25491   0.15226   0.77014   0.00000  Uiso   1.00
O605   O     0.13760   0.06944   0.73413   0.00000  Uiso   1.00
O606   O     0.20345   0.25620   0.71360   0.00000  Uiso   1.00
Zn607  Zn    0.19338   0.13994   0.78734   0.00000  Uiso   1.00
Zn608  Zn    0.13379   0.12458   0.71875   0.00000  Uiso   1.00
Zn609  Zn    0.21056   0.19775   0.70657   0.00000  Uiso   1.00
Zn610  Zn    0.12893   0.20439   0.78733   0.00000  Uiso   1.00
C611   C     0.38604   0.15930   0.76057   0.00000  Uiso   1.00
C612   C     0.49896   0.15450   0.56023   0.00000  Uiso   1.00
C613   C     0.56838   0.13410   0.55606   0.00000  Uiso   1.00
C614   C     0.61443   0.17382   0.73939   0.00000  Uiso   1.00
C615   C     0.47052   0.18801   0.92018   0.00000  Uiso   1.00
C616   C     0.66097   0.17644   0.73322   0.00000  Uiso   1.00
C617   C     0.34119   0.15838   0.76295   0.00000  Uiso   1.00
C618   C     0.51573   0.32296   0.73489   0.00000  Uiso   1.00
C619   C     0.48649   0.01177   0.76260   0.00000  Uiso   1.00
C620   C     0.48892   0.05601   0.76075   0.00000  Uiso   1.00
C621   C     0.51038   0.27811   0.73981   0.00000  Uiso   1.00
C622   C     0.41151   0.18563   0.98705   0.00000  Uiso   1.00
C623   C     0.51899   0.14848   0.62934   0.00000  Uiso   1.00
C624   C     0.48232   0.18497   0.87079   0.00000  Uiso   1.00
C625   C     0.58082   0.13834   0.51026   0.00000  Uiso   1.00
C626   C     0.52787   0.14306   0.58104   0.00000  Uiso   1.00
C627   C     0.42833   0.19444   0.94257   0.00000  Uiso   1.00
C628   C     0.55337   0.00806   0.69944   0.00000  Uiso   1.00
C629   C     0.40013   0.11236   0.54530   0.00000  Uiso   1.00
C630   C     0.35714   0.19874   0.69432   0.00000  Uiso   1.00
C631   C     0.43618   0.16996   0.51026   0.00000  Uiso   1.00
C632   C     0.48116   0.16858   0.99044   0.00000  Uiso   1.00
C633   C     0.49804   0.17783   0.94457   0.00000  Uiso   1.00
C634   C     0.50986   0.15728   0.51347   0.00000  Uiso   1.00
C635   C     0.55265   0.15136   0.98915   0.00000  Uiso   1.00
C636   C     0.56819   0.16131   0.94477   0.00000  Uiso   1.00
C637   C     0.54205   0.17642   0.92366   0.00000  Uiso   1.00
H638   H     0.59120   0.12616   0.57243   0.00000  Uiso   1.00
H639   H     0.57632   0.32161   0.67930   0.00000  Uiso   1.00
H640   H     0.42732   0.09420   0.52961   0.00000  Uiso   1.00
H641   H     0.37625   0.10739   0.52498   0.00000  Uiso   1.00
H642   H     0.38376   0.10017   0.57856   0.00000  Uiso   1.00
H643   H     0.34375   0.21096   0.67075   0.00000  Uiso   1.00
H644   H     0.65188   0.14321   0.79113   0.00000  Uiso   1.00
H645   H     0.45955   0.33035   0.78762   0.00000  Uiso   1.00
H646   H     0.60144   0.15917   0.92679   0.00000  Uiso   1.00
H647   H     0.61321   0.13335   0.99168   0.00000  Uiso   1.00
H648   H     0.47035   0.16516   0.58204   0.00000  Uiso   1.00
H649   H     0.40699   0.20297   0.92471   0.00000  Uiso   1.00
H650   H     0.37788   0.18803   0.50284   0.00000  Uiso   1.00
H651   H     0.55710   0.18719   0.89058   0.00000  Uiso   1.00
O652   O     0.50000   0.16667   0.75000   0.00000  Uiso   1.00
O653   O     0.48784   0.12637   0.65458   0.00000  Uiso   1.00
O654   O     0.46274   0.20391   0.84968   0.00000  Uiso   1.00
O655   O     0.54157   0.17759   0.64606   0.00000  Uiso   1.00
O656   O     0.50785   0.15880   0.84968   0.00000  Uiso   1.00
O657   O     0.55938   0.04488   0.69194   0.00000  Uiso   1.00
O658   O     0.41483   0.15507   0.55153   0.00000  Uiso   1.00
O659   O     0.39620   0.20397   0.68795   0.00000  Uiso   1.00
O660   O     0.51264   0.08019   0.78214   0.00000  Uiso   1.00
O661   O     0.47965   0.26085   0.77013   0.00000  Uiso   1.00
O662   O     0.40745   0.13291   0.73413   0.00000  Uiso   1.00
O663   O     0.60026   0.19272   0.71361   0.00000  Uiso   1.00
O664   O     0.40405   0.18878   0.78213   0.00000  Uiso   1.00
O665   O     0.58824   0.15226   0.77014   0.00000  Uiso   1.00
O666   O     0.47093   0.06944   0.73413   0.00000  Uiso   1.00
O667   O     0.53678   0.25620   0.71360   0.00000  Uiso   1.00
Zn668  Zn    0.52672   0.13994   0.78734   0.00000  Uiso   1.00
Zn669  Zn    0.46713   0.12458   0.71875   0.00000  Uiso   1.00
Zn670  Zn    0.54389   0.19775   0.70657   0.00000  Uiso   1.00
Zn671  Zn    0.46226   0.20439   0.78733   0.00000  Uiso   1.00
C672   C     0.71938   0.15930   0.76057   0.00000  Uiso   1.00
C673   C     0.83229   0.15450   0.56023   0.00000  Uiso   1.00
C674   C     0.90171   0.13410   0.55606   0.00000  Uiso   1.00
C675   C     0.94776   0.17382   0.73939   0.00000  Uiso   1.00
C676   C     0.80385   0.18801   0.92018   0.00000  Uiso   1.00
C677   C     0.99430   0.17644   0.73322   0.00000  Uiso   1.00
C678   C     0.67452   0.15838   0.76295   0.00000  Uiso   1.00
C679   C     0.84906   0.32296   0.73489   0.00000  Uiso   1.00
C680   C     0.81982   0.01177   0.76260   0.00000  Uiso   1.00
C681   C     0.82225   0.05601   0.76075   0.00000  Uiso   1.00
C682   C     0.84372   0.27811   0.73981   0.00000  Uiso   1.00
C683   C     0.74485   0.18563   0.98705   0.00000  Uiso   1.00
C684   C     0.85233   0.14848   0.62934   0.00000  Uiso   1.00
C685   C     0.81566   0.18497   0.87079   0.00000  Uiso   1.00
C686   C     0.91415   0.13834   0.51026   0.00000  Uiso   1.00
C687   C     0.86120   0.14306   0.58104   0.00000  Uiso   1.00
C688   C     0.76166   0.19444   0.94257   0.00000  Uiso   1.00
C689   C     0.88670   0.00806   0.69944   0.00000  Uiso   1.00
C690   C     0.73346   0.11236   0.54530   0.00000  Uiso   1.00
C691   C     0.69047   0.19874   0.69432   0.00000  Uiso   1.00
C692   C     0.76951   0.16996   0.51026   0.00000  Uiso   1.00
C693   C     0.81449   0.16858   0.99044   0.00000  Uiso   1.00
C694   C     0.83137   0.17783   0.94457   0.00000  Uiso   1.00
C695   C     0.84319   0.15728   0.51347   0.00000  Uiso   1.00
C696   C     0.88599   0.15136   0.98915   0.00000  Uiso   1.00
C697   C     0.90153   0.16131   0.94477   0.00000  Uiso   1.00
C698   C     0.87539   0.17642   0.92366   0.00000  Uiso   1.00
H699   H     0.92454   0.12616   0.57243   0.00000  Uiso   1.00
H700   H     0.90965   0.32161   0.67930   0.00000  Uiso   1.00
H701   H     0.76066   0.09420   0.52961   0.00000  Uiso   1.00
H702   H     0.70958   0.10739   0.52498   0.00000  Uiso   1.00
H703   H     0.71710   0.10017   0.57856   0.00000  Uiso   1.00
H704   H     0.67708   0.21096   0.67075   0.00000  Uiso   1.00
H705   H     0.98521   0.14321   0.79113   0.00000  Uiso   1.00
H706   H     0.79288   0.33035   0.78762   0.00000  Uiso   1.00
H707   H     0.93478   0.15917   0.92679   0.00000  Uiso   1.00
H708   H     0.94655   0.13335   0.99168   0.00000  Uiso   1.00
H709   H     0.80368   0.16516   0.58204   0.00000  Uiso   1.00
H710   H     0.74032   0.20297   0.92471   0.00000  Uiso   1.00
H711   H     0.71121   0.18803   0.50284   0.00000  Uiso   1.00
H712   H     0.89043   0.18719   0.89058   0.00000  Uiso   1.00
O713   O     0.83333   0.16667   0.75000   0.00000  Uiso   1.00
O714   O     0.82118   0.12637   0.65458   0.00000  Uiso   1.00
O715   O     0.79607   0.20391   0.84968   0.00000  Uiso   1.00
O716   O     0.87491   0.17759   0.64606   0.00000  Uiso   1.00
O717   O     0.84118   0.15880   0.84968   0.00000  Uiso   1.00
O718   O     0.89271   0.04488   0.69194   0.00000  Uiso   1.00
O719   O     0.74816   0.15507   0.55153   0.00000  Uiso   1.00
O720   O     0.72953   0.20397   0.68795   0.00000  Uiso   1.00
O721   O     0.84597   0.08019   0.78214   0.00000  Uiso   1.00
O722   O     0.81298   0.26085   0.77013   0.00000  Uiso   1.00
O723   O     0.74078   0.13291   0.73413   0.00000  Uiso   1.00
O724   O     0.93360   0.19272   0.71361   0.00000  Uiso   1.00
O725   O     0.73738   0.18878   0.78213   0.00000  Uiso   1.00
O726   O     0.92158   0.15226   0.77014   0.00000  Uiso   1.00
O727   O     0.80426   0.06944   0.73413   0.00000  Uiso   1.00
O728   O     0.87012   0.25620   0.71360   0.00000  Uiso   1.00
Zn729  Zn    0.86005   0.13994   0.78734   0.00000  Uiso   1.00
Zn730  Zn    0.80046   0.12458   0.71875   0.00000  Uiso   1.00
Zn731  Zn    0.87723   0.19775   0.70657   0.00000  Uiso   1.00
Zn732  Zn    0.79560   0.20439   0.78733   0.00000  Uiso   1.00
C733   C     0.05271   0.49264   0.76057   0.00000  Uiso   1.00
C734   C     0.16562   0.48783   0.56023   0.00000  Uiso   1.00
C735   C     0.23505   0.46744   0.55606   0.00000  Uiso   1.00
C736   C     0.28109   0.50716   0.73939   0.00000  Uiso   1.00
C737   C     0.13718   0.52134   0.92018   0.00000  Uiso   1.00
C738   C     0.32763   0.50977   0.73322   0.00000  Uiso   1.00
C739   C     0.00785   0.49171   0.76295   0.00000  Uiso   1.00
C740   C     0.18240   0.65630   0.73489   0.00000  Uiso   1.00
C741   C     0.15315   0.34511   0.76260   0.00000  Uiso   1.00
C742   C     0.15558   0.38935   0.76075   0.00000  Uiso   1.00
C743   C     0.17705   0.61144   0.73981   0.00000  Uiso   1.00
C744   C     0.07818   0.51896   0.98705   0.00000  Uiso   1.00
C745   C     0.18566   0.48182   0.62934   0.00000  Uiso   1.00
C746   C     0.14899   0.51830   0.87079   0.00000  Uiso   1.00
C747   C     0.24749   0.47167   0.51026   0.00000  Uiso   1.00
C748   C     0.19454   0.47640   0.58104   0.00000  Uiso   1.00
C749   C     0.09499   0.52777   0.94257   0.00000  Uiso   1.00
C750   C     0.22003   0.34139   0.69944   0.00000  Uiso   1.00
C751   C     0.06679   0.44569   0.54530   0.00000  Uiso   1.00
C752   C     0.02381   0.53207   0.69432   0.00000  Uiso   1.00
C753   C     0.10285   0.50330   0.51026   0.00000  Uiso   1.00
C754   C     0.14782   0.50191   0.99044   0.00000  Uiso   1.00
C755   C     0.16471   0.51116   0.94457   0.00000  Uiso   1.00
C756   C     0.17652   0.49061   0.51347   0.00000  Uiso   1.00
C757   C     0.21932   0.48470   0.98915   0.00000  Uiso   1.00
C758   C     0.23486   0.49464   0.94477   0.00000  Uiso   1.00
C759   C     0.20872   0.50976   0.92366   0.00000  Uiso   1.00
H760   H     0.25787   0.45949   0.57243   0.00000  Uiso   1.00
H761   H     0.24299   0.65494   0.67930   0.00000  Uiso   1.00
H762   H     0.09399   0.42753   0.52961   0.00000  Uiso   1.00
H763   H     0.04292   0.44073   0.52498   0.00000  Uiso   1.00
H764   H     0.05043   0.43350   0.57856   0.00000  Uiso   1.00
H765   H     0.01042   0.54430   0.67075   0.00000  Uiso   1.00
H766   H     0.31854   0.47654   0.79113   0.00000  Uiso   1.00
H767   H     0.12622   0.66369   0.78762   0.00000  Uiso   1.00
H768   H     0.26811   0.49250   0.92679   0.00000  Uiso   1.00
H769   H     0.27988   0.46668   0.99168   0.00000  Uiso   1.00
H770   H     0.13702   0.49849   0.58204   0.00000  Uiso   1.00
H771   H     0.07365   0.53630   0.92471   0.00000  Uiso   1.00
H772   H     0.04454   0.52137   0.50284   0.00000  Uiso   1.00
H773   H     0.22377   0.52053   0.89058   0.00000  Uiso   1.00
O774   O     0.16667   0.50000   0.75000   0.00000  Uiso   1.00
O775   O     0.15451   0.45970   0.65458   0.00000  Uiso   1.00
O776   O     0.12940   0.53724   0.84968   0.00000  Uiso   1.00
O777   O     0.20824   0.51092   0.64606   0.00000  Uiso   1.00
O778   O     0.17451   0.49213   0.84968   0.00000  Uiso   1.00
O779   O     0.22605   0.37822   0.69194   0.00000  Uiso   1.00
O780   O     0.08150   0.48840   0.55153   0.00000  Uiso   1.00
O781   O     0.06287   0.53730   0.68795   0.00000  Uiso   1.00
O782   O     0.17930   0.41352   0.78214   0.00000  Uiso   1.00
O783   O     0.14632   0.59418   0.77013   0.00000  Uiso   1.00
O784   O     0.07412   0.46625   0.73413   0.00000  Uiso   1.00
O785   O     0.26693   0.52605   0.71361   0.00000  Uiso   1.00
O786   O     0.07071   0.52211   0.78213   0.00000  Uiso   1.00
O787   O     0.25491   0.48559   0.77014   0.00000  Uiso   1.00
O788   O     0.13760   0.40277   0.73413   0.00000  Uiso   1.00
O789   O     0.20345   0.58953   0.71360   0.00000  Uiso   1.00
Zn790  Zn    0.19338   0.47327   0.78734   0.00000  Uiso   1.00
Zn791  Zn    0.13379   0.45791   0.71875   0.00000  Uiso   1.00
Zn792  Zn    0.21056   0.53109   0.70657   0.00000  Uiso   1.00
Zn793  Zn    0.12893   0.53773   0.78733   0.00000  Uiso   1.00
C794   C     0.38604   0.49264   0.76057   0.00000  Uiso   1.00
C795   C     0.49896   0.48783   0.56023   0.00000  Uiso   1.00
C796   C     0.56838   0.46744   0.55606   0.00000  Uiso   1.00
C797   C     0.61443   0.50716   0.73939   0.00000  Uiso   1.00
C798   C     0.47052   0.52134   0.92018   0.00000  Uiso   1.00
C799   C     0.66097   0.50977   0.73322   0.00000  Uiso   1.00
C800   C     0.34119   0.49171   0.76295   0.00000  Uiso   1.00
C801   C     0.51573   0.65630   0.73489   0.00000  Uiso   1.00
C802   C     0.48649   0.34511   0.76260   0.00000  Uiso   1.00
C803   C     0.48892   0.38935   0.76075   0.00000  Uiso   1.00
C804   C     0.51038   0.61144   0.73981   0.00000  Uiso   1.00
C805   C     0.41151   0.51896   0.98705   0.00000  Uiso   1.00
C806   C     0.51899   0.48182   0.62934   0.00000  Uiso   1.00
C807   C     0.48232   0.51830   0.87079   0.00000  Uiso   1.00
C808   C     0.58082   0.47167   0.51026   0.00000  Uiso   1.00
C809   C     0.52787   0.47640   0.58104   0.00000  Uiso   1.00
C810   C     0.42833   0.52777   0.94257   0.00000  Uiso   1.00
C811   C     0.55337   0.34139   0.69944   0.00000  Uiso   1.00
C812   C     0.40013   0.44569   0.54530   0.00000  Uiso   1.00
C813   C     0.35714   0.53207   0.69432   0.00000  Uiso   1.00
C814   C     0.43618   0.50330   0.51026   0.00000  Uiso   1.00
C815   C     0.48116   0.50191   0.99044   0.00000  Uiso   1.00
C816   C     0.49804   0.51116   0.94457   0.00000  Uiso   1.00
C817   C     0.50986   0.49061   0.51347   0.00000  Uiso   1.00
C818   C     0.55265   0.48470   0.98915   0.00000  Uiso   1.00
C819   C     0.56819   0.49464   0.94477   0.00000  Uiso   1.00
C820   C     0.54205   0.50976   0.92366   0.00000  Uiso   1.00
H821   H     0.59120   0.45949   0.57243   0.00000  Uiso   1.00
H822   H     0.57632   0.65494   0.67930   0.00000  Uiso   1.00
H823   H     0.42732   0.42753   0.52961   0.00000  Uiso   1.00
H824   H     0.37625   0.44073   0.52498   0.00000  Uiso   1.00
H825   H     0.38376   0.43350   0.57856   0.00000  Uiso   1.00
H826   H     0.34375   0.54430   0.67075   0.00000  Uiso   1.00
H827   H     0.65188   0.47654   0.79113   0.00000  Uiso   1.00
H828   H     0.45955   0.66369   0.78762   0.00000  Uiso   1.00
H829   H     0.60144   0.49250   0.92679   0.00000  Uiso   1.00
H830   H     0.61321   0.46668   0.99168   0.00000  Uiso   1.00
H831   H     0.47035   0.49849   0.58204   0.00000  Uiso   1.00
H832   H     0.40699   0.53630   0.92471   0.00000  Uiso   1.00
H833   H     0.37788   0.52137   0.50284   0.00000  Uiso   1.00
H834   H     0.55710   0.52053   0.89058   0.00000  Uiso   1.00
O835   O     0.50000   0.50000   0.75000   0.00000  Uiso   1.00
O836   O     0.48784   0.45970   0.65458   0.00000  Uiso   1.00
O837   O     0.46274   0.53724   0.84968   0.00000  Uiso   1.00
O838   O     0.54157   0.51092   0.64606   0.00000  Uiso   1.00
O839   O     0.50785   0.49213   0.84968   0.00000  Uiso   1.00
O840   O     0.55938   0.37822   0.69194   0.00000  Uiso   1.00
O841   O     0.41483   0.48840   0.55153   0.00000  Uiso   1.00
O842   O     0.39620   0.53730   0.68795   0.00000  Uiso   1.00
O843   O     0.51264   0.41352   0.78214   0.00000  Uiso   1.00
O844   O     0.47965   0.59418   0.77013   0.00000  Uiso   1.00
O845   O     0.40745   0.46625   0.73413   0.00000  Uiso   1.00
O846   O     0.60026   0.52605   0.71361   0.00000  Uiso   1.00
O847   O     0.40405   0.52211   0.78213   0.00000  Uiso   1.00
O848   O     0.58824   0.48559   0.77014   0.00000  Uiso   1.00
O849   O     0.47093   0.40277   0.73413   0.00000  Uiso   1.00
O850   O     0.53678   0.58953   0.71360   0.00000  Uiso   1.00
Zn851  Zn    0.52672   0.47327   0.78734   0.00000  Uiso   1.00
Zn852  Zn    0.46713   0.45791   0.71875   0.00000  Uiso   1.00
Zn853  Zn    0.54389   0.53109   0.70657   0.00000  Uiso   1.00
Zn854  Zn    0.46226   0.53773   0.78733   0.00000  Uiso   1.00
C855   C     0.71938   0.49264   0.76057   0.00000  Uiso   1.00
C856   C     0.83229   0.48783   0.56023   0.00000  Uiso   1.00
C857   C     0.90171   0.46744   0.55606   0.00000  Uiso   1.00
C858   C     0.94776   0.50716   0.73939   0.00000  Uiso   1.00
C859   C     0.80385   0.52134   0.92018   0.00000  Uiso   1.00
C860   C     0.99430   0.50977   0.73322   0.00000  Uiso   1.00
C861   C     0.67452   0.49171   0.76295   0.00000  Uiso   1.00
C862   C     0.84906   0.65630   0.73489   0.00000  Uiso   1.00
C863   C     0.81982   0.34511   0.76260   0.00000  Uiso   1.00
C864   C     0.82225   0.38935   0.76075   0.00000  Uiso   1.00
C865   C     0.84372   0.61144   0.73981   0.00000  Uiso   1.00
C866   C     0.74485   0.51896   0.98705   0.00000  Uiso   1.00
C867   C     0.85233   0.48182   0.62934   0.00000  Uiso   1.00
C868   C     0.81566   0.51830   0.87079   0.00000  Uiso   1.00
C869   C     0.91415   0.47167   0.51026   0.00000  Uiso   1.00
C870   C     0.86120   0.47640   0.58104   0.00000  Uiso   1.00
C871   C     0.76166   0.52777   0.94257   0.00000  Uiso   1.00
C872   C     0.88670   0.34139   0.69944   0.00000  Uiso   1.00
C873   C     0.73346   0.44569   0.54530   0.00000  Uiso   1.00
C874   C     0.69047   0.53207   0.69432   0.00000  Uiso   1.00
C875   C     0.76951   0.50330   0.51026   0.00000  Uiso   1.00
C876   C     0.81449   0.50191   0.99044   0.00000  Uiso   1.00
C877   C     0.83137   0.51116   0.94457   0.00000  Uiso   1.00
C878   C     0.84319   0.49061   0.51347   0.00000  Uiso   1.00
C879   C     0.88599   0.48470   0.98915   0.00000  Uiso   1.00
C880   C     0.90153   0.49464   0.94477   0.00000  Uiso   1.00
C881   C     0.87539   0.50976   0.92366   0.00000  Uiso   1.00
H882   H     0.92454   0.45949   0.57243   0.00000  Uiso   1.00
H883   H     0.90965   0.65494   0.67930   0.00000  Uiso   1.00
H884   H     0.76066   0.42753   0.52961   0.00000  Uiso   1.00
H885   H     0.70958   0.44073   0.52498   0.00000  Uiso   1.00
H886   H     0.71710   0.43350   0.57856   0.00000  Uiso   1.00
H887   H     0.67708   0.54430   0.67075   0.00000  Uiso   1.00
H888   H     0.98521   0.47654   0.79113   0.00000  Uiso   1.00
H889   H     0.79288   0.66369   0.78762   0.00000  Uiso   1.00
H890   H     0.93478   0.49250   0.92679   0.00000  Uiso   1.00
H891   H     0.94655   0.46668   0.99168   0.00000  Uiso   1.00
H892   H     0.80368   0.49849   0.58204   0.00000  Uiso   1.00
H893   H     0.74032   0.53630   0.92471   0.00000  Uiso   1.00
H894   H     0.71121   0.52137   0.50284   0.00000  Uiso   1.00
H895   H     0.89043   0.52053   0.89058   0.00000  Uiso   1.00
O896   O     0.83333   0.50000   0.75000   0.00000  Uiso   1.00
O897   O     0.82118   0.45970   0.65458   0.00000  Uiso   1.00
O898   O     0.79607   0.53724   0.84968   0.00000  Uiso   1.00
O899   O     0.87491   0.51092   0.64606   0.00000  Uiso   1.00
O900   O     0.84118   0.49213   0.84968   0.00000  Uiso   1.00
O901   O     0.89271   0.37822   0.69194   0.00000  Uiso   1.00
O902   O     0.74816   0.48840   0.55153   0.00000  Uiso   1.00
O903   O     0.72953   0.53730   0.68795   0.00000  Uiso   1.00
O904   O     0.84597   0.41352   0.78214   0.00000  Uiso   1.00
O905   O     0.81298   0.59418   0.77013   0.00000  Uiso   1.00
O906   O     0.74078   0.46625   0.73413   0.00000  Uiso   1.00
O907   O     0.93360   0.52605   0.71361   0.00000  Uiso   1.00
O908   O     0.73738   0.52211   0.78213   0.00000  Uiso   1.00
O909   O     0.92158   0.48559   0.77014   0.00000  Uiso   1.00
O910   O     0.80426   0.40277   0.73413   0.00000  Uiso   1.00
O911   O     0.87012   0.58953   0.71360   0.00000  Uiso   1.00
Zn912  Zn    0.86005   0.47327   0.78734   0.00000  Uiso   1.00
Zn913  Zn    0.80046   0.45791   0.71875   0.00000  Uiso   1.00
Zn914  Zn    0.87723   0.53109   0.70657   0.00000  Uiso   1.00
Zn915  Zn    0.79560   0.53773   0.78733   0.00000  Uiso   1.00
C916   C     0.05271   0.82597   0.76057   0.00000  Uiso   1.00
C917   C     0.16562   0.82116   0.56023   0.00000  Uiso   1.00
C918   C     0.23505   0.80077   0.55606   0.00000  Uiso   1.00
C919   C     0.28109   0.84049   0.73939   0.00000  Uiso   1.00
C920   C     0.13718   0.85468   0.92018   0.00000  Uiso   1.00
C921   C     0.32763   0.84310   0.73322   0.00000  Uiso   1.00
C922   C     0.00785   0.82504   0.76295   0.00000  Uiso   1.00
C923   C     0.18240   0.98963   0.73489   0.00000  Uiso   1.00
C924   C     0.15315   0.67844   0.76260   0.00000  Uiso   1.00
C925   C     0.15558   0.72268   0.76075   0.00000  Uiso   1.00
C926   C     0.17705   0.94477   0.73981   0.00000  Uiso   1.00
C927   C     0.07818   0.85229   0.98705   0.00000  Uiso   1.00
C928   C     0.18566   0.81515   0.62934   0.00000  Uiso   1.00
C929   C     0.14899   0.85163   0.87079   0.00000  Uiso   1.00
C930   C     0.24749   0.80501   0.51026   0.00000  Uiso   1.00
C931   C     0.19454   0.80973   0.58104   0.00000  Uiso   1.00
C932   C     0.09499   0.86110   0.94257   0.00000  Uiso   1.00
C933   C     0.22003   0.67472   0.69944   0.00000  Uiso   1.00
C934   C     0.06679   0.77903   0.54530   0.00000  Uiso   1.00
C935   C     0.02381   0.86540   0.69432   0.00000  Uiso   1.00
C936   C     0.10285   0.83663   0.51026   0.00000  Uiso   1.00
C937   C     0.14782   0.83524   0.99044   0.00000  Uiso   1.00
C938   C     0.16471   0.84449   0.94457   0.00000  Uiso   1.00
C939   C     0.17652   0.82395   0.51347   0.00000  Uiso   1.00
C940   C     0.21932   0.81803   0.98915   0.00000  Uiso   1.00
C941   C     0.23486   0.82798   0.94477   0.00000  Uiso   1.00
C942   C     0.20872   0.84309   0.92366   0.00000  Uiso   1.00
H943   H     0.25787   0.79282   0.57243   0.00000  Uiso   1.00
H944   H     0.24299   0.98828   0.67930   0.00000  Uiso   1.00
H945   H     0.09399   0.76087   0.52961   0.00000  Uiso   1.00
H946   H     0.04292   0.77406   0.52498   0.00000  Uiso   1.00
H947   H     0.05043   0.76684   0.57856   0.00000  Uiso   1.00
H948   H     0.01042   0.87763   0.67075   0.00000  Uiso   1.00
H949   H     0.31854   0.80988   0.79113   0.00000  Uiso   1.00
H950   H     0.12622   0.99702   0.78762   0.00000  Uiso   1.00
H951   H     0.26811   0.82584   0.92679   0.00000  Uiso   1.00
H952   H     0.27988   0.80002   0.99168   0.00000  Uiso   1.00
H953   H     0.13702   0.83182   0.58204   0.00000  Uiso   1.00
H954   H     0.07365   0.86963   0.92471   0.00000  Uiso   1.00
H955   H     0.04454   0.85470   0.50284   0.00000  Uiso   1.00
H956   H     0.22377   0.85386   0.89058   0.00000  Uiso   1.00
O957   O     0.16667   0.83333   0.75000   0.00000  Uiso   1.00
O958   O     0.15451   0.79304   0.65458   0.00000  Uiso   1.00
O959   O     0.12940   0.87058   0.84968   0.00000  Uiso   1.00
O960   O     0.20824   0.84425   0.64606   0.00000  Uiso   1.00
O961   O     0.17451   0.82546   0.84968   0.00000  Uiso   1.00
O962   O     0.22605   0.71155   0.69194   0.00000  Uiso   1.00
O963   O     0.08150   0.82173   0.55153   0.00000  Uiso   1.00
O964   O     0.06287   0.87063   0.68795   0.00000  Uiso   1.00
O965   O     0.17930   0.74686   0.78214   0.00000  Uiso   1.00
O966   O     0.14632   0.92751   0.77013   0.00000  Uiso   1.00
O967   O     0.07412   0.79958   0.73413   0.00000  Uiso   1.00
O968   O     0.26693   0.85939   0.71361   0.00000  Uiso   1.00
O969   O     0.07071   0.85544   0.78213   0.00000  Uiso   1.00
O970   O     0.25491   0.81892   0.77014   0.00000  Uiso   1.00
O971   O     0.13760   0.73610   0.73413   0.00000  Uiso   1.00
O972   O     0.20345   0.92286   0.71360   0.00000  Uiso   1.00
Zn973  Zn    0.19338   0.80661   0.78734   0.00000  Uiso   1.00
Zn974  Zn    0.13379   0.79124   0.71875   0.00000  Uiso   1.00
Zn975  Zn    0.21056   0.86442   0.70657   0.00000  Uiso   1.00
Zn976  Zn    0.12893   0.87106   0.78733   0.00000  Uiso   1.00
C977   C     0.38604   0.82597   0.76057   0.00000  Uiso   1.00
C978   C     0.49896   0.82116   0.56023   0.00000  Uiso   1.00
C979   C     0.56838   0.80077   0.55606   0.00000  Uiso   1.00
C980   C     0.61443   0.84049   0.73939   0.00000  Uiso   1.00
C981   C     0.47052   0.85468   0.92018   0.00000  Uiso   1.00
C982   C     0.66097   0.84310   0.73322   0.00000  Uiso   1.00
C983   C     0.34119   0.82504   0.76295   0.00000  Uiso   1.00
C984   C     0.51573   0.98963   0.73489   0.00000  Uiso   1.00
C985   C     0.48649   0.67844   0.76260   0.00000  Uiso   1.00
C986   C     0.48892   0.72268   0.76075   0.00000  Uiso   1.00
C987   C     0.51038   0.94477   0.73981   0.00000  Uiso   1.00
C988   C     0.41151   0.85229   0.98705   0.00000  Uiso   1.00
C989   C     0.51899   0.81515   0.62934   0.00000  Uiso   1.00
C990   C     0.48232   0.85163   0.87079   0.00000  Uiso   1.00
C991   C     0.58082   0.80501   0.51026   0.00000  Uiso   1.00
C992   C     0.52787   0.80973   0.58104   0.00000  Uiso   1.00
C993   C     0.42833   0.86110   0.94257   0.00000  Uiso   1.00
C994   C     0.55337   0.67472   0.69944   0.00000  Uiso   1.00
C995   C     0.40013   0.77903   0.54530   0.00000  Uiso   1.00
C996   C     0.35714   0.86540   0.69432   0.00000  Uiso   1.00
C997   C     0.43618   0.83663   0.51026   0.00000  Uiso   1.00
C998   C     0.48116   0.83524   0.99044   0.00000  Uiso   1.00
C999   C     0.49804   0.84449   0.94457   0.00000  Uiso   1.00
C1000  C     0.50986   0.82395   0.51347   0.00000  Uiso   1.00
C1001  C     0.55265   0.81803   0.98915   0.00000  Uiso   1.00
C1002  C     0.56819   0.82798   0.94477   0.00000  Uiso   1.00
C1003  C     0.54205   0.84309   0.92366   0.00000  Uiso   1.00
H1004  H     0.59120   0.79282   0.57243   0.00000  Uiso   1.00
H1005  H     0.57632   0.98828   0.67930   0.00000  Uiso   1.00
H1006  H     0.42732   0.76087   0.52961   0.00000  Uiso   1.00
H1007  H     0.37625   0.77406   0.52498   0.00000  Uiso   1.00
H1008  H     0.38376   0.76684   0.57856   0.00000  Uiso   1.00
H1009  H     0.34375   0.87763   0.67075   0.00000  Uiso   1.00
H1010  H     0.65188   0.80988   0.79113   0.00000  Uiso   1.00
H1011  H     0.45955   0.99702   0.78762   0.00000  Uiso   1.00
H1012  H     0.60144   0.82584   0.92679   0.00000  Uiso   1.00
H1013  H     0.61321   0.80002   0.99168   0.00000  Uiso   1.00
H1014  H     0.47035   0.83182   0.58204   0.00000  Uiso   1.00
H1015  H     0.40699   0.86963   0.92471   0.00000  Uiso   1.00
H1016  H     0.37788   0.85470   0.50284   0.00000  Uiso   1.00
H1017  H     0.55710   0.85386   0.89058   0.00000  Uiso   1.00
O1018  O     0.50000   0.83333   0.75000   0.00000  Uiso   1.00
O1019  O     0.48784   0.79304   0.65458   0.00000  Uiso   1.00
O1020  O     0.46274   0.87058   0.84968   0.00000  Uiso   1.00
O1021  O     0.54157   0.84425   0.64606   0.00000  Uiso   1.00
O1022  O     0.50785   0.82546   0.84968   0.00000  Uiso   1.00
O1023  O     0.55938   0.71155   0.69194   0.00000  Uiso   1.00
O1024  O     0.41483   0.82173   0.55153   0.00000  Uiso   1.00
O1025  O     0.39620   0.87063   0.68795   0.00000  Uiso   1.00
O1026  O     0.51264   0.74686   0.78214   0.00000  Uiso   1.00
O1027  O     0.47965   0.92751   0.77013   0.00000  Uiso   1.00
O1028  O     0.40745   0.79958   0.73413   0.00000  Uiso   1.00
O1029  O     0.60026   0.85939   0.71361   0.00000  Uiso   1.00
O1030  O     0.40405   0.85544   0.78213   0.00000  Uiso   1.00
O1031  O     0.58824   0.81892   0.77014   0.00000  Uiso   1.00
O1032  O     0.47093   0.73610   0.73413   0.00000  Uiso   1.00
O1033  O     0.53678   0.92286   0.71360   0.00000  Uiso   1.00
Zn1034 Zn    0.52672   0.80661   0.78734   0.00000  Uiso   1.00
Zn1035 Zn    0.46713   0.79124   0.71875   0.00000  Uiso   1.00
Zn1036 Zn    0.54389   0.86442   0.70657   0.00000  Uiso   1.00
Zn1037 Zn    0.46226   0.87106   0.78733   0.00000  Uiso   1.00
C1038  C     0.71938   0.82597   0.76057   0.00000  Uiso   1.00
C1039  C     0.83229   0.82116   0.56023   0.00000  Uiso   1.00
C1040  C     0.90171   0.80077   0.55606   0.00000  Uiso   1.00
C1041  C     0.94776   0.84049   0.73939   0.00000  Uiso   1.00
C1042  C     0.80385   0.85468   0.92018   0.00000  Uiso   1.00
C1043  C     0.99430   0.84310   0.73322   0.00000  Uiso   1.00
C1044  C     0.67452   0.82504   0.76295   0.00000  Uiso   1.00
C1045  C     0.84906   0.98963   0.73489   0.00000  Uiso   1.00
C1046  C     0.81982   0.67844   0.76260   0.00000  Uiso   1.00
C1047  C     0.82225   0.72268   0.76075   0.00000  Uiso   1.00
C1048  C     0.84372   0.94477   0.73981   0.00000  Uiso   1.00
C1049  C     0.74485   0.85229   0.98705   0.00000  Uiso   1.00
C1050  C     0.85233   0.81515   0.62934   0.00000  Uiso   1.00
C1051  C     0.81566   0.85163   0.87079   0.00000  Uiso   1.00
C1052  C     0.91415   0.80501   0.51026   0.00000  Uiso   1.00
C1053  C     0.86120   0.80973   0.58104   0.00000  Uiso   1.00
C1054  C     0.76166   0.86110   0.94257   0.00000  Uiso   1.00
C1055  C     0.88670   0.67472   0.69944   0.00000  Uiso   1.00
C1056  C     0.73346   0.77903   0.54530   0.00000  Uiso   1.00
C1057  C     0.69047   0.86540   0.69432   0.00000  Uiso   1.00
C1058  C     0.76951   0.83663   0.51026   0.00000  Uiso   1.00
C1059  C     0.81449   0.83524   0.99044   0.00000  Uiso   1.00
C1060  C     0.83137   0.84449   0.94457   0.00000  Uiso   1.00
C1061  C     0.84319   0.82395   0.51347   0.00000  Uiso   1.00
C1062  C     0.88599   0.81803   0.98915   0.00000  Uiso   1.00
C1063  C     0.90153   0.82798   0.94477   0.00000  Uiso   1.00
C1064  C     0.87539   0.84309   0.92366   0.00000  Uiso   1.00
H1065  H     0.92454   0.79282   0.57243   0.00000  Uiso   1.00
H1066  H     0.90965   0.98828   0.67930   0.00000  Uiso   1.00
H1067  H     0.76066   0.76087   0.52961   0.00000  Uiso   1.00
H1068  H     0.70958   0.77406   0.52498   0.00000  Uiso   1.00
H1069  H     0.71710   0.76684   0.57856   0.00000  Uiso   1.00
H1070  H     0.67708   0.87763   0.67075   0.00000  Uiso   1.00
H1071  H     0.98521   0.80988   0.79113   0.00000  Uiso   1.00
H1072  H     0.79288   0.99702   0.78762   0.00000  Uiso   1.00
H1073  H     0.93478   0.82584   0.92679   0.00000  Uiso   1.00
H1074  H     0.94655   0.80002   0.99168   0.00000  Uiso   1.00
H1075  H     0.80368   0.83182   0.58204   0.00000  Uiso   1.00
H1076  H     0.74032   0.86963   0.92471   0.00000  Uiso   1.00
H1077  H     0.71121   0.85470   0.50284   0.00000  Uiso   1.00
H1078  H     0.89043   0.85386   0.89058   0.00000  Uiso   1.00
O1079  O     0.83333   0.83333   0.75000   0.00000  Uiso   1.00
O1080  O     0.82118   0.79304   0.65458   0.00000  Uiso   1.00
O1081  O     0.79607   0.87058   0.84968   0.00000  Uiso   1.00
O1082  O     0.87491   0.84425   0.64606   0.00000  Uiso   1.00
O1083  O     0.84118   0.82546   0.84968   0.00000  Uiso   1.00
O1084  O     0.89271   0.71155   0.69194   0.00000  Uiso   1.00
O1085  O     0.74816   0.82173   0.55153   0.00000  Uiso   1.00
O1086  O     0.72953   0.87063   0.68795   0.00000  Uiso   1.00
O1087  O     0.84597   0.74686   0.78214   0.00000  Uiso   1.00
O1088  O     0.81298   0.92751   0.77013   0.00000  Uiso   1.00
O1089  O     0.74078   0.79958   0.73413   0.00000  Uiso   1.00
O1090  O     0.93360   0.85939   0.71361   0.00000  Uiso   1.00
O1091  O     0.73738   0.85544   0.78213   0.00000  Uiso   1.00
O1092  O     0.92158   0.81892   0.77014   0.00000  Uiso   1.00
O1093  O     0.80426   0.73610   0.73413   0.00000  Uiso   1.00
O1094  O     0.87012   0.92286   0.71360   0.00000  Uiso   1.00
Zn1095 Zn    0.86005   0.80661   0.78734   0.00000  Uiso   1.00
Zn1096 Zn    0.80046   0.79124   0.71875   0.00000  Uiso   1.00
Zn1097 Zn    0.87723   0.86442   0.70657   0.00000  Uiso   1.00
Zn1098 Zn    0.79560   0.87106   0.78733   0.00000  Uiso   1.00
loop_
_geom_bond_atom_site_label_1
_geom_bond_atom_site_label_2
_geom_bond_distance
_geom_bond_site_symmetry_2
_ccdc_geom_bond_type
C1     O54     1.273   .     A
C1     O52     1.276   .     A
C1     C7      1.439   .     S
C2     C16     1.393   .     A
C2     H38     1.075   .     S
C2     C24     1.409   .     A
C3     C15     1.386   .     A
C3     H28     1.084   .     S
C3     C16     1.394   .     A
C4     O53     1.276   .     A
C4     O55     1.282   .     A
C4     C6      1.466   .     S
C5     C23     1.417   .     A
C5     C17     1.398   .     A
C5     C14     1.475   .     S
C6     C68     1.347   .     S
C6     C81     1.498   .     S
C7     C128    1.347   1_455 S
C7     H156    1.086   1_455 S
C8     C11     1.463   .     S
C8     C192    1.344   .     S
C8     C201    1.500   .     S
C9     C10     1.437   .     S
C9     C374    1.344   1_545 S
C9     H401    1.086   1_545 S
C10    O50     1.282   .     A
C10    O56     1.281   .     A
C11    O57     1.265   .     A
C11    O51     1.276   .     A
C12    C17     1.384   .     A
C12    C570    1.397   .     S
C12    H589    1.083   .     S
C13    C16     1.448   .     S
C13    O45     1.265   .     A
C13    O43     1.273   .     A
C14    O46     1.287   .     A
C14    O44     1.287   .     A
C15    C574    1.401   1_554 S
C15    H586    1.084   1_554 S
C17    H39     1.083   .     S
C18    O47     1.221   .     D
C18    C374    1.500   1_545 S
C18    H395    1.085   1_545 S
C19    H31     1.114   .     S
C19    H32     1.109   .     S
C19    O48     1.410   .     S
C19    H30     1.114   .     S
C20    O49     1.221   .     D
C20    H33     1.085   .     S
C20    C128    1.498   1_455 S
C21    O48     1.380   .     S
C21    C561    1.397   1_554 S
C21    C571    1.432   1_554 S
C22    C23     1.428   .     A
C22    C570    1.432   .     S
C22    C573    1.433   .     S
C23    C27     1.410   .     A
C24    C571    1.433   1_554 S
C24    C574    1.425   1_554 S
C25    C26     1.388   .     A
C25    C564    1.401   .     S
C25    C573    1.425   .     S
C26    C27     1.380   .     A
C26    H36     1.084   .     S
C27    H41     1.081   .     S
H29    C201    1.085   .     S
H34    C68     1.086   .     S
H35    C192    1.086   .     S
H37    C564    1.084   .     S
H40    C561    1.083   1_554 S
O42    Zn59    1.951   .     S
O42    Zn58    1.966   .     S
O42    Zn61    1.940   .     S
O42    Zn60    1.916   .     S
O43    Zn59    1.929   .     S
O44    Zn61    1.946   .     S
O45    Zn60    1.946   .     S
O46    Zn58    1.933   .     S
O50    Zn58    1.929   .     S
O51    Zn61    1.924   .     S
O52    Zn59    1.927   .     S
O53    Zn60    1.942   .     S
O54    Zn61    1.933   .     S
O55    Zn58    1.917   .     S
O56    Zn59    1.936   .     S
O57    Zn60    1.936   .     S
C62    O115    1.273   .     A
C62    O113    1.276   .     A
C62    C68     1.439   .     S
C63    C77     1.393   .     A
C63    H99     1.075   .     S
C63    C85     1.409   .     A
C64    C76     1.386   .     A
C64    H89     1.084   .     S
C64    C77     1.394   .     A
C65    O114    1.276   .     A
C65    O116    1.282   .     A
C65    C67     1.466   .     S
C66    C84     1.417   .     A
C66    C78     1.398   .     A
C66    C75     1.475   .     S
C67    C129    1.347   .     S
C67    C142    1.498   .     S
C69    C72     1.463   .     S
C69    C253    1.344   .     S
C69    C262    1.500   .     S
C70    C71     1.437   .     S
C70    C435    1.344   1_545 S
C70    H462    1.086   1_545 S
C71    O111    1.282   .     A
C71    O117    1.281   .     A
C72    O118    1.265   .     A
C72    O112    1.276   .     A
C73    C78     1.384   .     A
C73    C631    1.397   .     S
C73    H650    1.083   .     S
C74    C77     1.448   .     S
C74    O106    1.265   .     A
C74    O104    1.273   .     A
C75    O107    1.287   .     A
C75    O105    1.287   .     A
C76    C635    1.401   1_554 S
C76    H647    1.084   1_554 S
C78    H100    1.083   .     S
C79    O108    1.221   .     D
C79    C435    1.500   1_545 S
C79    H456    1.085   1_545 S
C80    H92     1.114   .     S
C80    H93     1.109   .     S
C80    O109    1.410   .     S
C80    H91     1.114   .     S
C81    O110    1.221   .     D
C81    H94     1.085   .     S
C82    O109    1.380   .     S
C82    C622    1.397   1_554 S
C82    C632    1.432   1_554 S
C83    C84     1.428   .     A
C83    C631    1.432   .     S
C83    C634    1.433   .     S
C84    C88     1.410   .     A
C85    C632    1.433   1_554 S
C85    C635    1.425   1_554 S
C86    C87     1.388   .     A
C86    C625    1.401   .     S
C86    C634    1.425   .     S
C87    C88     1.380   .     A
C87    H97     1.084   .     S
C88    H102    1.081   .     S
H90    C262    1.085   .     S
H95    C129    1.086   .     S
H96    C253    1.086   .     S
H98    C625    1.084   .     S
H101   C622    1.083   1_554 S
O103   Zn120   1.951   .     S
O103   Zn119   1.966   .     S
O103   Zn122   1.940   .     S
O103   Zn121   1.916   .     S
O104   Zn120   1.929   .     S
O105   Zn122   1.946   .     S
O106   Zn121   1.946   .     S
O107   Zn119   1.933   .     S
O111   Zn119   1.929   .     S
O112   Zn122   1.924   .     S
O113   Zn120   1.927   .     S
O114   Zn121   1.942   .     S
O115   Zn122   1.933   .     S
O116   Zn119   1.917   .     S
O117   Zn120   1.936   .     S
O118   Zn121   1.936   .     S
C123   O176    1.273   .     A
C123   O174    1.276   .     A
C123   C129    1.439   .     S
C124   C138    1.393   .     A
C124   H160    1.075   .     S
C124   C146    1.409   .     A
C125   C137    1.386   .     A
C125   H150    1.084   .     S
C125   C138    1.394   .     A
C126   O175    1.276   .     A
C126   O177    1.282   .     A
C126   C128    1.466   .     S
C127   C145    1.417   .     A
C127   C139    1.398   .     A
C127   C136    1.475   .     S
C128   C7      1.347   1_655 S
C128   C20     1.498   1_655 S
C130   C133    1.463   .     S
C130   C314    1.344   .     S
C130   C323    1.500   .     S
C131   C132    1.437   .     S
C131   C496    1.344   1_545 S
C131   H523    1.086   1_545 S
C132   O172    1.282   .     A
C132   O178    1.281   .     A
C133   O179    1.265   .     A
C133   O173    1.276   .     A
C134   C139    1.384   .     A
C134   C692    1.397   .     S
C134   H711    1.083   .     S
C135   C138    1.448   .     S
C135   O167    1.265   .     A
C135   O165    1.273   .     A
C136   O168    1.287   .     A
C136   O166    1.287   .     A
C137   C696    1.401   1_554 S
C137   H708    1.084   1_554 S
C139   H161    1.083   .     S
C140   O169    1.221   .     D
C140   C496    1.500   1_545 S
C140   H517    1.085   1_545 S
C141   H153    1.114   .     S
C141   H154    1.109   .     S
C141   O170    1.410   .     S
C141   H152    1.114   .     S
C142   O171    1.221   .     D
C142   H155    1.085   .     S
C143   O170    1.380   .     S
C143   C683    1.397   1_554 S
C143   C693    1.432   1_554 S
C144   C145    1.428   .     A
C144   C692    1.432   .     S
C144   C695    1.433   .     S
C145   C149    1.410   .     A
C146   C693    1.433   1_554 S
C146   C696    1.425   1_554 S
C147   C148    1.388   .     A
C147   C686    1.401   .     S
C147   C695    1.425   .     S
C148   C149    1.380   .     A
C148   H158    1.084   .     S
C149   H163    1.081   .     S
H151   C323    1.085   .     S
H156   C7      1.086   1_655 S
H157   C314    1.086   .     S
H159   C686    1.084   .     S
H162   C683    1.083   1_554 S
O164   Zn181   1.951   .     S
O164   Zn180   1.966   .     S
O164   Zn183   1.940   .     S
O164   Zn182   1.916   .     S
O165   Zn181   1.929   .     S
O166   Zn183   1.946   .     S
O167   Zn182   1.946   .     S
O168   Zn180   1.933   .     S
O172   Zn180   1.929   .     S
O173   Zn183   1.924   .     S
O174   Zn181   1.927   .     S
O175   Zn182   1.942   .     S
O176   Zn183   1.933   .     S
O177   Zn180   1.917   .     S
O178   Zn181   1.936   .     S
O179   Zn182   1.936   .     S
C184   O237    1.273   .     A
C184   O235    1.276   .     A
C184   C190    1.439   .     S
C185   C199    1.393   .     A
C185   H221    1.075   .     S
C185   C207    1.409   .     A
C186   C198    1.386   .     A
C186   H211    1.084   .     S
C186   C199    1.394   .     A
C187   O236    1.276   .     A
C187   O238    1.282   .     A
C187   C189    1.466   .     S
C188   C206    1.417   .     A
C188   C200    1.398   .     A
C188   C197    1.475   .     S
C189   C251    1.347   .     S
C189   C264    1.498   .     S
C190   C311    1.347   1_455 S
C190   H339    1.086   1_455 S
C191   C194    1.463   .     S
C191   C375    1.344   .     S
C191   C384    1.500   .     S
C192   C193    1.437   .     S
C193   O233    1.282   .     A
C193   O239    1.281   .     A
C194   O240    1.265   .     A
C194   O234    1.276   .     A
C195   C200    1.384   .     A
C195   C753    1.397   .     S
C195   H772    1.083   .     S
C196   C199    1.448   .     S
C196   O228    1.265   .     A
C196   O226    1.273   .     A
C197   O229    1.287   .     A
C197   O227    1.287   .     A
C198   C757    1.401   1_554 S
C198   H769    1.084   1_554 S
C200   H222    1.083   .     S
C201   O230    1.221   .     D
C202   H214    1.114   .     S
C202   H215    1.109   .     S
C202   O231    1.410   .     S
C202   H213    1.114   .     S
C203   O232    1.221   .     D
C203   H216    1.085   .     S
C203   C311    1.498   1_455 S
C204   O231    1.380   .     S
C204   C744    1.397   1_554 S
C204   C754    1.432   1_554 S
C205   C206    1.428   .     A
C205   C753    1.432   .     S
C205   C756    1.433   .     S
C206   C210    1.410   .     A
C207   C754    1.433   1_554 S
C207   C757    1.425   1_554 S
C208   C209    1.388   .     A
C208   C747    1.401   .     S
C208   C756    1.425   .     S
C209   C210    1.380   .     A
C209   H219    1.084   .     S
C210   H224    1.081   .     S
H212   C384    1.085   .     S
H217   C251    1.086   .     S
H218   C375    1.086   .     S
H220   C747    1.084   .     S
H223   C744    1.083   1_554 S
O225   Zn242   1.951   .     S
O225   Zn241   1.966   .     S
O225   Zn244   1.940   .     S
O225   Zn243   1.916   .     S
O226   Zn242   1.929   .     S
O227   Zn244   1.946   .     S
O228   Zn243   1.946   .     S
O229   Zn241   1.933   .     S
O233   Zn241   1.929   .     S
O234   Zn244   1.924   .     S
O235   Zn242   1.927   .     S
O236   Zn243   1.942   .     S
O237   Zn244   1.933   .     S
O238   Zn241   1.917   .     S
O239   Zn242   1.936   .     S
O240   Zn243   1.936   .     S
C245   O298    1.273   .     A
C245   O296    1.276   .     A
C245   C251    1.439   .     S
C246   C260    1.393   .     A
C246   H282    1.075   .     S
C246   C268    1.409   .     A
C247   C259    1.386   .     A
C247   H272    1.084   .     S
C247   C260    1.394   .     A
C248   O297    1.276   .     A
C248   O299    1.282   .     A
C248   C250    1.466   .     S
C249   C267    1.417   .     A
C249   C261    1.398   .     A
C249   C258    1.475   .     S
C250   C312    1.347   .     S
C250   C325    1.498   .     S
C252   C255    1.463   .     S
C252   C436    1.344   .     S
C252   C445    1.500   .     S
C253   C254    1.437   .     S
C254   O294    1.282   .     A
C254   O300    1.281   .     A
C255   O301    1.265   .     A
C255   O295    1.276   .     A
C256   C261    1.384   .     A
C256   C814    1.397   .     S
C256   H833    1.083   .     S
C257   C260    1.448   .     S
C257   O289    1.265   .     A
C257   O287    1.273   .     A
C258   O290    1.287   .     A
C258   O288    1.287   .     A
C259   C818    1.401   1_554 S
C259   H830    1.084   1_554 S
C261   H283    1.083   .     S
C262   O291    1.221   .     D
C263   H275    1.114   .     S
C263   H276    1.109   .     S
C263   O292    1.410   .     S
C263   H274    1.114   .     S
C264   O293    1.221   .     D
C264   H277    1.085   .     S
C265   O292    1.380   .     S
C265   C805    1.397   1_554 S
C265   C815    1.432   1_554 S
C266   C267    1.428   .     A
C266   C814    1.432   .     S
C266   C817    1.433   .     S
C267   C271    1.410   .     A
C268   C815    1.433   1_554 S
C268   C818    1.425   1_554 S
C269   C270    1.388   .     A
C269   C808    1.401   .     S
C269   C817    1.425   .     S
C270   C271    1.380   .     A
C270   H280    1.084   .     S
C271   H285    1.081   .     S
H273   C445    1.085   .     S
H278   C312    1.086   .     S
H279   C436    1.086   .     S
H281   C808    1.084   .     S
H284   C805    1.083   1_554 S
O286   Zn303   1.951   .     S
O286   Zn302   1.966   .     S
O286   Zn305   1.940   .     S
O286   Zn304   1.916   .     S
O287   Zn303   1.929   .     S
O288   Zn305   1.946   .     S
O289   Zn304   1.946   .     S
O290   Zn302   1.933   .     S
O294   Zn302   1.929   .     S
O295   Zn305   1.924   .     S
O296   Zn303   1.927   .     S
O297   Zn304   1.942   .     S
O298   Zn305   1.933   .     S
O299   Zn302   1.917   .     S
O300   Zn303   1.936   .     S
O301   Zn304   1.936   .     S
C306   O359    1.273   .     A
C306   O357    1.276   .     A
C306   C312    1.439   .     S
C307   C321    1.393   .     A
C307   H343    1.075   .     S
C307   C329    1.409   .     A
C308   C320    1.386   .     A
C308   H333    1.084   .     S
C308   C321    1.394   .     A
C309   O358    1.276   .     A
C309   O360    1.282   .     A
C309   C311    1.466   .     S
C310   C328    1.417   .     A
C310   C322    1.398   .     A
C310   C319    1.475   .     S
C311   C190    1.347   1_655 S
C311   C203    1.498   1_655 S
C313   C316    1.463   .     S
C313   C497    1.344   .     S
C313   C506    1.500   .     S
C314   C315    1.437   .     S
C315   O355    1.282   .     A
C315   O361    1.281   .     A
C316   O362    1.265   .     A
C316   O356    1.276   .     A
C317   C322    1.384   .     A
C317   C875    1.397   .     S
C317   H894    1.083   .     S
C318   C321    1.448   .     S
C318   O350    1.265   .     A
C318   O348    1.273   .     A
C319   O351    1.287   .     A
C319   O349    1.287   .     A
C320   C879    1.401   1_554 S
C320   H891    1.084   1_554 S
C322   H344    1.083   .     S
C323   O352    1.221   .     D
C324   H336    1.114   .     S
C324   H337    1.109   .     S
C324   O353    1.410   .     S
C324   H335    1.114   .     S
C325   O354    1.221   .     D
C325   H338    1.085   .     S
C326   O353    1.380   .     S
C326   C866    1.397   1_554 S
C326   C876    1.432   1_554 S
C327   C328    1.428   .     A
C327   C875    1.432   .     S
C327   C878    1.433   .     S
C328   C332    1.410   .     A
C329   C876    1.433   1_554 S
C329   C879    1.425   1_554 S
C330   C331    1.388   .     A
C330   C869    1.401   .     S
C330   C878    1.425   .     S
C331   C332    1.380   .     A
C331   H341    1.084   .     S
C332   H346    1.081   .     S
H334   C506    1.085   .     S
H339   C190    1.086   1_655 S
H340   C497    1.086   .     S
H342   C869    1.084   .     S
H345   C866    1.083   1_554 S
O347   Zn364   1.951   .     S
O347   Zn363   1.966   .     S
O347   Zn366   1.940   .     S
O347   Zn365   1.916   .     S
O348   Zn364   1.929   .     S
O349   Zn366   1.946   .     S
O350   Zn365   1.946   .     S
O351   Zn363   1.933   .     S
O355   Zn363   1.929   .     S
O356   Zn366   1.924   .     S
O357   Zn364   1.927   .     S
O358   Zn365   1.942   .     S
O359   Zn366   1.933   .     S
O360   Zn363   1.917   .     S
O361   Zn364   1.936   .     S
O362   Zn365   1.936   .     S
C367   O420    1.273   .     A
C367   O418    1.276   .     A
C367   C373    1.439   .     S
C368   C382    1.393   .     A
C368   H404    1.075   .     S
C368   C390    1.409   .     A
C369   C381    1.386   .     A
C369   H394    1.084   .     S
C369   C382    1.394   .     A
C370   O419    1.276   .     A
C370   O421    1.282   .     A
C370   C372    1.466   .     S
C371   C389    1.417   .     A
C371   C383    1.398   .     A
C371   C380    1.475   .     S
C372   C434    1.347   .     S
C372   C447    1.498   .     S
C373   C494    1.347   1_455 S
C373   H522    1.086   1_455 S
C374   C377    1.463   .     S
C374   C9      1.344   1_565 S
C374   C18     1.500   1_565 S
C375   C376    1.437   .     S
C376   O416    1.282   .     A
C376   O422    1.281   .     A
C377   O423    1.265   .     A
C377   O417    1.276   .     A
C378   C383    1.384   .     A
C378   C936    1.397   .     S
C378   H955    1.083   .     S
C379   C382    1.448   .     S
C379   O411    1.265   .     A
C379   O409    1.273   .     A
C380   O412    1.287   .     A
C380   O410    1.287   .     A
C381   C940    1.401   1_554 S
C381   H952    1.084   1_554 S
C383   H405    1.083   .     S
C384   O413    1.221   .     D
C385   H397    1.114   .     S
C385   H398    1.109   .     S
C385   O414    1.410   .     S
C385   H396    1.114   .     S
C386   O415    1.221   .     D
C386   H399    1.085   .     S
C386   C494    1.498   1_455 S
C387   O414    1.380   .     S
C387   C927    1.397   1_554 S
C387   C937    1.432   1_554 S
C388   C389    1.428   .     A
C388   C936    1.432   .     S
C388   C939    1.433   .     S
C389   C393    1.410   .     A
C390   C937    1.433   1_554 S
C390   C940    1.425   1_554 S
C391   C392    1.388   .     A
C391   C930    1.401   .     S
C391   C939    1.425   .     S
C392   C393    1.380   .     A
C392   H402    1.084   .     S
C393   H407    1.081   .     S
H395   C18     1.085   1_565 S
H400   C434    1.086   .     S
H401   C9      1.086   1_565 S
H403   C930    1.084   .     S
H406   C927    1.083   1_554 S
O408   Zn425   1.951   .     S
O408   Zn424   1.966   .     S
O408   Zn427   1.940   .     S
O408   Zn426   1.916   .     S
O409   Zn425   1.929   .     S
O410   Zn427   1.946   .     S
O411   Zn426   1.946   .     S
O412   Zn424   1.933   .     S
O416   Zn424   1.929   .     S
O417   Zn427   1.924   .     S
O418   Zn425   1.927   .     S
O419   Zn426   1.942   .     S
O420   Zn427   1.933   .     S
O421   Zn424   1.917   .     S
O422   Zn425   1.936   .     S
O423   Zn426   1.936   .     S
C428   O481    1.273   .     A
C428   O479    1.276   .     A
C428   C434    1.439   .     S
C429   C443    1.393   .     A
C429   H465    1.075   .     S
C429   C451    1.409   .     A
C430   C442    1.386   .     A
C430   H455    1.084   .     S
C430   C443    1.394   .     A
C431   O480    1.276   .     A
C431   O482    1.282   .     A
C431   C433    1.466   .     S
C432   C450    1.417   .     A
C432   C444    1.398   .     A
C432   C441    1.475   .     S
C433   C495    1.347   .     S
C433   C508    1.498   .     S
C435   C438    1.463   .     S
C435   C70     1.344   1_565 S
C435   C79     1.500   1_565 S
C436   C437    1.437   .     S
C437   O477    1.282   .     A
C437   O483    1.281   .     A
C438   O484    1.265   .     A
C438   O478    1.276   .     A
C439   C444    1.384   .     A
C439   C997    1.397   .     S
C439   H1016   1.083   .     S
C440   C443    1.448   .     S
C440   O472    1.265   .     A
C440   O470    1.273   .     A
C441   O473    1.287   .     A
C441   O471    1.287   .     A
C442   C1001   1.401   1_554 S
C442   H1013   1.084   1_554 S
C444   H466    1.083   .     S
C445   O474    1.221   .     D
C446   H458    1.114   .     S
C446   H459    1.109   .     S
C446   O475    1.410   .     S
C446   H457    1.114   .     S
C447   O476    1.221   .     D
C447   H460    1.085   .     S
C448   O475    1.380   .     S
C448   C988    1.397   1_554 S
C448   C998    1.432   1_554 S
C449   C450    1.428   .     A
C449   C997    1.432   .     S
C449   C1000   1.433   .     S
C450   C454    1.410   .     A
C451   C998    1.433   1_554 S
C451   C1001   1.425   1_554 S
C452   C453    1.388   .     A
C452   C991    1.401   .     S
C452   C1000   1.425   .     S
C453   C454    1.380   .     A
C453   H463    1.084   .     S
C454   H468    1.081   .     S
H456   C79     1.085   1_565 S
H461   C495    1.086   .     S
H462   C70     1.086   1_565 S
H464   C991    1.084   .     S
H467   C988    1.083   1_554 S
O469   Zn486   1.951   .     S
O469   Zn485   1.966   .     S
O469   Zn488   1.940   .     S
O469   Zn487   1.916   .     S
O470   Zn486   1.929   .     S
O471   Zn488   1.946   .     S
O472   Zn487   1.946   .     S
O473   Zn485   1.933   .     S
O477   Zn485   1.929   .     S
O478   Zn488   1.924   .     S
O479   Zn486   1.927   .     S
O480   Zn487   1.942   .     S
O481   Zn488   1.933   .     S
O482   Zn485   1.917   .     S
O483   Zn486   1.936   .     S
O484   Zn487   1.936   .     S
C489   O542    1.273   .     A
C489   O540    1.276   .     A
C489   C495    1.439   .     S
C490   C504    1.393   .     A
C490   H526    1.075   .     S
C490   C512    1.409   .     A
C491   C503    1.386   .     A
C491   H516    1.084   .     S
C491   C504    1.394   .     A
C492   O541    1.276   .     A
C492   O543    1.282   .     A
C492   C494    1.466   .     S
C493   C511    1.417   .     A
C493   C505    1.398   .     A
C493   C502    1.475   .     S
C494   C373    1.347   1_655 S
C494   C386    1.498   1_655 S
C496   C499    1.463   .     S
C496   C131    1.344   1_565 S
C496   C140    1.500   1_565 S
C497   C498    1.437   .     S
C498   O538    1.282   .     A
C498   O544    1.281   .     A
C499   O545    1.265   .     A
C499   O539    1.276   .     A
C500   C505    1.384   .     A
C500   C1058   1.397   .     S
C500   H1077   1.083   .     S
C501   C504    1.448   .     S
C501   O533    1.265   .     A
C501   O531    1.273   .     A
C502   O534    1.287   .     A
C502   O532    1.287   .     A
C503   C1062   1.401   1_554 S
C503   H1074   1.084   1_554 S
C505   H527    1.083   .     S
C506   O535    1.221   .     D
C507   H519    1.114   .     S
C507   H520    1.109   .     S
C507   O536    1.410   .     S
C507   H518    1.114   .     S
C508   O537    1.221   .     D
C508   H521    1.085   .     S
C509   O536    1.380   .     S
C509   C1049   1.397   1_554 S
C509   C1059   1.432   1_554 S
C510   C511    1.428   .     A
C510   C1058   1.432   .     S
C510   C1061   1.433   .     S
C511   C515    1.410   .     A
C512   C1059   1.433   1_554 S
C512   C1062   1.425   1_554 S
C513   C514    1.388   .     A
C513   C1052   1.401   .     S
C513   C1061   1.425   .     S
C514   C515    1.380   .     A
C514   H524    1.084   .     S
C515   H529    1.081   .     S
H517   C140    1.085   1_565 S
H522   C373    1.086   1_655 S
H523   C131    1.086   1_565 S
H525   C1052   1.084   .     S
H528   C1049   1.083   1_554 S
O530   Zn547   1.951   .     S
O530   Zn546   1.966   .     S
O530   Zn549   1.940   .     S
O530   Zn548   1.916   .     S
O531   Zn547   1.929   .     S
O532   Zn549   1.946   .     S
O533   Zn548   1.946   .     S
O534   Zn546   1.933   .     S
O538   Zn546   1.929   .     S
O539   Zn549   1.924   .     S
O540   Zn547   1.927   .     S
O541   Zn548   1.942   .     S
O542   Zn549   1.933   .     S
O543   Zn546   1.917   .     S
O544   Zn547   1.936   .     S
O545   Zn548   1.936   .     S
C550   O603    1.273   .     A
C550   O601    1.276   .     A
C550   C556    1.439   .     S
C551   C565    1.393   .     A
C551   H587    1.075   .     S
C551   C573    1.409   .     A
C552   C564    1.386   .     A
C552   H577    1.084   .     S
C552   C565    1.394   .     A
C553   O602    1.276   .     A
C553   O604    1.282   .     A
C553   C555    1.466   .     S
C554   C572    1.417   .     A
C554   C566    1.398   .     A
C554   C563    1.475   .     S
C555   C617    1.347   .     S
C555   C630    1.498   .     S
C556   C677    1.347   1_455 S
C556   H705    1.086   1_455 S
C557   C560    1.463   .     S
C557   C741    1.344   .     S
C557   C750    1.500   .     S
C558   C559    1.437   .     S
C558   C923    1.344   1_545 S
C558   H950    1.086   1_545 S
C559   O599    1.282   .     A
C559   O605    1.281   .     A
C560   O606    1.265   .     A
C560   O600    1.276   .     A
C561   C566    1.384   .     A
C561   C21     1.397   1_556 S
C561   H40     1.083   1_556 S
C562   C565    1.448   .     S
C562   O594    1.265   .     A
C562   O592    1.273   .     A
C563   O595    1.287   .     A
C563   O593    1.287   .     A
C566   H588    1.083   .     S
C567   O596    1.221   .     D
C567   C923    1.500   1_545 S
C567   H944    1.085   1_545 S
C568   H580    1.114   .     S
C568   H581    1.109   .     S
C568   O597    1.410   .     S
C568   H579    1.114   .     S
C569   O598    1.221   .     D
C569   H582    1.085   .     S
C569   C677    1.498   1_455 S
C570   O597    1.380   .     S
C571   C572    1.428   .     A
C571   C21     1.432   1_556 S
C571   C24     1.433   1_556 S
C572   C576    1.410   .     A
C574   C575    1.388   .     A
C574   C15     1.401   1_556 S
C574   C24     1.425   1_556 S
C575   C576    1.380   .     A
C575   H585    1.084   .     S
C576   H590    1.081   .     S
H578   C750    1.085   .     S
H583   C617    1.086   .     S
H584   C741    1.086   .     S
H586   C15     1.084   1_556 S
O591   Zn608   1.951   .     S
O591   Zn607   1.966   .     S
O591   Zn610   1.940   .     S
O591   Zn609   1.916   .     S
O592   Zn608   1.929   .     S
O593   Zn610   1.946   .     S
O594   Zn609   1.946   .     S
O595   Zn607   1.933   .     S
O599   Zn607   1.929   .     S
O600   Zn610   1.924   .     S
O601   Zn608   1.927   .     S
O602   Zn609   1.942   .     S
O603   Zn610   1.933   .     S
O604   Zn607   1.917   .     S
O605   Zn608   1.936   .     S
O606   Zn609   1.936   .     S
C611   O664    1.273   .     A
C611   O662    1.276   .     A
C611   C617    1.439   .     S
C612   C626    1.393   .     A
C612   H648    1.075   .     S
C612   C634    1.409   .     A
C613   C625    1.386   .     A
C613   H638    1.084   .     S
C613   C626    1.394   .     A
C614   O663    1.276   .     A
C614   O665    1.282   .     A
C614   C616    1.466   .     S
C615   C633    1.417   .     A
C615   C627    1.398   .     A
C615   C624    1.475   .     S
C616   C678    1.347   .     S
C616   C691    1.498   .     S
C618   C621    1.463   .     S
C618   C802    1.344   .     S
C618   C811    1.500   .     S
C619   C620    1.437   .     S
C619   C984    1.344   1_545 S
C619   H1011   1.086   1_545 S
C620   O660    1.282   .     A
C620   O666    1.281   .     A
C621   O667    1.265   .     A
C621   O661    1.276   .     A
C622   C627    1.384   .     A
C622   C82     1.397   1_556 S
C622   H101    1.083   1_556 S
C623   C626    1.448   .     S
C623   O655    1.265   .     A
C623   O653    1.273   .     A
C624   O656    1.287   .     A
C624   O654    1.287   .     A
C627   H649    1.083   .     S
C628   O657    1.221   .     D
C628   C984    1.500   1_545 S
C628   H1005   1.085   1_545 S
C629   H641    1.114   .     S
C629   H642    1.109   .     S
C629   O658    1.410   .     S
C629   H640    1.114   .     S
C630   O659    1.221   .     D
C630   H643    1.085   .     S
C631   O658    1.380   .     S
C632   C633    1.428   .     A
C632   C82     1.432   1_556 S
C632   C85     1.433   1_556 S
C633   C637    1.410   .     A
C635   C636    1.388   .     A
C635   C76     1.401   1_556 S
C635   C85     1.425   1_556 S
C636   C637    1.380   .     A
C636   H646    1.084   .     S
C637   H651    1.081   .     S
H639   C811    1.085   .     S
H644   C678    1.086   .     S
H645   C802    1.086   .     S
H647   C76     1.084   1_556 S
O652   Zn669   1.951   .     S
O652   Zn668   1.966   .     S
O652   Zn671   1.940   .     S
O652   Zn670   1.916   .     S
O653   Zn669   1.929   .     S
O654   Zn671   1.946   .     S
O655   Zn670   1.946   .     S
O656   Zn668   1.933   .     S
O660   Zn668   1.929   .     S
O661   Zn671   1.924   .     S
O662   Zn669   1.927   .     S
O663   Zn670   1.942   .     S
O664   Zn671   1.933   .     S
O665   Zn668   1.917   .     S
O666   Zn669   1.936   .     S
O667   Zn670   1.936   .     S
C672   O725    1.273   .     A
C672   O723    1.276   .     A
C672   C678    1.439   .     S
C673   C687    1.393   .     A
C673   H709    1.075   .     S
C673   C695    1.409   .     A
C674   C686    1.386   .     A
C674   H699    1.084   .     S
C674   C687    1.394   .     A
C675   O724    1.276   .     A
C675   O726    1.282   .     A
C675   C677    1.466   .     S
C676   C694    1.417   .     A
C676   C688    1.398   .     A
C676   C685    1.475   .     S
C677   C556    1.347   1_655 S
C677   C569    1.498   1_655 S
C679   C682    1.463   .     S
C679   C863    1.344   .     S
C679   C872    1.500   .     S
C680   C681    1.437   .     S
C680   C1045   1.344   1_545 S
C680   H1072   1.086   1_545 S
C681   O721    1.282   .     A
C681   O727    1.281   .     A
C682   O728    1.265   .     A
C682   O722    1.276   .     A
C683   C688    1.384   .     A
C683   C143    1.397   1_556 S
C683   H162    1.083   1_556 S
C684   C687    1.448   .     S
C684   O716    1.265   .     A
C684   O714    1.273   .     A
C685   O717    1.287   .     A
C685   O715    1.287   .     A
C688   H710    1.083   .     S
C689   O718    1.221   .     D
C689   C1045   1.500   1_545 S
C689   H1066   1.085   1_545 S
C690   H702    1.114   .     S
C690   H703    1.109   .     S
C690   O719    1.410   .     S
C690   H701    1.114   .     S
C691   O720    1.221   .     D
C691   H704    1.085   .     S
C692   O719    1.380   .     S
C693   C694    1.428   .     A
C693   C143    1.432   1_556 S
C693   C146    1.433   1_556 S
C694   C698    1.410   .     A
C696   C697    1.388   .     A
C696   C137    1.401   1_556 S
C696   C146    1.425   1_556 S
C697   C698    1.380   .     A
C697   H707    1.084   .     S
C698   H712    1.081   .     S
H700   C872    1.085   .     S
H705   C556    1.086   1_655 S
H706   C863    1.086   .     S
H708   C137    1.084   1_556 S
O713   Zn730   1.951   .     S
O713   Zn729   1.966   .     S
O713   Zn732   1.940   .     S
O713   Zn731   1.916   .     S
O714   Zn730   1.929   .     S
O715   Zn732   1.946   .     S
O716   Zn731   1.946   .     S
O717   Zn729   1.933   .     S
O721   Zn729   1.929   .     S
O722   Zn732   1.924   .     S
O723   Zn730   1.927   .     S
O724   Zn731   1.942   .     S
O725   Zn732   1.933   .     S
O726   Zn729   1.917   .     S
O727   Zn730   1.936   .     S
O728   Zn731   1.936   .     S
C733   O786    1.273   .     A
C733   O784    1.276   .     A
C733   C739    1.439   .     S
C734   C748    1.393   .     A
C734   H770    1.075   .     S
C734   C756    1.409   .     A
C735   C747    1.386   .     A
C735   H760    1.084   .     S
C735   C748    1.394   .     A
C736   O785    1.276   .     A
C736   O787    1.282   .     A
C736   C738    1.466   .     S
C737   C755    1.417   .     A
C737   C749    1.398   .     A
C737   C746    1.475   .     S
C738   C800    1.347   .     S
C738   C813    1.498   .     S
C739   C860    1.347   1_455 S
C739   H888    1.086   1_455 S
C740   C743    1.463   .     S
C740   C924    1.344   .     S
C740   C933    1.500   .     S
C741   C742    1.437   .     S
C742   O782    1.282   .     A
C742   O788    1.281   .     A
C743   O789    1.265   .     A
C743   O783    1.276   .     A
C744   C749    1.384   .     A
C744   C204    1.397   1_556 S
C744   H223    1.083   1_556 S
C745   C748    1.448   .     S
C745   O777    1.265   .     A
C745   O775    1.273   .     A
C746   O778    1.287   .     A
C746   O776    1.287   .     A
C749   H771    1.083   .     S
C750   O779    1.221   .     D
C751   H763    1.114   .     S
C751   H764    1.109   .     S
C751   O780    1.410   .     S
C751   H762    1.114   .     S
C752   O781    1.221   .     D
C752   H765    1.085   .     S
C752   C860    1.498   1_455 S
C753   O780    1.380   .     S
C754   C755    1.428   .     A
C754   C204    1.432   1_556 S
C754   C207    1.433   1_556 S
C755   C759    1.410   .     A
C757   C758    1.388   .     A
C757   C198    1.401   1_556 S
C757   C207    1.425   1_556 S
C758   C759    1.380   .     A
C758   H768    1.084   .     S
C759   H773    1.081   .     S
H761   C933    1.085   .     S
H766   C800    1.086   .     S
H767   C924    1.086   .     S
H769   C198    1.084   1_556 S
O774   Zn791   1.951   .     S
O774   Zn790   1.966   .     S
O774   Zn793   1.940   .     S
O774   Zn792   1.916   .     S
O775   Zn791   1.929   .     S
O776   Zn793   1.946   .     S
O777   Zn792   1.946   .     S
O778   Zn790   1.933   .     S
O782   Zn790   1.929   .     S
O783   Zn793   1.924   .     S
O784   Zn791   1.927   .     S
O785   Zn792   1.942   .     S
O786   Zn793   1.933   .     S
O787   Zn790   1.917   .     S
O788   Zn791   1.936   .     S
O789   Zn792   1.936   .     S
C794   O847    1.273   .     A
C794   O845    1.276   .     A
C794   C800    1.439   .     S
C795   C809    1.393   .     A
C795   H831    1.075   .     S
C795   C817    1.409   .     A
C796   C808    1.386   .     A
C796   H821    1.084   .     S
C796   C809    1.394   .     A
C797   O846    1.276   .     A
C797   O848    1.282   .     A
C797   C799    1.466   .     S
C798   C816    1.417   .     A
C798   C810    1.398   .     A
C798   C807    1.475   .     S
C799   C861    1.347   .     S
C799   C874    1.498   .     S
C801   C804    1.463   .     S
C801   C985    1.344   .     S
C801   C994    1.500   .     S
C802   C803    1.437   .     S
C803   O843    1.282   .     A
C803   O849    1.281   .     A
C804   O850    1.265   .     A
C804   O844    1.276   .     A
C805   C810    1.384   .     A
C805   C265    1.397   1_556 S
C805   H284    1.083   1_556 S
C806   C809    1.448   .     S
C806   O838    1.265   .     A
C806   O836    1.273   .     A
C807   O839    1.287   .     A
C807   O837    1.287   .     A
C810   H832    1.083   .     S
C811   O840    1.221   .     D
C812   H824    1.114   .     S
C812   H825    1.109   .     S
C812   O841    1.410   .     S
C812   H823    1.114   .     S
C813   O842    1.221   .     D
C813   H826    1.085   .     S
C814   O841    1.380   .     S
C815   C816    1.428   .     A
C815   C265    1.432   1_556 S
C815   C268    1.433   1_556 S
C816   C820    1.410   .     A
C818   C819    1.388   .     A
C818   C259    1.401   1_556 S
C818   C268    1.425   1_556 S
C819   C820    1.380   .     A
C819   H829    1.084   .     S
C820   H834    1.081   .     S
H822   C994    1.085   .     S
H827   C861    1.086   .     S
H828   C985    1.086   .     S
H830   C259    1.084   1_556 S
O835   Zn852   1.951   .     S
O835   Zn851   1.966   .     S
O835   Zn854   1.940   .     S
O835   Zn853   1.916   .     S
O836   Zn852   1.929   .     S
O837   Zn854   1.946   .     S
O838   Zn853   1.946   .     S
O839   Zn851   1.933   .     S
O843   Zn851   1.929   .     S
O844   Zn854   1.924   .     S
O845   Zn852   1.927   .     S
O846   Zn853   1.942   .     S
O847   Zn854   1.933   .     S
O848   Zn851   1.917   .     S
O849   Zn852   1.936   .     S
O850   Zn853   1.936   .     S
C855   O908    1.273   .     A
C855   O906    1.276   .     A
C855   C861    1.439   .     S
C856   C870    1.393   .     A
C856   H892    1.075   .     S
C856   C878    1.409   .     A
C857   C869    1.386   .     A
C857   H882    1.084   .     S
C857   C870    1.394   .     A
C858   O907    1.276   .     A
C858   O909    1.282   .     A
C858   C860    1.466   .     S
C859   C877    1.417   .     A
C859   C871    1.398   .     A
C859   C868    1.475   .     S
C860   C739    1.347   1_655 S
C860   C752    1.498   1_655 S
C862   C865    1.463   .     S
C862   C1046   1.344   .     S
C862   C1055   1.500   .     S
C863   C864    1.437   .     S
C864   O904    1.282   .     A
C864   O910    1.281   .     A
C865   O911    1.265   .     A
C865   O905    1.276   .     A
C866   C871    1.384   .     A
C866   C326    1.397   1_556 S
C866   H345    1.083   1_556 S
C867   C870    1.448   .     S
C867   O899    1.265   .     A
C867   O897    1.273   .     A
C868   O900    1.287   .     A
C868   O898    1.287   .     A
C871   H893    1.083   .     S
C872   O901    1.221   .     D
C873   H885    1.114   .     S
C873   H886    1.109   .     S
C873   O902    1.410   .     S
C873   H884    1.114   .     S
C874   O903    1.221   .     D
C874   H887    1.085   .     S
C875   O902    1.380   .     S
C876   C877    1.428   .     A
C876   C326    1.432   1_556 S
C876   C329    1.433   1_556 S
C877   C881    1.410   .     A
C879   C880    1.388   .     A
C879   C320    1.401   1_556 S
C879   C329    1.425   1_556 S
C880   C881    1.380   .     A
C880   H890    1.084   .     S
C881   H895    1.081   .     S
H883   C1055   1.085   .     S
H888   C739    1.086   1_655 S
H889   C1046   1.086   .     S
H891   C320    1.084   1_556 S
O896   Zn913   1.951   .     S
O896   Zn912   1.966   .     S
O896   Zn915   1.940   .     S
O896   Zn914   1.916   .     S
O897   Zn913   1.929   .     S
O898   Zn915   1.946   .     S
O899   Zn914   1.946   .     S
O900   Zn912   1.933   .     S
O904   Zn912   1.929   .     S
O905   Zn915   1.924   .     S
O906   Zn913   1.927   .     S
O907   Zn914   1.942   .     S
O908   Zn915   1.933   .     S
O909   Zn912   1.917   .     S
O910   Zn913   1.936   .     S
O911   Zn914   1.936   .     S
C916   O969    1.273   .     A
C916   O967    1.276   .     A
C916   C922    1.439   .     S
C917   C931    1.393   .     A
C917   H953    1.075   .     S
C917   C939    1.409   .     A
C918   C930    1.386   .     A
C918   H943    1.084   .     S
C918   C931    1.394   .     A
C919   O968    1.276   .     A
C919   O970    1.282   .     A
C919   C921    1.466   .     S
C920   C938    1.417   .     A
C920   C932    1.398   .     A
C920   C929    1.475   .     S
C921   C983    1.347   .     S
C921   C996    1.498   .     S
C922   C1043   1.347   1_455 S
C922   H1071   1.086   1_455 S
C923   C926    1.463   .     S
C923   C558    1.344   1_565 S
C923   C567    1.500   1_565 S
C924   C925    1.437   .     S
C925   O965    1.282   .     A
C925   O971    1.281   .     A
C926   O972    1.265   .     A
C926   O966    1.276   .     A
C927   C932    1.384   .     A
C927   C387    1.397   1_556 S
C927   H406    1.083   1_556 S
C928   C931    1.448   .     S
C928   O960    1.265   .     A
C928   O958    1.273   .     A
C929   O961    1.287   .     A
C929   O959    1.287   .     A
C932   H954    1.083   .     S
C933   O962    1.221   .     D
C934   H946    1.114   .     S
C934   H947    1.109   .     S
C934   O963    1.410   .     S
C934   H945    1.114   .     S
C935   O964    1.221   .     D
C935   H948    1.085   .     S
C935   C1043   1.498   1_455 S
C936   O963    1.380   .     S
C937   C938    1.428   .     A
C937   C387    1.432   1_556 S
C937   C390    1.433   1_556 S
C938   C942    1.410   .     A
C940   C941    1.388   .     A
C940   C381    1.401   1_556 S
C940   C390    1.425   1_556 S
C941   C942    1.380   .     A
C941   H951    1.084   .     S
C942   H956    1.081   .     S
H944   C567    1.085   1_565 S
H949   C983    1.086   .     S
H950   C558    1.086   1_565 S
H952   C381    1.084   1_556 S
O957   Zn974   1.951   .     S
O957   Zn973   1.966   .     S
O957   Zn976   1.940   .     S
O957   Zn975   1.916   .     S
O958   Zn974   1.929   .     S
O959   Zn976   1.946   .     S
O960   Zn975   1.946   .     S
O961   Zn973   1.933   .     S
O965   Zn973   1.929   .     S
O966   Zn976   1.924   .     S
O967   Zn974   1.927   .     S
O968   Zn975   1.942   .     S
O969   Zn976   1.933   .     S
O970   Zn973   1.917   .     S
O971   Zn974   1.936   .     S
O972   Zn975   1.936   .     S
C977   O1030   1.273   .     A
C977   O1028   1.276   .     A
C977   C983    1.439   .     S
C978   C992    1.393   .     A
C978   H1014   1.075   .     S
C978   C1000   1.409   .     A
C979   C991    1.386   .     A
C979   H1004   1.084   .     S
C979   C992    1.394   .     A
C980   O1029   1.276   .     A
C980   O1031   1.282   .     A
C980   C982    1.466   .     S
C981   C999    1.417   .     A
C981   C993    1.398   .     A
C981   C990    1.475   .     S
C982   C1044   1.347   .     S
C982   C1057   1.498   .     S
C984   C987    1.463   .     S
C984   C619    1.344   1_565 S
C984   C628    1.500   1_565 S
C985   C986    1.437   .     S
C986   O1026   1.282   .     A
C986   O1032   1.281   .     A
C987   O1033   1.265   .     A
C987   O1027   1.276   .     A
C988   C993    1.384   .     A
C988   C448    1.397   1_556 S
C988   H467    1.083   1_556 S
C989   C992    1.448   .     S
C989   O1021   1.265   .     A
C989   O1019   1.273   .     A
C990   O1022   1.287   .     A
C990   O1020   1.287   .     A
C993   H1015   1.083   .     S
C994   O1023   1.221   .     D
C995   H1007   1.114   .     S
C995   H1008   1.109   .     S
C995   O1024   1.410   .     S
C995   H1006   1.114   .     S
C996   O1025   1.221   .     D
C996   H1009   1.085   .     S
C997   O1024   1.380   .     S
C998   C999    1.428   .     A
C998   C448    1.432   1_556 S
C998   C451    1.433   1_556 S
C999   C1003   1.410   .     A
C1001  C1002   1.388   .     A
C1001  C442    1.401   1_556 S
C1001  C451    1.425   1_556 S
C1002  C1003   1.380   .     A
C1002  H1012   1.084   .     S
C1003  H1017   1.081   .     S
H1005  C628    1.085   1_565 S
H1010  C1044   1.086   .     S
H1011  C619    1.086   1_565 S
H1013  C442    1.084   1_556 S
O1018  Zn1035  1.951   .     S
O1018  Zn1034  1.966   .     S
O1018  Zn1037  1.940   .     S
O1018  Zn1036  1.916   .     S
O1019  Zn1035  1.929   .     S
O1020  Zn1037  1.946   .     S
O1021  Zn1036  1.946   .     S
O1022  Zn1034  1.933   .     S
O1026  Zn1034  1.929   .     S
O1027  Zn1037  1.924   .     S
O1028  Zn1035  1.927   .     S
O1029  Zn1036  1.942   .     S
O1030  Zn1037  1.933   .     S
O1031  Zn1034  1.917   .     S
O1032  Zn1035  1.936   .     S
O1033  Zn1036  1.936   .     S
C1038  O1091   1.273   .     A
C1038  O1089   1.276   .     A
C1038  C1044   1.439   .     S
C1039  C1053   1.393   .     A
C1039  H1075   1.075   .     S
C1039  C1061   1.409   .     A
C1040  C1052   1.386   .     A
C1040  H1065   1.084   .     S
C1040  C1053   1.394   .     A
C1041  O1090   1.276   .     A
C1041  O1092   1.282   .     A
C1041  C1043   1.466   .     S
C1042  C1060   1.417   .     A
C1042  C1054   1.398   .     A
C1042  C1051   1.475   .     S
C1043  C922    1.347   1_655 S
C1043  C935    1.498   1_655 S
C1045  C1048   1.463   .     S
C1045  C680    1.344   1_565 S
C1045  C689    1.500   1_565 S
C1046  C1047   1.437   .     S
C1047  O1087   1.282   .     A
C1047  O1093   1.281   .     A
C1048  O1094   1.265   .     A
C1048  O1088   1.276   .     A
C1049  C1054   1.384   .     A
C1049  C509    1.397   1_556 S
C1049  H528    1.083   1_556 S
C1050  C1053   1.448   .     S
C1050  O1082   1.265   .     A
C1050  O1080   1.273   .     A
C1051  O1083   1.287   .     A
C1051  O1081   1.287   .     A
C1054  H1076   1.083   .     S
C1055  O1084   1.221   .     D
C1056  H1068   1.114   .     S
C1056  H1069   1.109   .     S
C1056  O1085   1.410   .     S
C1056  H1067   1.114   .     S
C1057  O1086   1.221   .     D
C1057  H1070   1.085   .     S
C1058  O1085   1.380   .     S
C1059  C1060   1.428   .     A
C1059  C509    1.432   1_556 S
C1059  C512    1.433   1_556 S
C1060  C1064   1.410   .     A
C1062  C1063   1.388   .     A
C1062  C503    1.401   1_556 S
C1062  C512    1.425   1_556 S
C1063  C1064   1.380   .     A
C1063  H1073   1.084   .     S
C1064  H1078   1.081   .     S
H1066  C689    1.085   1_565 S
H1071  C922    1.086   1_655 S
H1072  C680    1.086   1_565 S
H1074  C503    1.084   1_556 S
O1079  Zn1096  1.951   .     S
O1079  Zn1095  1.966   .     S
O1079  Zn1098  1.940   .     S
O1079  Zn1097  1.916   .     S
O1080  Zn1096  1.929   .     S
O1081  Zn1098  1.946   .     S
O1082  Zn1097  1.946   .     S
O1083  Zn1095  1.933   .     S
O1087  Zn1095  1.929   .     S
O1088  Zn1098  1.924   .     S
O1089  Zn1096  1.927   .     S
O1090  Zn1097  1.942   .     S
O1091  Zn1098  1.933   .     S
O1092  Zn1095  1.917   .     S
O1093  Zn1096  1.936   .     S
O1094  Zn1097  1.936   .     S
