data_str_m2_o10_o17_pcu_sym.108
_audit_creation_date              2020-01-03
_audit_creation_method            'Materials Studio'
_symmetry_space_group_name_H-M    'P1'
_symmetry_Int_Tables_number       1
_symmetry_cell_setting            triclinic
loop_
_symmetry_equiv_pos_as_xyz
  x,y,z
_cell_length_a                    29.9489
_cell_length_b                    26.3068
_cell_length_c                    22.2978
_cell_angle_alpha                 103.0205
_cell_angle_beta                  93.6935
_cell_angle_gamma                 93.4210
loop_
_atom_site_label
_atom_site_type_symbol
_atom_site_fract_x
_atom_site_fract_y
_atom_site_fract_z
_atom_site_U_iso_or_equiv
_atom_site_adp_type
_atom_site_occupancy
C1     C     0.24811   0.06671   0.15128   0.00000  Uiso   1.00
C2     C     0.25191   0.26669   0.18214   0.00000  Uiso   1.00
C3     C     0.01763   0.08019   0.19121   0.00000  Uiso   1.00
C4     C     0.48343   0.25878   0.15929   0.00000  Uiso   1.00
C5     C     0.24181   0.01121   0.14380   0.00000  Uiso   1.00
C6     C     0.25624   0.32277   0.19035   0.00000  Uiso   1.00
C7     C     0.16450   0.16530   0.16752   0.00000  Uiso   1.00
C8     C     0.33555   0.16850   0.16595   0.00000  Uiso   1.00
C9     C     0.40932   0.21321   0.15631   0.00000  Uiso   1.00
C10    C     0.09058   0.12009   0.17579   0.00000  Uiso   1.00
C11    C     0.38371   0.16881   0.16435   0.00000  Uiso   1.00
C12    C     0.11643   0.16500   0.16970   0.00000  Uiso   1.00
C13    C     0.40422   0.12550   0.17623   0.00000  Uiso   1.00
C14    C     0.09639   0.21069   0.16545   0.00000  Uiso   1.00
C15    C     0.45066   0.12507   0.17931   0.00000  Uiso   1.00
C16    C     0.05016   0.21244   0.16661   0.00000  Uiso   1.00
C17    C     0.47692   0.16916   0.17178   0.00000  Uiso   1.00
C18    C     0.02381   0.16818   0.17336   0.00000  Uiso   1.00
C19    C     0.45638   0.21409   0.16238   0.00000  Uiso   1.00
C20    C     0.04422   0.12268   0.18071   0.00000  Uiso   1.00
C21    C     0.47122   0.08141   0.19050   0.00000  Uiso   1.00
C22    C     0.02991   0.25782   0.16119   0.00000  Uiso   1.00
Cu23   Cu    0.25501   0.17246   0.22813   0.00000  Uiso   1.00
Cu24   Cu    0.24500   0.16087   0.10521   0.00000  Uiso   1.00
H25    H     0.38378   0.09207   0.18302   0.00000  Uiso   1.00
H26    H     0.11695   0.24475   0.16064   0.00000  Uiso   1.00
H27    H     0.45129   0.04807   0.19817   0.00000  Uiso   1.00
H28    H     0.05018   0.29229   0.15781   0.00000  Uiso   1.00
H29    H     0.03256   0.04577   0.19958   0.00000  Uiso   1.00
H30    H     0.46887   0.29443   0.15479   0.00000  Uiso   1.00
H31    H     0.21518   0.12552   0.31612   0.00000  Uiso   1.00
H32    H     0.28460   0.20798   0.01719   0.00000  Uiso   1.00
N33    N     0.23745   0.15214   0.01284   0.00000  Uiso   1.00
N34    N     0.26256   0.18119   0.32049   0.00000  Uiso   1.00
O35    O     0.25326   0.09538   0.20659   0.00000  Uiso   1.00
O36    O     0.24675   0.23796   0.12674   0.00000  Uiso   1.00
O37    O     0.24480   0.08559   0.10279   0.00000  Uiso   1.00
O38    O     0.25520   0.24774   0.23055   0.00000  Uiso   1.00
O39    O     0.18936   0.17155   0.21857   0.00000  Uiso   1.00
O40    O     0.31065   0.16179   0.11476   0.00000  Uiso   1.00
O41    O     0.18090   0.16176   0.11477   0.00000  Uiso   1.00
O42    O     0.31910   0.17157   0.21857   0.00000  Uiso   1.00
O43    O     0.38871   0.25737   0.14855   0.00000  Uiso   1.00
C44    C     0.37270   0.25142   0.08593   0.00000  Uiso   1.00
H45    H     0.33914   0.26725   0.08575   0.00000  Uiso   1.00
H46    H     0.36819   0.20995   0.05887   0.00000  Uiso   1.00
C47    C     0.40378   0.28301   0.05346   0.00000  Uiso   1.00
H48    H     0.40878   0.32424   0.08049   0.00000  Uiso   1.00
H49    H     0.43684   0.26605   0.05017   0.00000  Uiso   1.00
C50    C     0.38441   0.28209   0.32156   0.00000  Uiso   1.00
H51    H     0.38072   0.24135   0.29329   0.00000  Uiso   1.00
H52    H     0.40736   0.30579   0.29952   0.00000  Uiso   1.00
H53    H     0.35119   0.29867   0.32293   0.00000  Uiso   1.00
O54    O     0.10993   0.07403   0.17892   0.00000  Uiso   1.00
C55    C     0.12063   0.04654   0.11973   0.00000  Uiso   1.00
H56    H     0.13365   0.00935   0.12600   0.00000  Uiso   1.00
H57    H     0.14819   0.06782   0.10242   0.00000  Uiso   1.00
C58    C     0.08034   0.03269   0.07068   0.00000  Uiso   1.00
H59    H     0.05199   0.01333   0.08880   0.00000  Uiso   1.00
H60    H     0.06896   0.06884   0.05865   0.00000  Uiso   1.00
C61    C     0.09291   0.32945   0.01174   0.00000  Uiso   1.00
H62    H     0.12097   0.01480   0.32543   0.00000  Uiso   1.00
H63    H     0.06355   0.32077   0.31032   0.00000  Uiso   1.00
H64    H     0.10308   0.29203   0.02156   0.00000  Uiso   1.00
O65    O     0.21946   0.31663   0.08895   0.00000  Uiso   1.00
H66    H     0.19510   0.29370   0.09939   0.00000  Uiso   1.00
O67    O     0.27805   0.02037   0.24435   0.00000  Uiso   1.00
H68    H     0.28943   0.33158   0.27155   0.00000  Uiso   1.00
C69    C     0.74811   0.06671   0.15128   0.00000  Uiso   1.00
C70    C     0.75191   0.26669   0.18214   0.00000  Uiso   1.00
C71    C     0.51763   0.08019   0.19121   0.00000  Uiso   1.00
C72    C     0.98343   0.25878   0.15929   0.00000  Uiso   1.00
C73    C     0.74181   0.01121   0.14380   0.00000  Uiso   1.00
C74    C     0.75624   0.32277   0.19035   0.00000  Uiso   1.00
C75    C     0.66450   0.16530   0.16752   0.00000  Uiso   1.00
C76    C     0.83555   0.16850   0.16595   0.00000  Uiso   1.00
C77    C     0.90932   0.21321   0.15631   0.00000  Uiso   1.00
C78    C     0.59058   0.12009   0.17579   0.00000  Uiso   1.00
C79    C     0.88371   0.16881   0.16435   0.00000  Uiso   1.00
C80    C     0.61643   0.16500   0.16970   0.00000  Uiso   1.00
C81    C     0.90422   0.12550   0.17623   0.00000  Uiso   1.00
C82    C     0.59639   0.21069   0.16545   0.00000  Uiso   1.00
C83    C     0.95066   0.12507   0.17931   0.00000  Uiso   1.00
C84    C     0.55016   0.21244   0.16661   0.00000  Uiso   1.00
C85    C     0.97692   0.16916   0.17178   0.00000  Uiso   1.00
C86    C     0.52381   0.16818   0.17336   0.00000  Uiso   1.00
C87    C     0.95638   0.21409   0.16238   0.00000  Uiso   1.00
C88    C     0.54422   0.12268   0.18071   0.00000  Uiso   1.00
C89    C     0.97122   0.08141   0.19050   0.00000  Uiso   1.00
C90    C     0.52991   0.25782   0.16119   0.00000  Uiso   1.00
Cu91   Cu    0.75501   0.17246   0.22813   0.00000  Uiso   1.00
Cu92   Cu    0.74500   0.16087   0.10521   0.00000  Uiso   1.00
H93    H     0.88378   0.09207   0.18302   0.00000  Uiso   1.00
H94    H     0.61695   0.24475   0.16064   0.00000  Uiso   1.00
H95    H     0.95129   0.04807   0.19817   0.00000  Uiso   1.00
H96    H     0.55018   0.29229   0.15781   0.00000  Uiso   1.00
H97    H     0.53256   0.04577   0.19958   0.00000  Uiso   1.00
H98    H     0.96887   0.29443   0.15479   0.00000  Uiso   1.00
H99    H     0.71518   0.12552   0.31612   0.00000  Uiso   1.00
H100   H     0.78460   0.20798   0.01719   0.00000  Uiso   1.00
N101   N     0.73745   0.15214   0.01284   0.00000  Uiso   1.00
N102   N     0.76256   0.18119   0.32049   0.00000  Uiso   1.00
O103   O     0.75326   0.09538   0.20659   0.00000  Uiso   1.00
O104   O     0.74675   0.23796   0.12674   0.00000  Uiso   1.00
O105   O     0.74480   0.08559   0.10279   0.00000  Uiso   1.00
O106   O     0.75520   0.24774   0.23055   0.00000  Uiso   1.00
O107   O     0.68936   0.17155   0.21857   0.00000  Uiso   1.00
O108   O     0.81065   0.16179   0.11476   0.00000  Uiso   1.00
O109   O     0.68090   0.16176   0.11477   0.00000  Uiso   1.00
O110   O     0.81910   0.17157   0.21857   0.00000  Uiso   1.00
O111   O     0.88871   0.25737   0.14855   0.00000  Uiso   1.00
C112   C     0.87270   0.25142   0.08593   0.00000  Uiso   1.00
H113   H     0.83914   0.26725   0.08575   0.00000  Uiso   1.00
H114   H     0.86819   0.20995   0.05887   0.00000  Uiso   1.00
C115   C     0.90378   0.28301   0.05346   0.00000  Uiso   1.00
H116   H     0.90878   0.32424   0.08049   0.00000  Uiso   1.00
H117   H     0.93684   0.26605   0.05017   0.00000  Uiso   1.00
C118   C     0.88441   0.28209   0.32156   0.00000  Uiso   1.00
H119   H     0.88072   0.24135   0.29329   0.00000  Uiso   1.00
H120   H     0.90736   0.30579   0.29952   0.00000  Uiso   1.00
H121   H     0.85119   0.29867   0.32293   0.00000  Uiso   1.00
O122   O     0.60993   0.07403   0.17892   0.00000  Uiso   1.00
C123   C     0.62063   0.04654   0.11973   0.00000  Uiso   1.00
H124   H     0.63365   0.00935   0.12600   0.00000  Uiso   1.00
H125   H     0.64819   0.06782   0.10242   0.00000  Uiso   1.00
C126   C     0.58034   0.03269   0.07068   0.00000  Uiso   1.00
H127   H     0.55199   0.01333   0.08880   0.00000  Uiso   1.00
H128   H     0.56896   0.06884   0.05865   0.00000  Uiso   1.00
C129   C     0.59291   0.32945   0.01174   0.00000  Uiso   1.00
H130   H     0.62097   0.01480   0.32543   0.00000  Uiso   1.00
H131   H     0.56355   0.32077   0.31032   0.00000  Uiso   1.00
H132   H     0.60308   0.29203   0.02156   0.00000  Uiso   1.00
O133   O     0.71946   0.31663   0.08895   0.00000  Uiso   1.00
H134   H     0.69510   0.29370   0.09939   0.00000  Uiso   1.00
O135   O     0.77805   0.02037   0.24435   0.00000  Uiso   1.00
H136   H     0.78943   0.33158   0.27155   0.00000  Uiso   1.00
C137   C     0.24811   0.40004   0.15128   0.00000  Uiso   1.00
C138   C     0.25191   0.60003   0.18214   0.00000  Uiso   1.00
C139   C     0.01763   0.41352   0.19121   0.00000  Uiso   1.00
C140   C     0.48343   0.59211   0.15929   0.00000  Uiso   1.00
C141   C     0.24181   0.34454   0.14380   0.00000  Uiso   1.00
C142   C     0.25624   0.65610   0.19035   0.00000  Uiso   1.00
C143   C     0.16450   0.49864   0.16752   0.00000  Uiso   1.00
C144   C     0.33555   0.50183   0.16595   0.00000  Uiso   1.00
C145   C     0.40932   0.54654   0.15631   0.00000  Uiso   1.00
C146   C     0.09058   0.45342   0.17579   0.00000  Uiso   1.00
C147   C     0.38371   0.50214   0.16435   0.00000  Uiso   1.00
C148   C     0.11643   0.49833   0.16970   0.00000  Uiso   1.00
C149   C     0.40422   0.45883   0.17623   0.00000  Uiso   1.00
C150   C     0.09639   0.54403   0.16545   0.00000  Uiso   1.00
C151   C     0.45066   0.45840   0.17931   0.00000  Uiso   1.00
C152   C     0.05016   0.54577   0.16661   0.00000  Uiso   1.00
C153   C     0.47692   0.50249   0.17178   0.00000  Uiso   1.00
C154   C     0.02381   0.50152   0.17336   0.00000  Uiso   1.00
C155   C     0.45638   0.54742   0.16238   0.00000  Uiso   1.00
C156   C     0.04422   0.45602   0.18071   0.00000  Uiso   1.00
C157   C     0.47122   0.41475   0.19050   0.00000  Uiso   1.00
C158   C     0.02991   0.59115   0.16119   0.00000  Uiso   1.00
Cu159  Cu    0.25501   0.50579   0.22813   0.00000  Uiso   1.00
Cu160  Cu    0.24500   0.49421   0.10521   0.00000  Uiso   1.00
H161   H     0.38378   0.42540   0.18302   0.00000  Uiso   1.00
H162   H     0.11695   0.57808   0.16064   0.00000  Uiso   1.00
H163   H     0.45129   0.38141   0.19817   0.00000  Uiso   1.00
H164   H     0.05018   0.62563   0.15781   0.00000  Uiso   1.00
H165   H     0.03256   0.37910   0.19958   0.00000  Uiso   1.00
H166   H     0.46887   0.62777   0.15479   0.00000  Uiso   1.00
H167   H     0.21518   0.45885   0.31612   0.00000  Uiso   1.00
H168   H     0.28460   0.54131   0.01719   0.00000  Uiso   1.00
N169   N     0.23745   0.48547   0.01284   0.00000  Uiso   1.00
N170   N     0.26256   0.51453   0.32049   0.00000  Uiso   1.00
O171   O     0.25326   0.42871   0.20659   0.00000  Uiso   1.00
O172   O     0.24675   0.57129   0.12674   0.00000  Uiso   1.00
O173   O     0.24480   0.41892   0.10279   0.00000  Uiso   1.00
O174   O     0.25520   0.58108   0.23055   0.00000  Uiso   1.00
O175   O     0.18936   0.50488   0.21857   0.00000  Uiso   1.00
O176   O     0.31065   0.49512   0.11476   0.00000  Uiso   1.00
O177   O     0.18090   0.49510   0.11477   0.00000  Uiso   1.00
O178   O     0.31910   0.50490   0.21857   0.00000  Uiso   1.00
O179   O     0.38871   0.59071   0.14855   0.00000  Uiso   1.00
C180   C     0.37270   0.58475   0.08593   0.00000  Uiso   1.00
H181   H     0.33914   0.60058   0.08575   0.00000  Uiso   1.00
H182   H     0.36819   0.54328   0.05887   0.00000  Uiso   1.00
C183   C     0.40378   0.61635   0.05346   0.00000  Uiso   1.00
H184   H     0.40878   0.65757   0.08049   0.00000  Uiso   1.00
H185   H     0.43684   0.59939   0.05017   0.00000  Uiso   1.00
C186   C     0.38441   0.61542   0.32156   0.00000  Uiso   1.00
H187   H     0.38072   0.57468   0.29329   0.00000  Uiso   1.00
H188   H     0.40736   0.63913   0.29952   0.00000  Uiso   1.00
H189   H     0.35119   0.63200   0.32293   0.00000  Uiso   1.00
O190   O     0.10993   0.40736   0.17892   0.00000  Uiso   1.00
C191   C     0.12063   0.37987   0.11973   0.00000  Uiso   1.00
H192   H     0.13365   0.34268   0.12600   0.00000  Uiso   1.00
H193   H     0.14819   0.40116   0.10242   0.00000  Uiso   1.00
C194   C     0.08034   0.36602   0.07068   0.00000  Uiso   1.00
H195   H     0.05199   0.34666   0.08880   0.00000  Uiso   1.00
H196   H     0.06896   0.40218   0.05865   0.00000  Uiso   1.00
C197   C     0.09291   0.66279   0.01174   0.00000  Uiso   1.00
H198   H     0.12097   0.34813   0.32543   0.00000  Uiso   1.00
H199   H     0.06355   0.65410   0.31032   0.00000  Uiso   1.00
H200   H     0.10308   0.62536   0.02156   0.00000  Uiso   1.00
O201   O     0.21946   0.64996   0.08895   0.00000  Uiso   1.00
H202   H     0.19510   0.62703   0.09939   0.00000  Uiso   1.00
O203   O     0.27805   0.35370   0.24435   0.00000  Uiso   1.00
H204   H     0.28943   0.66491   0.27155   0.00000  Uiso   1.00
C205   C     0.74811   0.40004   0.15128   0.00000  Uiso   1.00
C206   C     0.75191   0.60003   0.18214   0.00000  Uiso   1.00
C207   C     0.51763   0.41352   0.19121   0.00000  Uiso   1.00
C208   C     0.98343   0.59211   0.15929   0.00000  Uiso   1.00
C209   C     0.74181   0.34454   0.14380   0.00000  Uiso   1.00
C210   C     0.75624   0.65610   0.19035   0.00000  Uiso   1.00
C211   C     0.66450   0.49864   0.16752   0.00000  Uiso   1.00
C212   C     0.83555   0.50183   0.16595   0.00000  Uiso   1.00
C213   C     0.90932   0.54654   0.15631   0.00000  Uiso   1.00
C214   C     0.59058   0.45342   0.17579   0.00000  Uiso   1.00
C215   C     0.88371   0.50214   0.16435   0.00000  Uiso   1.00
C216   C     0.61643   0.49833   0.16970   0.00000  Uiso   1.00
C217   C     0.90422   0.45883   0.17623   0.00000  Uiso   1.00
C218   C     0.59639   0.54403   0.16545   0.00000  Uiso   1.00
C219   C     0.95066   0.45840   0.17931   0.00000  Uiso   1.00
C220   C     0.55016   0.54577   0.16661   0.00000  Uiso   1.00
C221   C     0.97692   0.50249   0.17178   0.00000  Uiso   1.00
C222   C     0.52381   0.50152   0.17336   0.00000  Uiso   1.00
C223   C     0.95638   0.54742   0.16238   0.00000  Uiso   1.00
C224   C     0.54422   0.45602   0.18071   0.00000  Uiso   1.00
C225   C     0.97122   0.41475   0.19050   0.00000  Uiso   1.00
C226   C     0.52991   0.59115   0.16119   0.00000  Uiso   1.00
Cu227  Cu    0.75501   0.50579   0.22813   0.00000  Uiso   1.00
Cu228  Cu    0.74500   0.49421   0.10521   0.00000  Uiso   1.00
H229   H     0.88378   0.42540   0.18302   0.00000  Uiso   1.00
H230   H     0.61695   0.57808   0.16064   0.00000  Uiso   1.00
H231   H     0.95129   0.38141   0.19817   0.00000  Uiso   1.00
H232   H     0.55018   0.62563   0.15781   0.00000  Uiso   1.00
H233   H     0.53256   0.37910   0.19958   0.00000  Uiso   1.00
H234   H     0.96887   0.62777   0.15479   0.00000  Uiso   1.00
H235   H     0.71518   0.45885   0.31612   0.00000  Uiso   1.00
H236   H     0.78460   0.54131   0.01719   0.00000  Uiso   1.00
N237   N     0.73745   0.48547   0.01284   0.00000  Uiso   1.00
N238   N     0.76256   0.51453   0.32049   0.00000  Uiso   1.00
O239   O     0.75326   0.42871   0.20659   0.00000  Uiso   1.00
O240   O     0.74675   0.57129   0.12674   0.00000  Uiso   1.00
O241   O     0.74480   0.41892   0.10279   0.00000  Uiso   1.00
O242   O     0.75520   0.58108   0.23055   0.00000  Uiso   1.00
O243   O     0.68936   0.50488   0.21857   0.00000  Uiso   1.00
O244   O     0.81065   0.49512   0.11476   0.00000  Uiso   1.00
O245   O     0.68090   0.49510   0.11477   0.00000  Uiso   1.00
O246   O     0.81910   0.50490   0.21857   0.00000  Uiso   1.00
O247   O     0.88871   0.59071   0.14855   0.00000  Uiso   1.00
C248   C     0.87270   0.58475   0.08593   0.00000  Uiso   1.00
H249   H     0.83914   0.60058   0.08575   0.00000  Uiso   1.00
H250   H     0.86819   0.54328   0.05887   0.00000  Uiso   1.00
C251   C     0.90378   0.61635   0.05346   0.00000  Uiso   1.00
H252   H     0.90878   0.65757   0.08049   0.00000  Uiso   1.00
H253   H     0.93684   0.59939   0.05017   0.00000  Uiso   1.00
C254   C     0.88441   0.61542   0.32156   0.00000  Uiso   1.00
H255   H     0.88072   0.57468   0.29329   0.00000  Uiso   1.00
H256   H     0.90736   0.63913   0.29952   0.00000  Uiso   1.00
H257   H     0.85119   0.63200   0.32293   0.00000  Uiso   1.00
O258   O     0.60993   0.40736   0.17892   0.00000  Uiso   1.00
C259   C     0.62063   0.37987   0.11973   0.00000  Uiso   1.00
H260   H     0.63365   0.34268   0.12600   0.00000  Uiso   1.00
H261   H     0.64819   0.40116   0.10242   0.00000  Uiso   1.00
C262   C     0.58034   0.36602   0.07068   0.00000  Uiso   1.00
H263   H     0.55199   0.34666   0.08880   0.00000  Uiso   1.00
H264   H     0.56896   0.40218   0.05865   0.00000  Uiso   1.00
C265   C     0.59291   0.66279   0.01174   0.00000  Uiso   1.00
H266   H     0.62097   0.34813   0.32543   0.00000  Uiso   1.00
H267   H     0.56355   0.65410   0.31032   0.00000  Uiso   1.00
H268   H     0.60308   0.62536   0.02156   0.00000  Uiso   1.00
O269   O     0.71946   0.64996   0.08895   0.00000  Uiso   1.00
H270   H     0.69510   0.62703   0.09939   0.00000  Uiso   1.00
O271   O     0.77805   0.35370   0.24435   0.00000  Uiso   1.00
H272   H     0.78943   0.66491   0.27155   0.00000  Uiso   1.00
C273   C     0.24811   0.73338   0.15128   0.00000  Uiso   1.00
C274   C     0.25191   0.93336   0.18214   0.00000  Uiso   1.00
C275   C     0.01763   0.74686   0.19121   0.00000  Uiso   1.00
C276   C     0.48343   0.92544   0.15929   0.00000  Uiso   1.00
C277   C     0.24181   0.67788   0.14380   0.00000  Uiso   1.00
C278   C     0.25624   0.98944   0.19035   0.00000  Uiso   1.00
C279   C     0.16450   0.83197   0.16752   0.00000  Uiso   1.00
C280   C     0.33555   0.83517   0.16595   0.00000  Uiso   1.00
C281   C     0.40932   0.87987   0.15631   0.00000  Uiso   1.00
C282   C     0.09058   0.78676   0.17579   0.00000  Uiso   1.00
C283   C     0.38371   0.83548   0.16435   0.00000  Uiso   1.00
C284   C     0.11643   0.83167   0.16970   0.00000  Uiso   1.00
C285   C     0.40422   0.79217   0.17623   0.00000  Uiso   1.00
C286   C     0.09639   0.87736   0.16545   0.00000  Uiso   1.00
C287   C     0.45066   0.79173   0.17931   0.00000  Uiso   1.00
C288   C     0.05016   0.87911   0.16661   0.00000  Uiso   1.00
C289   C     0.47692   0.83583   0.17178   0.00000  Uiso   1.00
C290   C     0.02381   0.83485   0.17336   0.00000  Uiso   1.00
C291   C     0.45638   0.88076   0.16238   0.00000  Uiso   1.00
C292   C     0.04422   0.78935   0.18071   0.00000  Uiso   1.00
C293   C     0.47122   0.74808   0.19050   0.00000  Uiso   1.00
C294   C     0.02991   0.92448   0.16119   0.00000  Uiso   1.00
Cu295  Cu    0.25501   0.83913   0.22813   0.00000  Uiso   1.00
Cu296  Cu    0.24500   0.82754   0.10521   0.00000  Uiso   1.00
H297   H     0.38378   0.75873   0.18302   0.00000  Uiso   1.00
H298   H     0.11695   0.91141   0.16064   0.00000  Uiso   1.00
H299   H     0.45129   0.71474   0.19817   0.00000  Uiso   1.00
H300   H     0.05018   0.95896   0.15781   0.00000  Uiso   1.00
H301   H     0.03256   0.71243   0.19958   0.00000  Uiso   1.00
H302   H     0.46887   0.96110   0.15479   0.00000  Uiso   1.00
H303   H     0.21518   0.79218   0.31612   0.00000  Uiso   1.00
H304   H     0.28460   0.87464   0.01719   0.00000  Uiso   1.00
N305   N     0.23745   0.81881   0.01284   0.00000  Uiso   1.00
N306   N     0.26256   0.84786   0.32049   0.00000  Uiso   1.00
O307   O     0.25326   0.76204   0.20659   0.00000  Uiso   1.00
O308   O     0.24675   0.90462   0.12674   0.00000  Uiso   1.00
O309   O     0.24480   0.75226   0.10279   0.00000  Uiso   1.00
O310   O     0.25520   0.91441   0.23055   0.00000  Uiso   1.00
O311   O     0.18936   0.83821   0.21857   0.00000  Uiso   1.00
O312   O     0.31065   0.82845   0.11476   0.00000  Uiso   1.00
O313   O     0.18090   0.82843   0.11477   0.00000  Uiso   1.00
O314   O     0.31910   0.83824   0.21857   0.00000  Uiso   1.00
O315   O     0.38871   0.92404   0.14855   0.00000  Uiso   1.00
C316   C     0.37270   0.91809   0.08593   0.00000  Uiso   1.00
H317   H     0.33914   0.93391   0.08575   0.00000  Uiso   1.00
H318   H     0.36819   0.87661   0.05887   0.00000  Uiso   1.00
C319   C     0.40378   0.94968   0.05346   0.00000  Uiso   1.00
H320   H     0.40878   0.99090   0.08049   0.00000  Uiso   1.00
H321   H     0.43684   0.93272   0.05017   0.00000  Uiso   1.00
C322   C     0.38441   0.94876   0.32156   0.00000  Uiso   1.00
H323   H     0.38072   0.90801   0.29329   0.00000  Uiso   1.00
H324   H     0.40736   0.97246   0.29952   0.00000  Uiso   1.00
H325   H     0.35119   0.96533   0.32293   0.00000  Uiso   1.00
O326   O     0.10993   0.74069   0.17892   0.00000  Uiso   1.00
C327   C     0.12063   0.71320   0.11973   0.00000  Uiso   1.00
H328   H     0.13365   0.67602   0.12600   0.00000  Uiso   1.00
H329   H     0.14819   0.73449   0.10242   0.00000  Uiso   1.00
C330   C     0.08034   0.69935   0.07068   0.00000  Uiso   1.00
H331   H     0.05199   0.67999   0.08880   0.00000  Uiso   1.00
H332   H     0.06896   0.73551   0.05865   0.00000  Uiso   1.00
C333   C     0.09291   0.99612   0.01174   0.00000  Uiso   1.00
H334   H     0.12097   0.68146   0.32543   0.00000  Uiso   1.00
H335   H     0.06355   0.98744   0.31032   0.00000  Uiso   1.00
H336   H     0.10308   0.95870   0.02156   0.00000  Uiso   1.00
O337   O     0.21946   0.98329   0.08895   0.00000  Uiso   1.00
H338   H     0.19510   0.96036   0.09939   0.00000  Uiso   1.00
O339   O     0.27805   0.68703   0.24435   0.00000  Uiso   1.00
H340   H     0.28943   0.99825   0.27155   0.00000  Uiso   1.00
C341   C     0.74811   0.73338   0.15128   0.00000  Uiso   1.00
C342   C     0.75191   0.93336   0.18214   0.00000  Uiso   1.00
C343   C     0.51763   0.74686   0.19121   0.00000  Uiso   1.00
C344   C     0.98343   0.92544   0.15929   0.00000  Uiso   1.00
C345   C     0.74181   0.67788   0.14380   0.00000  Uiso   1.00
C346   C     0.75624   0.98944   0.19035   0.00000  Uiso   1.00
C347   C     0.66450   0.83197   0.16752   0.00000  Uiso   1.00
C348   C     0.83555   0.83517   0.16595   0.00000  Uiso   1.00
C349   C     0.90932   0.87987   0.15631   0.00000  Uiso   1.00
C350   C     0.59058   0.78676   0.17579   0.00000  Uiso   1.00
C351   C     0.88371   0.83548   0.16435   0.00000  Uiso   1.00
C352   C     0.61643   0.83167   0.16970   0.00000  Uiso   1.00
C353   C     0.90422   0.79217   0.17623   0.00000  Uiso   1.00
C354   C     0.59639   0.87736   0.16545   0.00000  Uiso   1.00
C355   C     0.95066   0.79173   0.17931   0.00000  Uiso   1.00
C356   C     0.55016   0.87911   0.16661   0.00000  Uiso   1.00
C357   C     0.97692   0.83583   0.17178   0.00000  Uiso   1.00
C358   C     0.52381   0.83485   0.17336   0.00000  Uiso   1.00
C359   C     0.95638   0.88076   0.16238   0.00000  Uiso   1.00
C360   C     0.54422   0.78935   0.18071   0.00000  Uiso   1.00
C361   C     0.97122   0.74808   0.19050   0.00000  Uiso   1.00
C362   C     0.52991   0.92448   0.16119   0.00000  Uiso   1.00
Cu363  Cu    0.75501   0.83913   0.22813   0.00000  Uiso   1.00
Cu364  Cu    0.74500   0.82754   0.10521   0.00000  Uiso   1.00
H365   H     0.88378   0.75873   0.18302   0.00000  Uiso   1.00
H366   H     0.61695   0.91141   0.16064   0.00000  Uiso   1.00
H367   H     0.95129   0.71474   0.19817   0.00000  Uiso   1.00
H368   H     0.55018   0.95896   0.15781   0.00000  Uiso   1.00
H369   H     0.53256   0.71243   0.19958   0.00000  Uiso   1.00
H370   H     0.96887   0.96110   0.15479   0.00000  Uiso   1.00
H371   H     0.71518   0.79218   0.31612   0.00000  Uiso   1.00
H372   H     0.78460   0.87464   0.01719   0.00000  Uiso   1.00
N373   N     0.73745   0.81881   0.01284   0.00000  Uiso   1.00
N374   N     0.76256   0.84786   0.32049   0.00000  Uiso   1.00
O375   O     0.75326   0.76204   0.20659   0.00000  Uiso   1.00
O376   O     0.74675   0.90462   0.12674   0.00000  Uiso   1.00
O377   O     0.74480   0.75226   0.10279   0.00000  Uiso   1.00
O378   O     0.75520   0.91441   0.23055   0.00000  Uiso   1.00
O379   O     0.68936   0.83821   0.21857   0.00000  Uiso   1.00
O380   O     0.81065   0.82845   0.11476   0.00000  Uiso   1.00
O381   O     0.68090   0.82843   0.11477   0.00000  Uiso   1.00
O382   O     0.81910   0.83824   0.21857   0.00000  Uiso   1.00
O383   O     0.88871   0.92404   0.14855   0.00000  Uiso   1.00
C384   C     0.87270   0.91809   0.08593   0.00000  Uiso   1.00
H385   H     0.83914   0.93391   0.08575   0.00000  Uiso   1.00
H386   H     0.86819   0.87661   0.05887   0.00000  Uiso   1.00
C387   C     0.90378   0.94968   0.05346   0.00000  Uiso   1.00
H388   H     0.90878   0.99090   0.08049   0.00000  Uiso   1.00
H389   H     0.93684   0.93272   0.05017   0.00000  Uiso   1.00
C390   C     0.88441   0.94876   0.32156   0.00000  Uiso   1.00
H391   H     0.88072   0.90801   0.29329   0.00000  Uiso   1.00
H392   H     0.90736   0.97246   0.29952   0.00000  Uiso   1.00
H393   H     0.85119   0.96533   0.32293   0.00000  Uiso   1.00
O394   O     0.60993   0.74069   0.17892   0.00000  Uiso   1.00
C395   C     0.62063   0.71320   0.11973   0.00000  Uiso   1.00
H396   H     0.63365   0.67602   0.12600   0.00000  Uiso   1.00
H397   H     0.64819   0.73449   0.10242   0.00000  Uiso   1.00
C398   C     0.58034   0.69935   0.07068   0.00000  Uiso   1.00
H399   H     0.55199   0.67999   0.08880   0.00000  Uiso   1.00
H400   H     0.56896   0.73551   0.05865   0.00000  Uiso   1.00
C401   C     0.59291   0.99612   0.01174   0.00000  Uiso   1.00
H402   H     0.62097   0.68146   0.32543   0.00000  Uiso   1.00
H403   H     0.56355   0.98744   0.31032   0.00000  Uiso   1.00
H404   H     0.60308   0.95870   0.02156   0.00000  Uiso   1.00
O405   O     0.71946   0.98329   0.08895   0.00000  Uiso   1.00
H406   H     0.69510   0.96036   0.09939   0.00000  Uiso   1.00
O407   O     0.77805   0.68703   0.24435   0.00000  Uiso   1.00
H408   H     0.78943   0.99825   0.27155   0.00000  Uiso   1.00
C409   C     0.24811   0.06671   0.48461   0.00000  Uiso   1.00
C410   C     0.25191   0.26669   0.51548   0.00000  Uiso   1.00
C411   C     0.01763   0.08019   0.52455   0.00000  Uiso   1.00
C412   C     0.48343   0.25878   0.49262   0.00000  Uiso   1.00
C413   C     0.24181   0.01121   0.47714   0.00000  Uiso   1.00
C414   C     0.25624   0.32277   0.52368   0.00000  Uiso   1.00
C415   C     0.16450   0.16530   0.50085   0.00000  Uiso   1.00
C416   C     0.33555   0.16850   0.49928   0.00000  Uiso   1.00
C417   C     0.40932   0.21321   0.48964   0.00000  Uiso   1.00
C418   C     0.09058   0.12009   0.50912   0.00000  Uiso   1.00
C419   C     0.38371   0.16881   0.49768   0.00000  Uiso   1.00
C420   C     0.11643   0.16500   0.50303   0.00000  Uiso   1.00
C421   C     0.40422   0.12550   0.50956   0.00000  Uiso   1.00
C422   C     0.09639   0.21069   0.49879   0.00000  Uiso   1.00
C423   C     0.45066   0.12507   0.51264   0.00000  Uiso   1.00
C424   C     0.05016   0.21244   0.49995   0.00000  Uiso   1.00
C425   C     0.47692   0.16916   0.50511   0.00000  Uiso   1.00
C426   C     0.02381   0.16818   0.50669   0.00000  Uiso   1.00
C427   C     0.45638   0.21409   0.49571   0.00000  Uiso   1.00
C428   C     0.04422   0.12268   0.51405   0.00000  Uiso   1.00
C429   C     0.47122   0.08141   0.52384   0.00000  Uiso   1.00
C430   C     0.02991   0.25782   0.49452   0.00000  Uiso   1.00
Cu431  Cu    0.25501   0.17246   0.56146   0.00000  Uiso   1.00
Cu432  Cu    0.24500   0.16087   0.43854   0.00000  Uiso   1.00
H433   H     0.38378   0.09207   0.51635   0.00000  Uiso   1.00
H434   H     0.11695   0.24475   0.49397   0.00000  Uiso   1.00
H435   H     0.45129   0.04807   0.53151   0.00000  Uiso   1.00
H436   H     0.05018   0.29229   0.49115   0.00000  Uiso   1.00
H437   H     0.03256   0.04577   0.53292   0.00000  Uiso   1.00
H438   H     0.46887   0.29443   0.48812   0.00000  Uiso   1.00
H439   H     0.21518   0.12552   0.64946   0.00000  Uiso   1.00
H440   H     0.28460   0.20798   0.35052   0.00000  Uiso   1.00
N441   N     0.23745   0.15214   0.34617   0.00000  Uiso   1.00
N442   N     0.26256   0.18119   0.65383   0.00000  Uiso   1.00
O443   O     0.25326   0.09538   0.53992   0.00000  Uiso   1.00
O444   O     0.24675   0.23796   0.46008   0.00000  Uiso   1.00
O445   O     0.24480   0.08559   0.43612   0.00000  Uiso   1.00
O446   O     0.25520   0.24774   0.56388   0.00000  Uiso   1.00
O447   O     0.18936   0.17155   0.55191   0.00000  Uiso   1.00
O448   O     0.31065   0.16179   0.44809   0.00000  Uiso   1.00
O449   O     0.18090   0.16176   0.44810   0.00000  Uiso   1.00
O450   O     0.31910   0.17157   0.55190   0.00000  Uiso   1.00
O451   O     0.38871   0.25737   0.48188   0.00000  Uiso   1.00
C452   C     0.37270   0.25142   0.41926   0.00000  Uiso   1.00
H453   H     0.33914   0.26725   0.41908   0.00000  Uiso   1.00
H454   H     0.36819   0.20995   0.39220   0.00000  Uiso   1.00
C455   C     0.40378   0.28301   0.38679   0.00000  Uiso   1.00
H456   H     0.40878   0.32424   0.41382   0.00000  Uiso   1.00
H457   H     0.43684   0.26605   0.38350   0.00000  Uiso   1.00
C458   C     0.38441   0.28209   0.65489   0.00000  Uiso   1.00
H459   H     0.38072   0.24135   0.62662   0.00000  Uiso   1.00
H460   H     0.40736   0.30579   0.63285   0.00000  Uiso   1.00
H461   H     0.35119   0.29867   0.65626   0.00000  Uiso   1.00
O462   O     0.10993   0.07403   0.51225   0.00000  Uiso   1.00
C463   C     0.12063   0.04654   0.45307   0.00000  Uiso   1.00
H464   H     0.13365   0.00935   0.45933   0.00000  Uiso   1.00
H465   H     0.14819   0.06782   0.43576   0.00000  Uiso   1.00
C466   C     0.08034   0.03269   0.40402   0.00000  Uiso   1.00
H467   H     0.05199   0.01333   0.42213   0.00000  Uiso   1.00
H468   H     0.06896   0.06884   0.39198   0.00000  Uiso   1.00
C469   C     0.09291   0.32945   0.34507   0.00000  Uiso   1.00
H470   H     0.12097   0.01480   0.65876   0.00000  Uiso   1.00
H471   H     0.06355   0.32077   0.64365   0.00000  Uiso   1.00
H472   H     0.10308   0.29203   0.35489   0.00000  Uiso   1.00
O473   O     0.21946   0.31663   0.42229   0.00000  Uiso   1.00
H474   H     0.19510   0.29370   0.43273   0.00000  Uiso   1.00
O475   O     0.27805   0.02037   0.57768   0.00000  Uiso   1.00
H476   H     0.28943   0.33158   0.60488   0.00000  Uiso   1.00
C477   C     0.74811   0.06671   0.48461   0.00000  Uiso   1.00
C478   C     0.75191   0.26669   0.51548   0.00000  Uiso   1.00
C479   C     0.51763   0.08019   0.52455   0.00000  Uiso   1.00
C480   C     0.98343   0.25878   0.49262   0.00000  Uiso   1.00
C481   C     0.74181   0.01121   0.47714   0.00000  Uiso   1.00
C482   C     0.75624   0.32277   0.52368   0.00000  Uiso   1.00
C483   C     0.66450   0.16530   0.50085   0.00000  Uiso   1.00
C484   C     0.83555   0.16850   0.49928   0.00000  Uiso   1.00
C485   C     0.90932   0.21321   0.48964   0.00000  Uiso   1.00
C486   C     0.59058   0.12009   0.50912   0.00000  Uiso   1.00
C487   C     0.88371   0.16881   0.49768   0.00000  Uiso   1.00
C488   C     0.61643   0.16500   0.50303   0.00000  Uiso   1.00
C489   C     0.90422   0.12550   0.50956   0.00000  Uiso   1.00
C490   C     0.59639   0.21069   0.49879   0.00000  Uiso   1.00
C491   C     0.95066   0.12507   0.51264   0.00000  Uiso   1.00
C492   C     0.55016   0.21244   0.49995   0.00000  Uiso   1.00
C493   C     0.97692   0.16916   0.50511   0.00000  Uiso   1.00
C494   C     0.52381   0.16818   0.50669   0.00000  Uiso   1.00
C495   C     0.95638   0.21409   0.49571   0.00000  Uiso   1.00
C496   C     0.54422   0.12268   0.51405   0.00000  Uiso   1.00
C497   C     0.97122   0.08141   0.52384   0.00000  Uiso   1.00
C498   C     0.52991   0.25782   0.49452   0.00000  Uiso   1.00
Cu499  Cu    0.75501   0.17246   0.56146   0.00000  Uiso   1.00
Cu500  Cu    0.74500   0.16087   0.43854   0.00000  Uiso   1.00
H501   H     0.88378   0.09207   0.51635   0.00000  Uiso   1.00
H502   H     0.61695   0.24475   0.49397   0.00000  Uiso   1.00
H503   H     0.95129   0.04807   0.53151   0.00000  Uiso   1.00
H504   H     0.55018   0.29229   0.49115   0.00000  Uiso   1.00
H505   H     0.53256   0.04577   0.53292   0.00000  Uiso   1.00
H506   H     0.96887   0.29443   0.48812   0.00000  Uiso   1.00
H507   H     0.71518   0.12552   0.64946   0.00000  Uiso   1.00
H508   H     0.78460   0.20798   0.35052   0.00000  Uiso   1.00
N509   N     0.73745   0.15214   0.34617   0.00000  Uiso   1.00
N510   N     0.76256   0.18119   0.65383   0.00000  Uiso   1.00
O511   O     0.75326   0.09538   0.53992   0.00000  Uiso   1.00
O512   O     0.74675   0.23796   0.46008   0.00000  Uiso   1.00
O513   O     0.74480   0.08559   0.43612   0.00000  Uiso   1.00
O514   O     0.75520   0.24774   0.56388   0.00000  Uiso   1.00
O515   O     0.68936   0.17155   0.55191   0.00000  Uiso   1.00
O516   O     0.81065   0.16179   0.44809   0.00000  Uiso   1.00
O517   O     0.68090   0.16176   0.44810   0.00000  Uiso   1.00
O518   O     0.81910   0.17157   0.55190   0.00000  Uiso   1.00
O519   O     0.88871   0.25737   0.48188   0.00000  Uiso   1.00
C520   C     0.87270   0.25142   0.41926   0.00000  Uiso   1.00
H521   H     0.83914   0.26725   0.41908   0.00000  Uiso   1.00
H522   H     0.86819   0.20995   0.39220   0.00000  Uiso   1.00
C523   C     0.90378   0.28301   0.38679   0.00000  Uiso   1.00
H524   H     0.90878   0.32424   0.41382   0.00000  Uiso   1.00
H525   H     0.93684   0.26605   0.38350   0.00000  Uiso   1.00
C526   C     0.88441   0.28209   0.65489   0.00000  Uiso   1.00
H527   H     0.88072   0.24135   0.62662   0.00000  Uiso   1.00
H528   H     0.90736   0.30579   0.63285   0.00000  Uiso   1.00
H529   H     0.85119   0.29867   0.65626   0.00000  Uiso   1.00
O530   O     0.60993   0.07403   0.51225   0.00000  Uiso   1.00
C531   C     0.62063   0.04654   0.45307   0.00000  Uiso   1.00
H532   H     0.63365   0.00935   0.45933   0.00000  Uiso   1.00
H533   H     0.64819   0.06782   0.43576   0.00000  Uiso   1.00
C534   C     0.58034   0.03269   0.40402   0.00000  Uiso   1.00
H535   H     0.55199   0.01333   0.42213   0.00000  Uiso   1.00
H536   H     0.56896   0.06884   0.39198   0.00000  Uiso   1.00
C537   C     0.59291   0.32945   0.34507   0.00000  Uiso   1.00
H538   H     0.62097   0.01480   0.65876   0.00000  Uiso   1.00
H539   H     0.56355   0.32077   0.64365   0.00000  Uiso   1.00
H540   H     0.60308   0.29203   0.35489   0.00000  Uiso   1.00
O541   O     0.71946   0.31663   0.42229   0.00000  Uiso   1.00
H542   H     0.69510   0.29370   0.43273   0.00000  Uiso   1.00
O543   O     0.77805   0.02037   0.57768   0.00000  Uiso   1.00
H544   H     0.78943   0.33158   0.60488   0.00000  Uiso   1.00
C545   C     0.24811   0.40004   0.48461   0.00000  Uiso   1.00
C546   C     0.25191   0.60003   0.51548   0.00000  Uiso   1.00
C547   C     0.01763   0.41352   0.52455   0.00000  Uiso   1.00
C548   C     0.48343   0.59211   0.49262   0.00000  Uiso   1.00
C549   C     0.24181   0.34454   0.47714   0.00000  Uiso   1.00
C550   C     0.25624   0.65610   0.52368   0.00000  Uiso   1.00
C551   C     0.16450   0.49864   0.50085   0.00000  Uiso   1.00
C552   C     0.33555   0.50183   0.49928   0.00000  Uiso   1.00
C553   C     0.40932   0.54654   0.48964   0.00000  Uiso   1.00
C554   C     0.09058   0.45342   0.50912   0.00000  Uiso   1.00
C555   C     0.38371   0.50214   0.49768   0.00000  Uiso   1.00
C556   C     0.11643   0.49833   0.50303   0.00000  Uiso   1.00
C557   C     0.40422   0.45883   0.50956   0.00000  Uiso   1.00
C558   C     0.09639   0.54403   0.49879   0.00000  Uiso   1.00
C559   C     0.45066   0.45840   0.51264   0.00000  Uiso   1.00
C560   C     0.05016   0.54577   0.49995   0.00000  Uiso   1.00
C561   C     0.47692   0.50249   0.50511   0.00000  Uiso   1.00
C562   C     0.02381   0.50152   0.50669   0.00000  Uiso   1.00
C563   C     0.45638   0.54742   0.49571   0.00000  Uiso   1.00
C564   C     0.04422   0.45602   0.51405   0.00000  Uiso   1.00
C565   C     0.47122   0.41475   0.52384   0.00000  Uiso   1.00
C566   C     0.02991   0.59115   0.49452   0.00000  Uiso   1.00
Cu567  Cu    0.25501   0.50579   0.56146   0.00000  Uiso   1.00
Cu568  Cu    0.24500   0.49421   0.43854   0.00000  Uiso   1.00
H569   H     0.38378   0.42540   0.51635   0.00000  Uiso   1.00
H570   H     0.11695   0.57808   0.49397   0.00000  Uiso   1.00
H571   H     0.45129   0.38141   0.53151   0.00000  Uiso   1.00
H572   H     0.05018   0.62563   0.49115   0.00000  Uiso   1.00
H573   H     0.03256   0.37910   0.53292   0.00000  Uiso   1.00
H574   H     0.46887   0.62777   0.48812   0.00000  Uiso   1.00
H575   H     0.21518   0.45885   0.64946   0.00000  Uiso   1.00
H576   H     0.28460   0.54131   0.35052   0.00000  Uiso   1.00
N577   N     0.23745   0.48547   0.34617   0.00000  Uiso   1.00
N578   N     0.26256   0.51453   0.65383   0.00000  Uiso   1.00
O579   O     0.25326   0.42871   0.53992   0.00000  Uiso   1.00
O580   O     0.24675   0.57129   0.46008   0.00000  Uiso   1.00
O581   O     0.24480   0.41892   0.43612   0.00000  Uiso   1.00
O582   O     0.25520   0.58108   0.56388   0.00000  Uiso   1.00
O583   O     0.18936   0.50488   0.55191   0.00000  Uiso   1.00
O584   O     0.31065   0.49512   0.44809   0.00000  Uiso   1.00
O585   O     0.18090   0.49510   0.44810   0.00000  Uiso   1.00
O586   O     0.31910   0.50490   0.55190   0.00000  Uiso   1.00
O587   O     0.38871   0.59071   0.48188   0.00000  Uiso   1.00
C588   C     0.37270   0.58475   0.41926   0.00000  Uiso   1.00
H589   H     0.33914   0.60058   0.41908   0.00000  Uiso   1.00
H590   H     0.36819   0.54328   0.39220   0.00000  Uiso   1.00
C591   C     0.40378   0.61635   0.38679   0.00000  Uiso   1.00
H592   H     0.40878   0.65757   0.41382   0.00000  Uiso   1.00
H593   H     0.43684   0.59939   0.38350   0.00000  Uiso   1.00
C594   C     0.38441   0.61542   0.65489   0.00000  Uiso   1.00
H595   H     0.38072   0.57468   0.62662   0.00000  Uiso   1.00
H596   H     0.40736   0.63913   0.63285   0.00000  Uiso   1.00
H597   H     0.35119   0.63200   0.65626   0.00000  Uiso   1.00
O598   O     0.10993   0.40736   0.51225   0.00000  Uiso   1.00
C599   C     0.12063   0.37987   0.45307   0.00000  Uiso   1.00
H600   H     0.13365   0.34268   0.45933   0.00000  Uiso   1.00
H601   H     0.14819   0.40116   0.43576   0.00000  Uiso   1.00
C602   C     0.08034   0.36602   0.40402   0.00000  Uiso   1.00
H603   H     0.05199   0.34666   0.42213   0.00000  Uiso   1.00
H604   H     0.06896   0.40218   0.39198   0.00000  Uiso   1.00
C605   C     0.09291   0.66279   0.34507   0.00000  Uiso   1.00
H606   H     0.12097   0.34813   0.65876   0.00000  Uiso   1.00
H607   H     0.06355   0.65410   0.64365   0.00000  Uiso   1.00
H608   H     0.10308   0.62536   0.35489   0.00000  Uiso   1.00
O609   O     0.21946   0.64996   0.42229   0.00000  Uiso   1.00
H610   H     0.19510   0.62703   0.43273   0.00000  Uiso   1.00
O611   O     0.27805   0.35370   0.57768   0.00000  Uiso   1.00
H612   H     0.28943   0.66491   0.60488   0.00000  Uiso   1.00
C613   C     0.74811   0.40004   0.48461   0.00000  Uiso   1.00
C614   C     0.75191   0.60003   0.51548   0.00000  Uiso   1.00
C615   C     0.51763   0.41352   0.52455   0.00000  Uiso   1.00
C616   C     0.98343   0.59211   0.49262   0.00000  Uiso   1.00
C617   C     0.74181   0.34454   0.47714   0.00000  Uiso   1.00
C618   C     0.75624   0.65610   0.52368   0.00000  Uiso   1.00
C619   C     0.66450   0.49864   0.50085   0.00000  Uiso   1.00
C620   C     0.83555   0.50183   0.49928   0.00000  Uiso   1.00
C621   C     0.90932   0.54654   0.48964   0.00000  Uiso   1.00
C622   C     0.59058   0.45342   0.50912   0.00000  Uiso   1.00
C623   C     0.88371   0.50214   0.49768   0.00000  Uiso   1.00
C624   C     0.61643   0.49833   0.50303   0.00000  Uiso   1.00
C625   C     0.90422   0.45883   0.50956   0.00000  Uiso   1.00
C626   C     0.59639   0.54403   0.49879   0.00000  Uiso   1.00
C627   C     0.95066   0.45840   0.51264   0.00000  Uiso   1.00
C628   C     0.55016   0.54577   0.49995   0.00000  Uiso   1.00
C629   C     0.97692   0.50249   0.50511   0.00000  Uiso   1.00
C630   C     0.52381   0.50152   0.50669   0.00000  Uiso   1.00
C631   C     0.95638   0.54742   0.49571   0.00000  Uiso   1.00
C632   C     0.54422   0.45602   0.51405   0.00000  Uiso   1.00
C633   C     0.97122   0.41475   0.52384   0.00000  Uiso   1.00
C634   C     0.52991   0.59115   0.49452   0.00000  Uiso   1.00
Cu635  Cu    0.75501   0.50579   0.56146   0.00000  Uiso   1.00
Cu636  Cu    0.74500   0.49421   0.43854   0.00000  Uiso   1.00
H637   H     0.88378   0.42540   0.51635   0.00000  Uiso   1.00
H638   H     0.61695   0.57808   0.49397   0.00000  Uiso   1.00
H639   H     0.95129   0.38141   0.53151   0.00000  Uiso   1.00
H640   H     0.55018   0.62563   0.49115   0.00000  Uiso   1.00
H641   H     0.53256   0.37910   0.53292   0.00000  Uiso   1.00
H642   H     0.96887   0.62777   0.48812   0.00000  Uiso   1.00
H643   H     0.71518   0.45885   0.64946   0.00000  Uiso   1.00
H644   H     0.78460   0.54131   0.35052   0.00000  Uiso   1.00
N645   N     0.73745   0.48547   0.34617   0.00000  Uiso   1.00
N646   N     0.76256   0.51453   0.65383   0.00000  Uiso   1.00
O647   O     0.75326   0.42871   0.53992   0.00000  Uiso   1.00
O648   O     0.74675   0.57129   0.46008   0.00000  Uiso   1.00
O649   O     0.74480   0.41892   0.43612   0.00000  Uiso   1.00
O650   O     0.75520   0.58108   0.56388   0.00000  Uiso   1.00
O651   O     0.68936   0.50488   0.55191   0.00000  Uiso   1.00
O652   O     0.81065   0.49512   0.44809   0.00000  Uiso   1.00
O653   O     0.68090   0.49510   0.44810   0.00000  Uiso   1.00
O654   O     0.81910   0.50490   0.55190   0.00000  Uiso   1.00
O655   O     0.88871   0.59071   0.48188   0.00000  Uiso   1.00
C656   C     0.87270   0.58475   0.41926   0.00000  Uiso   1.00
H657   H     0.83914   0.60058   0.41908   0.00000  Uiso   1.00
H658   H     0.86819   0.54328   0.39220   0.00000  Uiso   1.00
C659   C     0.90378   0.61635   0.38679   0.00000  Uiso   1.00
H660   H     0.90878   0.65757   0.41382   0.00000  Uiso   1.00
H661   H     0.93684   0.59939   0.38350   0.00000  Uiso   1.00
C662   C     0.88441   0.61542   0.65489   0.00000  Uiso   1.00
H663   H     0.88072   0.57468   0.62662   0.00000  Uiso   1.00
H664   H     0.90736   0.63913   0.63285   0.00000  Uiso   1.00
H665   H     0.85119   0.63200   0.65626   0.00000  Uiso   1.00
O666   O     0.60993   0.40736   0.51225   0.00000  Uiso   1.00
C667   C     0.62063   0.37987   0.45307   0.00000  Uiso   1.00
H668   H     0.63365   0.34268   0.45933   0.00000  Uiso   1.00
H669   H     0.64819   0.40116   0.43576   0.00000  Uiso   1.00
C670   C     0.58034   0.36602   0.40402   0.00000  Uiso   1.00
H671   H     0.55199   0.34666   0.42213   0.00000  Uiso   1.00
H672   H     0.56896   0.40218   0.39198   0.00000  Uiso   1.00
C673   C     0.59291   0.66279   0.34507   0.00000  Uiso   1.00
H674   H     0.62097   0.34813   0.65876   0.00000  Uiso   1.00
H675   H     0.56355   0.65410   0.64365   0.00000  Uiso   1.00
H676   H     0.60308   0.62536   0.35489   0.00000  Uiso   1.00
O677   O     0.71946   0.64996   0.42229   0.00000  Uiso   1.00
H678   H     0.69510   0.62703   0.43273   0.00000  Uiso   1.00
O679   O     0.77805   0.35370   0.57768   0.00000  Uiso   1.00
H680   H     0.78943   0.66491   0.60488   0.00000  Uiso   1.00
C681   C     0.24811   0.73338   0.48461   0.00000  Uiso   1.00
C682   C     0.25191   0.93336   0.51548   0.00000  Uiso   1.00
C683   C     0.01763   0.74686   0.52455   0.00000  Uiso   1.00
C684   C     0.48343   0.92544   0.49262   0.00000  Uiso   1.00
C685   C     0.24181   0.67788   0.47714   0.00000  Uiso   1.00
C686   C     0.25624   0.98944   0.52368   0.00000  Uiso   1.00
C687   C     0.16450   0.83197   0.50085   0.00000  Uiso   1.00
C688   C     0.33555   0.83517   0.49928   0.00000  Uiso   1.00
C689   C     0.40932   0.87987   0.48964   0.00000  Uiso   1.00
C690   C     0.09058   0.78676   0.50912   0.00000  Uiso   1.00
C691   C     0.38371   0.83548   0.49768   0.00000  Uiso   1.00
C692   C     0.11643   0.83167   0.50303   0.00000  Uiso   1.00
C693   C     0.40422   0.79217   0.50956   0.00000  Uiso   1.00
C694   C     0.09639   0.87736   0.49879   0.00000  Uiso   1.00
C695   C     0.45066   0.79173   0.51264   0.00000  Uiso   1.00
C696   C     0.05016   0.87911   0.49995   0.00000  Uiso   1.00
C697   C     0.47692   0.83583   0.50511   0.00000  Uiso   1.00
C698   C     0.02381   0.83485   0.50669   0.00000  Uiso   1.00
C699   C     0.45638   0.88076   0.49571   0.00000  Uiso   1.00
C700   C     0.04422   0.78935   0.51405   0.00000  Uiso   1.00
C701   C     0.47122   0.74808   0.52384   0.00000  Uiso   1.00
C702   C     0.02991   0.92448   0.49452   0.00000  Uiso   1.00
Cu703  Cu    0.25501   0.83913   0.56146   0.00000  Uiso   1.00
Cu704  Cu    0.24500   0.82754   0.43854   0.00000  Uiso   1.00
H705   H     0.38378   0.75873   0.51635   0.00000  Uiso   1.00
H706   H     0.11695   0.91141   0.49397   0.00000  Uiso   1.00
H707   H     0.45129   0.71474   0.53151   0.00000  Uiso   1.00
H708   H     0.05018   0.95896   0.49115   0.00000  Uiso   1.00
H709   H     0.03256   0.71243   0.53292   0.00000  Uiso   1.00
H710   H     0.46887   0.96110   0.48812   0.00000  Uiso   1.00
H711   H     0.21518   0.79218   0.64946   0.00000  Uiso   1.00
H712   H     0.28460   0.87464   0.35052   0.00000  Uiso   1.00
N713   N     0.23745   0.81881   0.34617   0.00000  Uiso   1.00
N714   N     0.26256   0.84786   0.65383   0.00000  Uiso   1.00
O715   O     0.25326   0.76204   0.53992   0.00000  Uiso   1.00
O716   O     0.24675   0.90462   0.46008   0.00000  Uiso   1.00
O717   O     0.24480   0.75226   0.43612   0.00000  Uiso   1.00
O718   O     0.25520   0.91441   0.56388   0.00000  Uiso   1.00
O719   O     0.18936   0.83821   0.55191   0.00000  Uiso   1.00
O720   O     0.31065   0.82845   0.44809   0.00000  Uiso   1.00
O721   O     0.18090   0.82843   0.44810   0.00000  Uiso   1.00
O722   O     0.31910   0.83824   0.55190   0.00000  Uiso   1.00
O723   O     0.38871   0.92404   0.48188   0.00000  Uiso   1.00
C724   C     0.37270   0.91809   0.41926   0.00000  Uiso   1.00
H725   H     0.33914   0.93391   0.41908   0.00000  Uiso   1.00
H726   H     0.36819   0.87661   0.39220   0.00000  Uiso   1.00
C727   C     0.40378   0.94968   0.38679   0.00000  Uiso   1.00
H728   H     0.40878   0.99090   0.41382   0.00000  Uiso   1.00
H729   H     0.43684   0.93272   0.38350   0.00000  Uiso   1.00
C730   C     0.38441   0.94876   0.65489   0.00000  Uiso   1.00
H731   H     0.38072   0.90801   0.62662   0.00000  Uiso   1.00
H732   H     0.40736   0.97246   0.63285   0.00000  Uiso   1.00
H733   H     0.35119   0.96533   0.65626   0.00000  Uiso   1.00
O734   O     0.10993   0.74069   0.51225   0.00000  Uiso   1.00
C735   C     0.12063   0.71320   0.45307   0.00000  Uiso   1.00
H736   H     0.13365   0.67602   0.45933   0.00000  Uiso   1.00
H737   H     0.14819   0.73449   0.43576   0.00000  Uiso   1.00
C738   C     0.08034   0.69935   0.40402   0.00000  Uiso   1.00
H739   H     0.05199   0.67999   0.42213   0.00000  Uiso   1.00
H740   H     0.06896   0.73551   0.39198   0.00000  Uiso   1.00
C741   C     0.09291   0.99612   0.34507   0.00000  Uiso   1.00
H742   H     0.12097   0.68146   0.65876   0.00000  Uiso   1.00
H743   H     0.06355   0.98744   0.64365   0.00000  Uiso   1.00
H744   H     0.10308   0.95870   0.35489   0.00000  Uiso   1.00
O745   O     0.21946   0.98329   0.42229   0.00000  Uiso   1.00
H746   H     0.19510   0.96036   0.43273   0.00000  Uiso   1.00
O747   O     0.27805   0.68703   0.57768   0.00000  Uiso   1.00
H748   H     0.28943   0.99825   0.60488   0.00000  Uiso   1.00
C749   C     0.74811   0.73338   0.48461   0.00000  Uiso   1.00
C750   C     0.75191   0.93336   0.51548   0.00000  Uiso   1.00
C751   C     0.51763   0.74686   0.52455   0.00000  Uiso   1.00
C752   C     0.98343   0.92544   0.49262   0.00000  Uiso   1.00
C753   C     0.74181   0.67788   0.47714   0.00000  Uiso   1.00
C754   C     0.75624   0.98944   0.52368   0.00000  Uiso   1.00
C755   C     0.66450   0.83197   0.50085   0.00000  Uiso   1.00
C756   C     0.83555   0.83517   0.49928   0.00000  Uiso   1.00
C757   C     0.90932   0.87987   0.48964   0.00000  Uiso   1.00
C758   C     0.59058   0.78676   0.50912   0.00000  Uiso   1.00
C759   C     0.88371   0.83548   0.49768   0.00000  Uiso   1.00
C760   C     0.61643   0.83167   0.50303   0.00000  Uiso   1.00
C761   C     0.90422   0.79217   0.50956   0.00000  Uiso   1.00
C762   C     0.59639   0.87736   0.49879   0.00000  Uiso   1.00
C763   C     0.95066   0.79173   0.51264   0.00000  Uiso   1.00
C764   C     0.55016   0.87911   0.49995   0.00000  Uiso   1.00
C765   C     0.97692   0.83583   0.50511   0.00000  Uiso   1.00
C766   C     0.52381   0.83485   0.50669   0.00000  Uiso   1.00
C767   C     0.95638   0.88076   0.49571   0.00000  Uiso   1.00
C768   C     0.54422   0.78935   0.51405   0.00000  Uiso   1.00
C769   C     0.97122   0.74808   0.52384   0.00000  Uiso   1.00
C770   C     0.52991   0.92448   0.49452   0.00000  Uiso   1.00
Cu771  Cu    0.75501   0.83913   0.56146   0.00000  Uiso   1.00
Cu772  Cu    0.74500   0.82754   0.43854   0.00000  Uiso   1.00
H773   H     0.88378   0.75873   0.51635   0.00000  Uiso   1.00
H774   H     0.61695   0.91141   0.49397   0.00000  Uiso   1.00
H775   H     0.95129   0.71474   0.53151   0.00000  Uiso   1.00
H776   H     0.55018   0.95896   0.49115   0.00000  Uiso   1.00
H777   H     0.53256   0.71243   0.53292   0.00000  Uiso   1.00
H778   H     0.96887   0.96110   0.48812   0.00000  Uiso   1.00
H779   H     0.71518   0.79218   0.64946   0.00000  Uiso   1.00
H780   H     0.78460   0.87464   0.35052   0.00000  Uiso   1.00
N781   N     0.73745   0.81881   0.34617   0.00000  Uiso   1.00
N782   N     0.76256   0.84786   0.65383   0.00000  Uiso   1.00
O783   O     0.75326   0.76204   0.53992   0.00000  Uiso   1.00
O784   O     0.74675   0.90462   0.46008   0.00000  Uiso   1.00
O785   O     0.74480   0.75226   0.43612   0.00000  Uiso   1.00
O786   O     0.75520   0.91441   0.56388   0.00000  Uiso   1.00
O787   O     0.68936   0.83821   0.55191   0.00000  Uiso   1.00
O788   O     0.81065   0.82845   0.44809   0.00000  Uiso   1.00
O789   O     0.68090   0.82843   0.44810   0.00000  Uiso   1.00
O790   O     0.81910   0.83824   0.55190   0.00000  Uiso   1.00
O791   O     0.88871   0.92404   0.48188   0.00000  Uiso   1.00
C792   C     0.87270   0.91809   0.41926   0.00000  Uiso   1.00
H793   H     0.83914   0.93391   0.41908   0.00000  Uiso   1.00
H794   H     0.86819   0.87661   0.39220   0.00000  Uiso   1.00
C795   C     0.90378   0.94968   0.38679   0.00000  Uiso   1.00
H796   H     0.90878   0.99090   0.41382   0.00000  Uiso   1.00
H797   H     0.93684   0.93272   0.38350   0.00000  Uiso   1.00
C798   C     0.88441   0.94876   0.65489   0.00000  Uiso   1.00
H799   H     0.88072   0.90801   0.62662   0.00000  Uiso   1.00
H800   H     0.90736   0.97246   0.63285   0.00000  Uiso   1.00
H801   H     0.85119   0.96533   0.65626   0.00000  Uiso   1.00
O802   O     0.60993   0.74069   0.51225   0.00000  Uiso   1.00
C803   C     0.62063   0.71320   0.45307   0.00000  Uiso   1.00
H804   H     0.63365   0.67602   0.45933   0.00000  Uiso   1.00
H805   H     0.64819   0.73449   0.43576   0.00000  Uiso   1.00
C806   C     0.58034   0.69935   0.40402   0.00000  Uiso   1.00
H807   H     0.55199   0.67999   0.42213   0.00000  Uiso   1.00
H808   H     0.56896   0.73551   0.39198   0.00000  Uiso   1.00
C809   C     0.59291   0.99612   0.34507   0.00000  Uiso   1.00
H810   H     0.62097   0.68146   0.65876   0.00000  Uiso   1.00
H811   H     0.56355   0.98744   0.64365   0.00000  Uiso   1.00
H812   H     0.60308   0.95870   0.35489   0.00000  Uiso   1.00
O813   O     0.71946   0.98329   0.42229   0.00000  Uiso   1.00
H814   H     0.69510   0.96036   0.43273   0.00000  Uiso   1.00
O815   O     0.77805   0.68703   0.57768   0.00000  Uiso   1.00
H816   H     0.78943   0.99825   0.60488   0.00000  Uiso   1.00
C817   C     0.24811   0.06671   0.81795   0.00000  Uiso   1.00
C818   C     0.25191   0.26669   0.84881   0.00000  Uiso   1.00
C819   C     0.01763   0.08019   0.85788   0.00000  Uiso   1.00
C820   C     0.48343   0.25878   0.82595   0.00000  Uiso   1.00
C821   C     0.24181   0.01121   0.81047   0.00000  Uiso   1.00
C822   C     0.25624   0.32277   0.85701   0.00000  Uiso   1.00
C823   C     0.16450   0.16530   0.83419   0.00000  Uiso   1.00
C824   C     0.33555   0.16850   0.83262   0.00000  Uiso   1.00
C825   C     0.40932   0.21321   0.82297   0.00000  Uiso   1.00
C826   C     0.09058   0.12009   0.84246   0.00000  Uiso   1.00
C827   C     0.38371   0.16881   0.83101   0.00000  Uiso   1.00
C828   C     0.11643   0.16500   0.83636   0.00000  Uiso   1.00
C829   C     0.40422   0.12550   0.84289   0.00000  Uiso   1.00
C830   C     0.09639   0.21069   0.83212   0.00000  Uiso   1.00
C831   C     0.45066   0.12507   0.84597   0.00000  Uiso   1.00
C832   C     0.05016   0.21244   0.83328   0.00000  Uiso   1.00
C833   C     0.47692   0.16916   0.83845   0.00000  Uiso   1.00
C834   C     0.02381   0.16818   0.84003   0.00000  Uiso   1.00
C835   C     0.45638   0.21409   0.82904   0.00000  Uiso   1.00
C836   C     0.04422   0.12268   0.84738   0.00000  Uiso   1.00
C837   C     0.47122   0.08141   0.85717   0.00000  Uiso   1.00
C838   C     0.02991   0.25782   0.82785   0.00000  Uiso   1.00
Cu839  Cu    0.25501   0.17246   0.89479   0.00000  Uiso   1.00
Cu840  Cu    0.24500   0.16087   0.77187   0.00000  Uiso   1.00
H841   H     0.38378   0.09207   0.84968   0.00000  Uiso   1.00
H842   H     0.11695   0.24475   0.82730   0.00000  Uiso   1.00
H843   H     0.45129   0.04807   0.86484   0.00000  Uiso   1.00
H844   H     0.05018   0.29229   0.82448   0.00000  Uiso   1.00
H845   H     0.03256   0.04577   0.86625   0.00000  Uiso   1.00
H846   H     0.46887   0.29443   0.82146   0.00000  Uiso   1.00
H847   H     0.21518   0.12552   0.98279   0.00000  Uiso   1.00
H848   H     0.28460   0.20798   0.68386   0.00000  Uiso   1.00
N849   N     0.23745   0.15214   0.67951   0.00000  Uiso   1.00
N850   N     0.26256   0.18119   0.98716   0.00000  Uiso   1.00
O851   O     0.25326   0.09538   0.87326   0.00000  Uiso   1.00
O852   O     0.24675   0.23796   0.79341   0.00000  Uiso   1.00
O853   O     0.24480   0.08559   0.76945   0.00000  Uiso   1.00
O854   O     0.25520   0.24774   0.89721   0.00000  Uiso   1.00
O855   O     0.18936   0.17155   0.88524   0.00000  Uiso   1.00
O856   O     0.31065   0.16179   0.78143   0.00000  Uiso   1.00
O857   O     0.18090   0.16176   0.78143   0.00000  Uiso   1.00
O858   O     0.31910   0.17157   0.88523   0.00000  Uiso   1.00
O859   O     0.38871   0.25737   0.81522   0.00000  Uiso   1.00
C860   C     0.37270   0.25142   0.75259   0.00000  Uiso   1.00
H861   H     0.33914   0.26725   0.75241   0.00000  Uiso   1.00
H862   H     0.36819   0.20995   0.72553   0.00000  Uiso   1.00
C863   C     0.40378   0.28301   0.72013   0.00000  Uiso   1.00
H864   H     0.40878   0.32424   0.74716   0.00000  Uiso   1.00
H865   H     0.43684   0.26605   0.71684   0.00000  Uiso   1.00
C866   C     0.38441   0.28209   0.98823   0.00000  Uiso   1.00
H867   H     0.38072   0.24135   0.95995   0.00000  Uiso   1.00
H868   H     0.40736   0.30579   0.96619   0.00000  Uiso   1.00
H869   H     0.35119   0.29867   0.98959   0.00000  Uiso   1.00
O870   O     0.10993   0.07403   0.84559   0.00000  Uiso   1.00
C871   C     0.12063   0.04654   0.78640   0.00000  Uiso   1.00
H872   H     0.13365   0.00935   0.79267   0.00000  Uiso   1.00
H873   H     0.14819   0.06782   0.76909   0.00000  Uiso   1.00
C874   C     0.08034   0.03269   0.73735   0.00000  Uiso   1.00
H875   H     0.05199   0.01333   0.75547   0.00000  Uiso   1.00
H876   H     0.06896   0.06884   0.72531   0.00000  Uiso   1.00
C877   C     0.09291   0.32945   0.67840   0.00000  Uiso   1.00
H878   H     0.12097   0.01480   0.99209   0.00000  Uiso   1.00
H879   H     0.06355   0.32077   0.97699   0.00000  Uiso   1.00
H880   H     0.10308   0.29203   0.68823   0.00000  Uiso   1.00
O881   O     0.21946   0.31663   0.75562   0.00000  Uiso   1.00
H882   H     0.19510   0.29370   0.76606   0.00000  Uiso   1.00
O883   O     0.27805   0.02037   0.91102   0.00000  Uiso   1.00
H884   H     0.28943   0.33158   0.93822   0.00000  Uiso   1.00
C885   C     0.74811   0.06671   0.81795   0.00000  Uiso   1.00
C886   C     0.75191   0.26669   0.84881   0.00000  Uiso   1.00
C887   C     0.51763   0.08019   0.85788   0.00000  Uiso   1.00
C888   C     0.98343   0.25878   0.82595   0.00000  Uiso   1.00
C889   C     0.74181   0.01121   0.81047   0.00000  Uiso   1.00
C890   C     0.75624   0.32277   0.85701   0.00000  Uiso   1.00
C891   C     0.66450   0.16530   0.83419   0.00000  Uiso   1.00
C892   C     0.83555   0.16850   0.83262   0.00000  Uiso   1.00
C893   C     0.90932   0.21321   0.82297   0.00000  Uiso   1.00
C894   C     0.59058   0.12009   0.84246   0.00000  Uiso   1.00
C895   C     0.88371   0.16881   0.83101   0.00000  Uiso   1.00
C896   C     0.61643   0.16500   0.83636   0.00000  Uiso   1.00
C897   C     0.90422   0.12550   0.84289   0.00000  Uiso   1.00
C898   C     0.59639   0.21069   0.83212   0.00000  Uiso   1.00
C899   C     0.95066   0.12507   0.84597   0.00000  Uiso   1.00
C900   C     0.55016   0.21244   0.83328   0.00000  Uiso   1.00
C901   C     0.97692   0.16916   0.83845   0.00000  Uiso   1.00
C902   C     0.52381   0.16818   0.84003   0.00000  Uiso   1.00
C903   C     0.95638   0.21409   0.82904   0.00000  Uiso   1.00
C904   C     0.54422   0.12268   0.84738   0.00000  Uiso   1.00
C905   C     0.97122   0.08141   0.85717   0.00000  Uiso   1.00
C906   C     0.52991   0.25782   0.82785   0.00000  Uiso   1.00
Cu907  Cu    0.75501   0.17246   0.89479   0.00000  Uiso   1.00
Cu908  Cu    0.74500   0.16087   0.77187   0.00000  Uiso   1.00
H909   H     0.88378   0.09207   0.84968   0.00000  Uiso   1.00
H910   H     0.61695   0.24475   0.82730   0.00000  Uiso   1.00
H911   H     0.95129   0.04807   0.86484   0.00000  Uiso   1.00
H912   H     0.55018   0.29229   0.82448   0.00000  Uiso   1.00
H913   H     0.53256   0.04577   0.86625   0.00000  Uiso   1.00
H914   H     0.96887   0.29443   0.82146   0.00000  Uiso   1.00
H915   H     0.71518   0.12552   0.98279   0.00000  Uiso   1.00
H916   H     0.78460   0.20798   0.68386   0.00000  Uiso   1.00
N917   N     0.73745   0.15214   0.67951   0.00000  Uiso   1.00
N918   N     0.76256   0.18119   0.98716   0.00000  Uiso   1.00
O919   O     0.75326   0.09538   0.87326   0.00000  Uiso   1.00
O920   O     0.74675   0.23796   0.79341   0.00000  Uiso   1.00
O921   O     0.74480   0.08559   0.76945   0.00000  Uiso   1.00
O922   O     0.75520   0.24774   0.89721   0.00000  Uiso   1.00
O923   O     0.68936   0.17155   0.88524   0.00000  Uiso   1.00
O924   O     0.81065   0.16179   0.78143   0.00000  Uiso   1.00
O925   O     0.68090   0.16176   0.78143   0.00000  Uiso   1.00
O926   O     0.81910   0.17157   0.88523   0.00000  Uiso   1.00
O927   O     0.88871   0.25737   0.81522   0.00000  Uiso   1.00
C928   C     0.87270   0.25142   0.75259   0.00000  Uiso   1.00
H929   H     0.83914   0.26725   0.75241   0.00000  Uiso   1.00
H930   H     0.86819   0.20995   0.72553   0.00000  Uiso   1.00
C931   C     0.90378   0.28301   0.72013   0.00000  Uiso   1.00
H932   H     0.90878   0.32424   0.74716   0.00000  Uiso   1.00
H933   H     0.93684   0.26605   0.71684   0.00000  Uiso   1.00
C934   C     0.88441   0.28209   0.98823   0.00000  Uiso   1.00
H935   H     0.88072   0.24135   0.95995   0.00000  Uiso   1.00
H936   H     0.90736   0.30579   0.96619   0.00000  Uiso   1.00
H937   H     0.85119   0.29867   0.98959   0.00000  Uiso   1.00
O938   O     0.60993   0.07403   0.84559   0.00000  Uiso   1.00
C939   C     0.62063   0.04654   0.78640   0.00000  Uiso   1.00
H940   H     0.63365   0.00935   0.79267   0.00000  Uiso   1.00
H941   H     0.64819   0.06782   0.76909   0.00000  Uiso   1.00
C942   C     0.58034   0.03269   0.73735   0.00000  Uiso   1.00
H943   H     0.55199   0.01333   0.75547   0.00000  Uiso   1.00
H944   H     0.56896   0.06884   0.72531   0.00000  Uiso   1.00
C945   C     0.59291   0.32945   0.67840   0.00000  Uiso   1.00
H946   H     0.62097   0.01480   0.99209   0.00000  Uiso   1.00
H947   H     0.56355   0.32077   0.97699   0.00000  Uiso   1.00
H948   H     0.60308   0.29203   0.68823   0.00000  Uiso   1.00
O949   O     0.71946   0.31663   0.75562   0.00000  Uiso   1.00
H950   H     0.69510   0.29370   0.76606   0.00000  Uiso   1.00
O951   O     0.77805   0.02037   0.91102   0.00000  Uiso   1.00
H952   H     0.78943   0.33158   0.93822   0.00000  Uiso   1.00
C953   C     0.24811   0.40004   0.81795   0.00000  Uiso   1.00
C954   C     0.25191   0.60003   0.84881   0.00000  Uiso   1.00
C955   C     0.01763   0.41352   0.85788   0.00000  Uiso   1.00
C956   C     0.48343   0.59211   0.82595   0.00000  Uiso   1.00
C957   C     0.24181   0.34454   0.81047   0.00000  Uiso   1.00
C958   C     0.25624   0.65610   0.85701   0.00000  Uiso   1.00
C959   C     0.16450   0.49864   0.83419   0.00000  Uiso   1.00
C960   C     0.33555   0.50183   0.83262   0.00000  Uiso   1.00
C961   C     0.40932   0.54654   0.82297   0.00000  Uiso   1.00
C962   C     0.09058   0.45342   0.84246   0.00000  Uiso   1.00
C963   C     0.38371   0.50214   0.83101   0.00000  Uiso   1.00
C964   C     0.11643   0.49833   0.83636   0.00000  Uiso   1.00
C965   C     0.40422   0.45883   0.84289   0.00000  Uiso   1.00
C966   C     0.09639   0.54403   0.83212   0.00000  Uiso   1.00
C967   C     0.45066   0.45840   0.84597   0.00000  Uiso   1.00
C968   C     0.05016   0.54577   0.83328   0.00000  Uiso   1.00
C969   C     0.47692   0.50249   0.83845   0.00000  Uiso   1.00
C970   C     0.02381   0.50152   0.84003   0.00000  Uiso   1.00
C971   C     0.45638   0.54742   0.82904   0.00000  Uiso   1.00
C972   C     0.04422   0.45602   0.84738   0.00000  Uiso   1.00
C973   C     0.47122   0.41475   0.85717   0.00000  Uiso   1.00
C974   C     0.02991   0.59115   0.82785   0.00000  Uiso   1.00
Cu975  Cu    0.25501   0.50579   0.89479   0.00000  Uiso   1.00
Cu976  Cu    0.24500   0.49421   0.77187   0.00000  Uiso   1.00
H977   H     0.38378   0.42540   0.84968   0.00000  Uiso   1.00
H978   H     0.11695   0.57808   0.82730   0.00000  Uiso   1.00
H979   H     0.45129   0.38141   0.86484   0.00000  Uiso   1.00
H980   H     0.05018   0.62563   0.82448   0.00000  Uiso   1.00
H981   H     0.03256   0.37910   0.86625   0.00000  Uiso   1.00
H982   H     0.46887   0.62777   0.82146   0.00000  Uiso   1.00
H983   H     0.21518   0.45885   0.98279   0.00000  Uiso   1.00
H984   H     0.28460   0.54131   0.68386   0.00000  Uiso   1.00
N985   N     0.23745   0.48547   0.67951   0.00000  Uiso   1.00
N986   N     0.26256   0.51453   0.98716   0.00000  Uiso   1.00
O987   O     0.25326   0.42871   0.87326   0.00000  Uiso   1.00
O988   O     0.24675   0.57129   0.79341   0.00000  Uiso   1.00
O989   O     0.24480   0.41892   0.76945   0.00000  Uiso   1.00
O990   O     0.25520   0.58108   0.89721   0.00000  Uiso   1.00
O991   O     0.18936   0.50488   0.88524   0.00000  Uiso   1.00
O992   O     0.31065   0.49512   0.78143   0.00000  Uiso   1.00
O993   O     0.18090   0.49510   0.78143   0.00000  Uiso   1.00
O994   O     0.31910   0.50490   0.88523   0.00000  Uiso   1.00
O995   O     0.38871   0.59071   0.81522   0.00000  Uiso   1.00
C996   C     0.37270   0.58475   0.75259   0.00000  Uiso   1.00
H997   H     0.33914   0.60058   0.75241   0.00000  Uiso   1.00
H998   H     0.36819   0.54328   0.72553   0.00000  Uiso   1.00
C999   C     0.40378   0.61635   0.72013   0.00000  Uiso   1.00
H1000  H     0.40878   0.65757   0.74716   0.00000  Uiso   1.00
H1001  H     0.43684   0.59939   0.71684   0.00000  Uiso   1.00
C1002  C     0.38441   0.61542   0.98823   0.00000  Uiso   1.00
H1003  H     0.38072   0.57468   0.95995   0.00000  Uiso   1.00
H1004  H     0.40736   0.63913   0.96619   0.00000  Uiso   1.00
H1005  H     0.35119   0.63200   0.98959   0.00000  Uiso   1.00
O1006  O     0.10993   0.40736   0.84559   0.00000  Uiso   1.00
C1007  C     0.12063   0.37987   0.78640   0.00000  Uiso   1.00
H1008  H     0.13365   0.34268   0.79267   0.00000  Uiso   1.00
H1009  H     0.14819   0.40116   0.76909   0.00000  Uiso   1.00
C1010  C     0.08034   0.36602   0.73735   0.00000  Uiso   1.00
H1011  H     0.05199   0.34666   0.75547   0.00000  Uiso   1.00
H1012  H     0.06896   0.40218   0.72531   0.00000  Uiso   1.00
C1013  C     0.09291   0.66279   0.67840   0.00000  Uiso   1.00
H1014  H     0.12097   0.34813   0.99209   0.00000  Uiso   1.00
H1015  H     0.06355   0.65410   0.97699   0.00000  Uiso   1.00
H1016  H     0.10308   0.62536   0.68823   0.00000  Uiso   1.00
O1017  O     0.21946   0.64996   0.75562   0.00000  Uiso   1.00
H1018  H     0.19510   0.62703   0.76606   0.00000  Uiso   1.00
O1019  O     0.27805   0.35370   0.91102   0.00000  Uiso   1.00
H1020  H     0.28943   0.66491   0.93822   0.00000  Uiso   1.00
C1021  C     0.74811   0.40004   0.81795   0.00000  Uiso   1.00
C1022  C     0.75191   0.60003   0.84881   0.00000  Uiso   1.00
C1023  C     0.51763   0.41352   0.85788   0.00000  Uiso   1.00
C1024  C     0.98343   0.59211   0.82595   0.00000  Uiso   1.00
C1025  C     0.74181   0.34454   0.81047   0.00000  Uiso   1.00
C1026  C     0.75624   0.65610   0.85701   0.00000  Uiso   1.00
C1027  C     0.66450   0.49864   0.83419   0.00000  Uiso   1.00
C1028  C     0.83555   0.50183   0.83262   0.00000  Uiso   1.00
C1029  C     0.90932   0.54654   0.82297   0.00000  Uiso   1.00
C1030  C     0.59058   0.45342   0.84246   0.00000  Uiso   1.00
C1031  C     0.88371   0.50214   0.83101   0.00000  Uiso   1.00
C1032  C     0.61643   0.49833   0.83636   0.00000  Uiso   1.00
C1033  C     0.90422   0.45883   0.84289   0.00000  Uiso   1.00
C1034  C     0.59639   0.54403   0.83212   0.00000  Uiso   1.00
C1035  C     0.95066   0.45840   0.84597   0.00000  Uiso   1.00
C1036  C     0.55016   0.54577   0.83328   0.00000  Uiso   1.00
C1037  C     0.97692   0.50249   0.83845   0.00000  Uiso   1.00
C1038  C     0.52381   0.50152   0.84003   0.00000  Uiso   1.00
C1039  C     0.95638   0.54742   0.82904   0.00000  Uiso   1.00
C1040  C     0.54422   0.45602   0.84738   0.00000  Uiso   1.00
C1041  C     0.97122   0.41475   0.85717   0.00000  Uiso   1.00
C1042  C     0.52991   0.59115   0.82785   0.00000  Uiso   1.00
Cu1043 Cu    0.75501   0.50579   0.89479   0.00000  Uiso   1.00
Cu1044 Cu    0.74500   0.49421   0.77187   0.00000  Uiso   1.00
H1045  H     0.88378   0.42540   0.84968   0.00000  Uiso   1.00
H1046  H     0.61695   0.57808   0.82730   0.00000  Uiso   1.00
H1047  H     0.95129   0.38141   0.86484   0.00000  Uiso   1.00
H1048  H     0.55018   0.62563   0.82448   0.00000  Uiso   1.00
H1049  H     0.53256   0.37910   0.86625   0.00000  Uiso   1.00
H1050  H     0.96887   0.62777   0.82146   0.00000  Uiso   1.00
H1051  H     0.71518   0.45885   0.98279   0.00000  Uiso   1.00
H1052  H     0.78460   0.54131   0.68386   0.00000  Uiso   1.00
N1053  N     0.73745   0.48547   0.67951   0.00000  Uiso   1.00
N1054  N     0.76256   0.51453   0.98716   0.00000  Uiso   1.00
O1055  O     0.75326   0.42871   0.87326   0.00000  Uiso   1.00
O1056  O     0.74675   0.57129   0.79341   0.00000  Uiso   1.00
O1057  O     0.74480   0.41892   0.76945   0.00000  Uiso   1.00
O1058  O     0.75520   0.58108   0.89721   0.00000  Uiso   1.00
O1059  O     0.68936   0.50488   0.88524   0.00000  Uiso   1.00
O1060  O     0.81065   0.49512   0.78143   0.00000  Uiso   1.00
O1061  O     0.68090   0.49510   0.78143   0.00000  Uiso   1.00
O1062  O     0.81910   0.50490   0.88523   0.00000  Uiso   1.00
O1063  O     0.88871   0.59071   0.81522   0.00000  Uiso   1.00
C1064  C     0.87270   0.58475   0.75259   0.00000  Uiso   1.00
H1065  H     0.83914   0.60058   0.75241   0.00000  Uiso   1.00
H1066  H     0.86819   0.54328   0.72553   0.00000  Uiso   1.00
C1067  C     0.90378   0.61635   0.72013   0.00000  Uiso   1.00
H1068  H     0.90878   0.65757   0.74716   0.00000  Uiso   1.00
H1069  H     0.93684   0.59939   0.71684   0.00000  Uiso   1.00
C1070  C     0.88441   0.61542   0.98823   0.00000  Uiso   1.00
H1071  H     0.88072   0.57468   0.95995   0.00000  Uiso   1.00
H1072  H     0.90736   0.63913   0.96619   0.00000  Uiso   1.00
H1073  H     0.85119   0.63200   0.98959   0.00000  Uiso   1.00
O1074  O     0.60993   0.40736   0.84559   0.00000  Uiso   1.00
C1075  C     0.62063   0.37987   0.78640   0.00000  Uiso   1.00
H1076  H     0.63365   0.34268   0.79267   0.00000  Uiso   1.00
H1077  H     0.64819   0.40116   0.76909   0.00000  Uiso   1.00
C1078  C     0.58034   0.36602   0.73735   0.00000  Uiso   1.00
H1079  H     0.55199   0.34666   0.75547   0.00000  Uiso   1.00
H1080  H     0.56896   0.40218   0.72531   0.00000  Uiso   1.00
C1081  C     0.59291   0.66279   0.67840   0.00000  Uiso   1.00
H1082  H     0.62097   0.34813   0.99209   0.00000  Uiso   1.00
H1083  H     0.56355   0.65410   0.97699   0.00000  Uiso   1.00
H1084  H     0.60308   0.62536   0.68823   0.00000  Uiso   1.00
O1085  O     0.71946   0.64996   0.75562   0.00000  Uiso   1.00
H1086  H     0.69510   0.62703   0.76606   0.00000  Uiso   1.00
O1087  O     0.77805   0.35370   0.91102   0.00000  Uiso   1.00
H1088  H     0.78943   0.66491   0.93822   0.00000  Uiso   1.00
C1089  C     0.24811   0.73338   0.81795   0.00000  Uiso   1.00
C1090  C     0.25191   0.93336   0.84881   0.00000  Uiso   1.00
C1091  C     0.01763   0.74686   0.85788   0.00000  Uiso   1.00
C1092  C     0.48343   0.92544   0.82595   0.00000  Uiso   1.00
C1093  C     0.24181   0.67788   0.81047   0.00000  Uiso   1.00
C1094  C     0.25624   0.98944   0.85701   0.00000  Uiso   1.00
C1095  C     0.16450   0.83197   0.83419   0.00000  Uiso   1.00
C1096  C     0.33555   0.83517   0.83262   0.00000  Uiso   1.00
C1097  C     0.40932   0.87987   0.82297   0.00000  Uiso   1.00
C1098  C     0.09058   0.78676   0.84246   0.00000  Uiso   1.00
C1099  C     0.38371   0.83548   0.83101   0.00000  Uiso   1.00
C1100  C     0.11643   0.83167   0.83636   0.00000  Uiso   1.00
C1101  C     0.40422   0.79217   0.84289   0.00000  Uiso   1.00
C1102  C     0.09639   0.87736   0.83212   0.00000  Uiso   1.00
C1103  C     0.45066   0.79173   0.84597   0.00000  Uiso   1.00
C1104  C     0.05016   0.87911   0.83328   0.00000  Uiso   1.00
C1105  C     0.47692   0.83583   0.83845   0.00000  Uiso   1.00
C1106  C     0.02381   0.83485   0.84003   0.00000  Uiso   1.00
C1107  C     0.45638   0.88076   0.82904   0.00000  Uiso   1.00
C1108  C     0.04422   0.78935   0.84738   0.00000  Uiso   1.00
C1109  C     0.47122   0.74808   0.85717   0.00000  Uiso   1.00
C1110  C     0.02991   0.92448   0.82785   0.00000  Uiso   1.00
Cu1111 Cu    0.25501   0.83913   0.89479   0.00000  Uiso   1.00
Cu1112 Cu    0.24500   0.82754   0.77187   0.00000  Uiso   1.00
H1113  H     0.38378   0.75873   0.84968   0.00000  Uiso   1.00
H1114  H     0.11695   0.91141   0.82730   0.00000  Uiso   1.00
H1115  H     0.45129   0.71474   0.86484   0.00000  Uiso   1.00
H1116  H     0.05018   0.95896   0.82448   0.00000  Uiso   1.00
H1117  H     0.03256   0.71243   0.86625   0.00000  Uiso   1.00
H1118  H     0.46887   0.96110   0.82146   0.00000  Uiso   1.00
H1119  H     0.21518   0.79218   0.98279   0.00000  Uiso   1.00
H1120  H     0.28460   0.87464   0.68386   0.00000  Uiso   1.00
N1121  N     0.23745   0.81881   0.67951   0.00000  Uiso   1.00
N1122  N     0.26256   0.84786   0.98716   0.00000  Uiso   1.00
O1123  O     0.25326   0.76204   0.87326   0.00000  Uiso   1.00
O1124  O     0.24675   0.90462   0.79341   0.00000  Uiso   1.00
O1125  O     0.24480   0.75226   0.76945   0.00000  Uiso   1.00
O1126  O     0.25520   0.91441   0.89721   0.00000  Uiso   1.00
O1127  O     0.18936   0.83821   0.88524   0.00000  Uiso   1.00
O1128  O     0.31065   0.82845   0.78143   0.00000  Uiso   1.00
O1129  O     0.18090   0.82843   0.78143   0.00000  Uiso   1.00
O1130  O     0.31910   0.83824   0.88523   0.00000  Uiso   1.00
O1131  O     0.38871   0.92404   0.81522   0.00000  Uiso   1.00
C1132  C     0.37270   0.91809   0.75259   0.00000  Uiso   1.00
H1133  H     0.33914   0.93391   0.75241   0.00000  Uiso   1.00
H1134  H     0.36819   0.87661   0.72553   0.00000  Uiso   1.00
C1135  C     0.40378   0.94968   0.72013   0.00000  Uiso   1.00
H1136  H     0.40878   0.99090   0.74716   0.00000  Uiso   1.00
H1137  H     0.43684   0.93272   0.71684   0.00000  Uiso   1.00
C1138  C     0.38441   0.94876   0.98823   0.00000  Uiso   1.00
H1139  H     0.38072   0.90801   0.95995   0.00000  Uiso   1.00
H1140  H     0.40736   0.97246   0.96619   0.00000  Uiso   1.00
H1141  H     0.35119   0.96533   0.98959   0.00000  Uiso   1.00
O1142  O     0.10993   0.74069   0.84559   0.00000  Uiso   1.00
C1143  C     0.12063   0.71320   0.78640   0.00000  Uiso   1.00
H1144  H     0.13365   0.67602   0.79267   0.00000  Uiso   1.00
H1145  H     0.14819   0.73449   0.76909   0.00000  Uiso   1.00
C1146  C     0.08034   0.69935   0.73735   0.00000  Uiso   1.00
H1147  H     0.05199   0.67999   0.75547   0.00000  Uiso   1.00
H1148  H     0.06896   0.73551   0.72531   0.00000  Uiso   1.00
C1149  C     0.09291   0.99612   0.67840   0.00000  Uiso   1.00
H1150  H     0.12097   0.68146   0.99209   0.00000  Uiso   1.00
H1151  H     0.06355   0.98744   0.97699   0.00000  Uiso   1.00
H1152  H     0.10308   0.95870   0.68823   0.00000  Uiso   1.00
O1153  O     0.21946   0.98329   0.75562   0.00000  Uiso   1.00
H1154  H     0.19510   0.96036   0.76606   0.00000  Uiso   1.00
O1155  O     0.27805   0.68703   0.91102   0.00000  Uiso   1.00
H1156  H     0.28943   0.99825   0.93822   0.00000  Uiso   1.00
C1157  C     0.74811   0.73338   0.81795   0.00000  Uiso   1.00
C1158  C     0.75191   0.93336   0.84881   0.00000  Uiso   1.00
C1159  C     0.51763   0.74686   0.85788   0.00000  Uiso   1.00
C1160  C     0.98343   0.92544   0.82595   0.00000  Uiso   1.00
C1161  C     0.74181   0.67788   0.81047   0.00000  Uiso   1.00
C1162  C     0.75624   0.98944   0.85701   0.00000  Uiso   1.00
C1163  C     0.66450   0.83197   0.83419   0.00000  Uiso   1.00
C1164  C     0.83555   0.83517   0.83262   0.00000  Uiso   1.00
C1165  C     0.90932   0.87987   0.82297   0.00000  Uiso   1.00
C1166  C     0.59058   0.78676   0.84246   0.00000  Uiso   1.00
C1167  C     0.88371   0.83548   0.83101   0.00000  Uiso   1.00
C1168  C     0.61643   0.83167   0.83636   0.00000  Uiso   1.00
C1169  C     0.90422   0.79217   0.84289   0.00000  Uiso   1.00
C1170  C     0.59639   0.87736   0.83212   0.00000  Uiso   1.00
C1171  C     0.95066   0.79173   0.84597   0.00000  Uiso   1.00
C1172  C     0.55016   0.87911   0.83328   0.00000  Uiso   1.00
C1173  C     0.97692   0.83583   0.83845   0.00000  Uiso   1.00
C1174  C     0.52381   0.83485   0.84003   0.00000  Uiso   1.00
C1175  C     0.95638   0.88076   0.82904   0.00000  Uiso   1.00
C1176  C     0.54422   0.78935   0.84738   0.00000  Uiso   1.00
C1177  C     0.97122   0.74808   0.85717   0.00000  Uiso   1.00
C1178  C     0.52991   0.92448   0.82785   0.00000  Uiso   1.00
Cu1179 Cu    0.75501   0.83913   0.89479   0.00000  Uiso   1.00
Cu1180 Cu    0.74500   0.82754   0.77187   0.00000  Uiso   1.00
H1181  H     0.88378   0.75873   0.84968   0.00000  Uiso   1.00
H1182  H     0.61695   0.91141   0.82730   0.00000  Uiso   1.00
H1183  H     0.95129   0.71474   0.86484   0.00000  Uiso   1.00
H1184  H     0.55018   0.95896   0.82448   0.00000  Uiso   1.00
H1185  H     0.53256   0.71243   0.86625   0.00000  Uiso   1.00
H1186  H     0.96887   0.96110   0.82146   0.00000  Uiso   1.00
H1187  H     0.71518   0.79218   0.98279   0.00000  Uiso   1.00
H1188  H     0.78460   0.87464   0.68386   0.00000  Uiso   1.00
N1189  N     0.73745   0.81881   0.67951   0.00000  Uiso   1.00
N1190  N     0.76256   0.84786   0.98716   0.00000  Uiso   1.00
O1191  O     0.75326   0.76204   0.87326   0.00000  Uiso   1.00
O1192  O     0.74675   0.90462   0.79341   0.00000  Uiso   1.00
O1193  O     0.74480   0.75226   0.76945   0.00000  Uiso   1.00
O1194  O     0.75520   0.91441   0.89721   0.00000  Uiso   1.00
O1195  O     0.68936   0.83821   0.88524   0.00000  Uiso   1.00
O1196  O     0.81065   0.82845   0.78143   0.00000  Uiso   1.00
O1197  O     0.68090   0.82843   0.78143   0.00000  Uiso   1.00
O1198  O     0.81910   0.83824   0.88523   0.00000  Uiso   1.00
O1199  O     0.88871   0.92404   0.81522   0.00000  Uiso   1.00
C1200  C     0.87270   0.91809   0.75259   0.00000  Uiso   1.00
H1201  H     0.83914   0.93391   0.75241   0.00000  Uiso   1.00
H1202  H     0.86819   0.87661   0.72553   0.00000  Uiso   1.00
C1203  C     0.90378   0.94968   0.72013   0.00000  Uiso   1.00
H1204  H     0.90878   0.99090   0.74716   0.00000  Uiso   1.00
H1205  H     0.93684   0.93272   0.71684   0.00000  Uiso   1.00
C1206  C     0.88441   0.94876   0.98823   0.00000  Uiso   1.00
H1207  H     0.88072   0.90801   0.95995   0.00000  Uiso   1.00
H1208  H     0.90736   0.97246   0.96619   0.00000  Uiso   1.00
H1209  H     0.85119   0.96533   0.98959   0.00000  Uiso   1.00
O1210  O     0.60993   0.74069   0.84559   0.00000  Uiso   1.00
C1211  C     0.62063   0.71320   0.78640   0.00000  Uiso   1.00
H1212  H     0.63365   0.67602   0.79267   0.00000  Uiso   1.00
H1213  H     0.64819   0.73449   0.76909   0.00000  Uiso   1.00
C1214  C     0.58034   0.69935   0.73735   0.00000  Uiso   1.00
H1215  H     0.55199   0.67999   0.75547   0.00000  Uiso   1.00
H1216  H     0.56896   0.73551   0.72531   0.00000  Uiso   1.00
C1217  C     0.59291   0.99612   0.67840   0.00000  Uiso   1.00
H1218  H     0.62097   0.68146   0.99209   0.00000  Uiso   1.00
H1219  H     0.56355   0.98744   0.97699   0.00000  Uiso   1.00
H1220  H     0.60308   0.95870   0.68823   0.00000  Uiso   1.00
O1221  O     0.71946   0.98329   0.75562   0.00000  Uiso   1.00
H1222  H     0.69510   0.96036   0.76606   0.00000  Uiso   1.00
O1223  O     0.77805   0.68703   0.91102   0.00000  Uiso   1.00
H1224  H     0.78943   0.99825   0.93822   0.00000  Uiso   1.00
loop_
_geom_bond_atom_site_label_1
_geom_bond_atom_site_label_2
_geom_bond_distance
_geom_bond_site_symmetry_2
_ccdc_geom_bond_type
C1     O37     1.288   .     A
C1     C5      1.431   .     S
C1     O35     1.287   .     A
C2     O38     1.288   .     A
C2     O36     1.289   .     A
C2     C6      1.442   .     S
C3     C20     1.405   .     A
C3     H29     1.081   .     S
C3     C89     1.391   1_455 S
C4     C19     1.405   .     A
C4     H30     1.080   .     S
C4     C90     1.392   .     S
C5     C278    1.353   1_545 S
C5     O337    1.384   1_545 S
C6     C141    1.353   .     S
C6     O203    1.390   .     S
C7     C12     1.443   .     S
C7     O39     1.292   .     A
C7     O41     1.290   .     A
C8     C11     1.445   .     S
C8     O40     1.294   .     A
C8     O42     1.289   .     A
C9     C11     1.410   .     A
C9     O43     1.387   .     S
C9     C19     1.405   .     A
C10    C20     1.404   .     A
C10    C12     1.411   .     A
C10    O54     1.388   .     S
C11    C13     1.394   .     A
C12    C14     1.394   .     A
C13    H25     1.086   .     S
C13    C15     1.389   .     A
C14    H26     1.086   .     S
C14    C16     1.390   .     A
C15    C17     1.410   .     A
C15    C21     1.398   .     A
C16    C18     1.409   .     A
C16    C22     1.396   .     A
C17    C19     1.415   .     A
C17    C86     1.405   .     S
C18    C20     1.413   .     A
C18    C85     1.405   1_455 S
C21    H27     1.083   .     S
C21    C71     1.391   .     S
C22    H28     1.081   .     S
C22    C72     1.392   1_455 S
Cu23   O38     1.969   .     S
Cu23   O35     1.972   .     S
Cu23   N34     2.017   .     S
Cu23   O42     1.946   .     S
Cu23   Cu24    2.684   .     S
Cu23   O39     1.962   .     S
Cu24   O41     1.946   .     S
Cu24   O36     1.972   .     S
Cu24   N33     2.017   .     S
Cu24   O37     1.969   .     S
Cu24   O40     1.962   .     S
H31    N441    1.029   .     S
H32    N850    1.027   1_554 S
N33    H847    1.029   1_554 S
N33    N850    1.289   1_554 S
N34    N441    1.289   .     S
N34    H440    1.027   .     S
O43    C44     1.418   .     S
C44    C47     1.532   .     S
C44    H46     1.117   .     S
C44    H45     1.111   .     S
C47    H48     1.112   .     S
C47    H49     1.110   .     S
C47    C866    1.525   1_554 S
C50    H52     1.111   .     S
C50    H51     1.109   .     S
C50    H53     1.109   .     S
C50    C455    1.525   .     S
O54    C55     1.421   .     S
C55    H56     1.109   .     S
C55    H57     1.108   .     S
C55    C58     1.544   .     S
C58    H60     1.111   .     S
C58    H59     1.108   .     S
C58    C333    1.527   1_545 S
C61    H64     1.111   .     S
C61    C194    1.527   .     S
C61    H1014   1.111   1_554 S
C61    H879    1.111   1_554 S
H62    C741    1.111   1_545 S
H63    C469    1.111   .     S
O65    H66     0.991   .     S
O65    C141    1.384   .     S
O67    C278    1.390   1_545 S
O67    H340    0.989   1_545 S
H68    O203    0.989   .     S
C69    O105    1.288   .     A
C69    C73     1.431   .     S
C69    O103    1.287   .     A
C70    O106    1.288   .     A
C70    O104    1.289   .     A
C70    C74     1.442   .     S
C71    C88     1.405   .     A
C71    H97     1.081   .     S
C72    C87     1.405   .     A
C72    H98     1.080   .     S
C72    C22     1.392   1_655 S
C73    C346    1.353   1_545 S
C73    O405    1.384   1_545 S
C74    C209    1.353   .     S
C74    O271    1.390   .     S
C75    C80     1.443   .     S
C75    O107    1.292   .     A
C75    O109    1.290   .     A
C76    C79     1.445   .     S
C76    O108    1.294   .     A
C76    O110    1.289   .     A
C77    C79     1.410   .     A
C77    O111    1.387   .     S
C77    C87     1.405   .     A
C78    C88     1.404   .     A
C78    C80     1.411   .     A
C78    O122    1.388   .     S
C79    C81     1.394   .     A
C80    C82     1.394   .     A
C81    H93     1.086   .     S
C81    C83     1.389   .     A
C82    H94     1.086   .     S
C82    C84     1.390   .     A
C83    C85     1.410   .     A
C83    C89     1.398   .     A
C84    C86     1.409   .     A
C84    C90     1.396   .     A
C85    C87     1.415   .     A
C85    C18     1.405   1_655 S
C86    C88     1.413   .     A
C89    H95     1.083   .     S
C89    C3      1.391   1_655 S
C90    H96     1.081   .     S
Cu91   O106    1.969   .     S
Cu91   O103    1.972   .     S
Cu91   N102    2.017   .     S
Cu91   O110    1.946   .     S
Cu91   Cu92    2.684   .     S
Cu91   O107    1.962   .     S
Cu92   O109    1.946   .     S
Cu92   O104    1.972   .     S
Cu92   N101    2.017   .     S
Cu92   O105    1.969   .     S
Cu92   O108    1.962   .     S
H99    N509    1.029   .     S
H100   N918    1.027   1_554 S
N101   H915    1.029   1_554 S
N101   N918    1.289   1_554 S
N102   N509    1.289   .     S
N102   H508    1.027   .     S
O111   C112    1.418   .     S
C112   C115    1.532   .     S
C112   H114    1.117   .     S
C112   H113    1.111   .     S
C115   H116    1.112   .     S
C115   H117    1.110   .     S
C115   C934    1.525   1_554 S
C118   H120    1.111   .     S
C118   H119    1.109   .     S
C118   H121    1.109   .     S
C118   C523    1.525   .     S
O122   C123    1.421   .     S
C123   H124    1.109   .     S
C123   H125    1.108   .     S
C123   C126    1.544   .     S
C126   H128    1.111   .     S
C126   H127    1.108   .     S
C126   C401    1.527   1_545 S
C129   H132    1.111   .     S
C129   C262    1.527   .     S
C129   H1082   1.111   1_554 S
C129   H947    1.111   1_554 S
H130   C809    1.111   1_545 S
H131   C537    1.111   .     S
O133   H134    0.991   .     S
O133   C209    1.384   .     S
O135   C346    1.390   1_545 S
O135   H408    0.989   1_545 S
H136   O271    0.989   .     S
C137   O173    1.288   .     A
C137   C141    1.431   .     S
C137   O171    1.287   .     A
C138   O174    1.288   .     A
C138   O172    1.289   .     A
C138   C142    1.442   .     S
C139   C156    1.405   .     A
C139   H165    1.081   .     S
C139   C225    1.391   1_455 S
C140   C155    1.405   .     A
C140   H166    1.080   .     S
C140   C226    1.392   .     S
C142   C277    1.353   .     S
C142   O339    1.390   .     S
C143   C148    1.443   .     S
C143   O175    1.292   .     A
C143   O177    1.290   .     A
C144   C147    1.445   .     S
C144   O176    1.294   .     A
C144   O178    1.289   .     A
C145   C147    1.410   .     A
C145   O179    1.387   .     S
C145   C155    1.405   .     A
C146   C156    1.404   .     A
C146   C148    1.411   .     A
C146   O190    1.388   .     S
C147   C149    1.394   .     A
C148   C150    1.394   .     A
C149   H161    1.086   .     S
C149   C151    1.389   .     A
C150   H162    1.086   .     S
C150   C152    1.390   .     A
C151   C153    1.410   .     A
C151   C157    1.398   .     A
C152   C154    1.409   .     A
C152   C158    1.396   .     A
C153   C155    1.415   .     A
C153   C222    1.405   .     S
C154   C156    1.413   .     A
C154   C221    1.405   1_455 S
C157   H163    1.083   .     S
C157   C207    1.391   .     S
C158   H164    1.081   .     S
C158   C208    1.392   1_455 S
Cu159  O174    1.969   .     S
Cu159  O171    1.972   .     S
Cu159  N170    2.017   .     S
Cu159  O178    1.946   .     S
Cu159  Cu160   2.684   .     S
Cu159  O175    1.962   .     S
Cu160  O177    1.946   .     S
Cu160  O172    1.972   .     S
Cu160  N169    2.017   .     S
Cu160  O173    1.969   .     S
Cu160  O176    1.962   .     S
H167   N577    1.029   .     S
H168   N986    1.027   1_554 S
N169   H983    1.029   1_554 S
N169   N986    1.289   1_554 S
N170   N577    1.289   .     S
N170   H576    1.027   .     S
O179   C180    1.418   .     S
C180   C183    1.532   .     S
C180   H182    1.117   .     S
C180   H181    1.111   .     S
C183   H184    1.112   .     S
C183   H185    1.110   .     S
C183   C1002   1.525   1_554 S
C186   H188    1.111   .     S
C186   H187    1.109   .     S
C186   H189    1.109   .     S
C186   C591    1.525   .     S
O190   C191    1.421   .     S
C191   H192    1.109   .     S
C191   H193    1.108   .     S
C191   C194    1.544   .     S
C194   H196    1.111   .     S
C194   H195    1.108   .     S
C197   H200    1.111   .     S
C197   C330    1.527   .     S
C197   H1150   1.111   1_554 S
C197   H1015   1.111   1_554 S
H198   C469    1.111   .     S
H199   C605    1.111   .     S
O201   H202    0.991   .     S
O201   C277    1.384   .     S
H204   O339    0.989   .     S
C205   O241    1.288   .     A
C205   C209    1.431   .     S
C205   O239    1.287   .     A
C206   O242    1.288   .     A
C206   O240    1.289   .     A
C206   C210    1.442   .     S
C207   C224    1.405   .     A
C207   H233    1.081   .     S
C208   C223    1.405   .     A
C208   H234    1.080   .     S
C208   C158    1.392   1_655 S
C210   C345    1.353   .     S
C210   O407    1.390   .     S
C211   C216    1.443   .     S
C211   O243    1.292   .     A
C211   O245    1.290   .     A
C212   C215    1.445   .     S
C212   O244    1.294   .     A
C212   O246    1.289   .     A
C213   C215    1.410   .     A
C213   O247    1.387   .     S
C213   C223    1.405   .     A
C214   C224    1.404   .     A
C214   C216    1.411   .     A
C214   O258    1.388   .     S
C215   C217    1.394   .     A
C216   C218    1.394   .     A
C217   H229    1.086   .     S
C217   C219    1.389   .     A
C218   H230    1.086   .     S
C218   C220    1.390   .     A
C219   C221    1.410   .     A
C219   C225    1.398   .     A
C220   C222    1.409   .     A
C220   C226    1.396   .     A
C221   C223    1.415   .     A
C221   C154    1.405   1_655 S
C222   C224    1.413   .     A
C225   H231    1.083   .     S
C225   C139    1.391   1_655 S
C226   H232    1.081   .     S
Cu227  O242    1.969   .     S
Cu227  O239    1.972   .     S
Cu227  N238    2.017   .     S
Cu227  O246    1.946   .     S
Cu227  Cu228   2.684   .     S
Cu227  O243    1.962   .     S
Cu228  O245    1.946   .     S
Cu228  O240    1.972   .     S
Cu228  N237    2.017   .     S
Cu228  O241    1.969   .     S
Cu228  O244    1.962   .     S
H235   N645    1.029   .     S
H236   N1054   1.027   1_554 S
N237   H1051   1.029   1_554 S
N237   N1054   1.289   1_554 S
N238   N645    1.289   .     S
N238   H644    1.027   .     S
O247   C248    1.418   .     S
C248   C251    1.532   .     S
C248   H250    1.117   .     S
C248   H249    1.111   .     S
C251   H252    1.112   .     S
C251   H253    1.110   .     S
C251   C1070   1.525   1_554 S
C254   H256    1.111   .     S
C254   H255    1.109   .     S
C254   H257    1.109   .     S
C254   C659    1.525   .     S
O258   C259    1.421   .     S
C259   H260    1.109   .     S
C259   H261    1.108   .     S
C259   C262    1.544   .     S
C262   H264    1.111   .     S
C262   H263    1.108   .     S
C265   H268    1.111   .     S
C265   C398    1.527   .     S
C265   H1218   1.111   1_554 S
C265   H1083   1.111   1_554 S
H266   C537    1.111   .     S
H267   C673    1.111   .     S
O269   H270    0.991   .     S
O269   C345    1.384   .     S
H272   O407    0.989   .     S
C273   O309    1.288   .     A
C273   C277    1.431   .     S
C273   O307    1.287   .     A
C274   O310    1.288   .     A
C274   O308    1.289   .     A
C274   C278    1.442   .     S
C275   C292    1.405   .     A
C275   H301    1.081   .     S
C275   C361    1.391   1_455 S
C276   C291    1.405   .     A
C276   H302    1.080   .     S
C276   C362    1.392   .     S
C278   C5      1.353   1_565 S
C278   O67     1.390   1_565 S
C279   C284    1.443   .     S
C279   O311    1.292   .     A
C279   O313    1.290   .     A
C280   C283    1.445   .     S
C280   O312    1.294   .     A
C280   O314    1.289   .     A
C281   C283    1.410   .     A
C281   O315    1.387   .     S
C281   C291    1.405   .     A
C282   C292    1.404   .     A
C282   C284    1.411   .     A
C282   O326    1.388   .     S
C283   C285    1.394   .     A
C284   C286    1.394   .     A
C285   H297    1.086   .     S
C285   C287    1.389   .     A
C286   H298    1.086   .     S
C286   C288    1.390   .     A
C287   C289    1.410   .     A
C287   C293    1.398   .     A
C288   C290    1.409   .     A
C288   C294    1.396   .     A
C289   C291    1.415   .     A
C289   C358    1.405   .     S
C290   C292    1.413   .     A
C290   C357    1.405   1_455 S
C293   H299    1.083   .     S
C293   C343    1.391   .     S
C294   H300    1.081   .     S
C294   C344    1.392   1_455 S
Cu295  O310    1.969   .     S
Cu295  O307    1.972   .     S
Cu295  N306    2.017   .     S
Cu295  O314    1.946   .     S
Cu295  Cu296   2.684   .     S
Cu295  O311    1.962   .     S
Cu296  O313    1.946   .     S
Cu296  O308    1.972   .     S
Cu296  N305    2.017   .     S
Cu296  O309    1.969   .     S
Cu296  O312    1.962   .     S
H303   N713    1.029   .     S
H304   N1122   1.027   1_554 S
N305   H1119   1.029   1_554 S
N305   N1122   1.289   1_554 S
N306   N713    1.289   .     S
N306   H712    1.027   .     S
O315   C316    1.418   .     S
C316   C319    1.532   .     S
C316   H318    1.117   .     S
C316   H317    1.111   .     S
C319   H320    1.112   .     S
C319   H321    1.110   .     S
C319   C1138   1.525   1_554 S
C322   H324    1.111   .     S
C322   H323    1.109   .     S
C322   H325    1.109   .     S
C322   C727    1.525   .     S
O326   C327    1.421   .     S
C327   H328    1.109   .     S
C327   H329    1.108   .     S
C327   C330    1.544   .     S
C330   H332    1.111   .     S
C330   H331    1.108   .     S
C333   H336    1.111   .     S
C333   C58     1.527   1_565 S
C333   H878    1.111   1_564 S
C333   H1151   1.111   1_554 S
H334   C605    1.111   .     S
H335   C741    1.111   .     S
O337   H338    0.991   .     S
O337   C5      1.384   1_565 S
H340   O67     0.989   1_565 S
C341   O377    1.288   .     A
C341   C345    1.431   .     S
C341   O375    1.287   .     A
C342   O378    1.288   .     A
C342   O376    1.289   .     A
C342   C346    1.442   .     S
C343   C360    1.405   .     A
C343   H369    1.081   .     S
C344   C359    1.405   .     A
C344   H370    1.080   .     S
C344   C294    1.392   1_655 S
C346   C73     1.353   1_565 S
C346   O135    1.390   1_565 S
C347   C352    1.443   .     S
C347   O379    1.292   .     A
C347   O381    1.290   .     A
C348   C351    1.445   .     S
C348   O380    1.294   .     A
C348   O382    1.289   .     A
C349   C351    1.410   .     A
C349   O383    1.387   .     S
C349   C359    1.405   .     A
C350   C360    1.404   .     A
C350   C352    1.411   .     A
C350   O394    1.388   .     S
C351   C353    1.394   .     A
C352   C354    1.394   .     A
C353   H365    1.086   .     S
C353   C355    1.389   .     A
C354   H366    1.086   .     S
C354   C356    1.390   .     A
C355   C357    1.410   .     A
C355   C361    1.398   .     A
C356   C358    1.409   .     A
C356   C362    1.396   .     A
C357   C359    1.415   .     A
C357   C290    1.405   1_655 S
C358   C360    1.413   .     A
C361   H367    1.083   .     S
C361   C275    1.391   1_655 S
C362   H368    1.081   .     S
Cu363  O378    1.969   .     S
Cu363  O375    1.972   .     S
Cu363  N374    2.017   .     S
Cu363  O382    1.946   .     S
Cu363  Cu364   2.684   .     S
Cu363  O379    1.962   .     S
Cu364  O381    1.946   .     S
Cu364  O376    1.972   .     S
Cu364  N373    2.017   .     S
Cu364  O377    1.969   .     S
Cu364  O380    1.962   .     S
H371   N781    1.029   .     S
H372   N1190   1.027   1_554 S
N373   H1187   1.029   1_554 S
N373   N1190   1.289   1_554 S
N374   N781    1.289   .     S
N374   H780    1.027   .     S
O383   C384    1.418   .     S
C384   C387    1.532   .     S
C384   H386    1.117   .     S
C384   H385    1.111   .     S
C387   H388    1.112   .     S
C387   H389    1.110   .     S
C387   C1206   1.525   1_554 S
C390   H392    1.111   .     S
C390   H391    1.109   .     S
C390   H393    1.109   .     S
C390   C795    1.525   .     S
O394   C395    1.421   .     S
C395   H396    1.109   .     S
C395   H397    1.108   .     S
C395   C398    1.544   .     S
C398   H400    1.111   .     S
C398   H399    1.108   .     S
C401   H404    1.111   .     S
C401   C126    1.527   1_565 S
C401   H946    1.111   1_564 S
C401   H1219   1.111   1_554 S
H402   C673    1.111   .     S
H403   C809    1.111   .     S
O405   H406    0.991   .     S
O405   C73     1.384   1_565 S
H408   O135    0.989   1_565 S
C409   O445    1.288   .     A
C409   C413    1.431   .     S
C409   O443    1.287   .     A
C410   O446    1.288   .     A
C410   O444    1.289   .     A
C410   C414    1.442   .     S
C411   C428    1.405   .     A
C411   H437    1.081   .     S
C411   C497    1.391   1_455 S
C412   C427    1.405   .     A
C412   H438    1.080   .     S
C412   C498    1.392   .     S
C413   C686    1.353   1_545 S
C413   O745    1.384   1_545 S
C414   C549    1.353   .     S
C414   O611    1.390   .     S
C415   C420    1.443   .     S
C415   O447    1.292   .     A
C415   O449    1.290   .     A
C416   C419    1.445   .     S
C416   O448    1.294   .     A
C416   O450    1.289   .     A
C417   C419    1.410   .     A
C417   O451    1.387   .     S
C417   C427    1.405   .     A
C418   C428    1.404   .     A
C418   C420    1.411   .     A
C418   O462    1.388   .     S
C419   C421    1.394   .     A
C420   C422    1.394   .     A
C421   H433    1.086   .     S
C421   C423    1.389   .     A
C422   H434    1.086   .     S
C422   C424    1.390   .     A
C423   C425    1.410   .     A
C423   C429    1.398   .     A
C424   C426    1.409   .     A
C424   C430    1.396   .     A
C425   C427    1.415   .     A
C425   C494    1.405   .     S
C426   C428    1.413   .     A
C426   C493    1.405   1_455 S
C429   H435    1.083   .     S
C429   C479    1.391   .     S
C430   H436    1.081   .     S
C430   C480    1.392   1_455 S
Cu431  O446    1.969   .     S
Cu431  O443    1.972   .     S
Cu431  N442    2.017   .     S
Cu431  O450    1.946   .     S
Cu431  Cu432   2.684   .     S
Cu431  O447    1.962   .     S
Cu432  O449    1.946   .     S
Cu432  O444    1.972   .     S
Cu432  N441    2.017   .     S
Cu432  O445    1.969   .     S
Cu432  O448    1.962   .     S
H439   N849    1.029   .     S
N442   N849    1.289   .     S
N442   H848    1.027   .     S
O451   C452    1.418   .     S
C452   C455    1.532   .     S
C452   H454    1.117   .     S
C452   H453    1.111   .     S
C455   H456    1.112   .     S
C455   H457    1.110   .     S
C458   H460    1.111   .     S
C458   H459    1.109   .     S
C458   H461    1.109   .     S
C458   C863    1.525   .     S
O462   C463    1.421   .     S
C463   H464    1.109   .     S
C463   H465    1.108   .     S
C463   C466    1.544   .     S
C466   H468    1.111   .     S
C466   H467    1.108   .     S
C466   C741    1.527   1_545 S
C469   H472    1.111   .     S
C469   C602    1.527   .     S
H470   C1149   1.111   1_545 S
H471   C877    1.111   .     S
O473   H474    0.991   .     S
O473   C549    1.384   .     S
O475   C686    1.390   1_545 S
O475   H748    0.989   1_545 S
H476   O611    0.989   .     S
C477   O513    1.288   .     A
C477   C481    1.431   .     S
C477   O511    1.287   .     A
C478   O514    1.288   .     A
C478   O512    1.289   .     A
C478   C482    1.442   .     S
C479   C496    1.405   .     A
C479   H505    1.081   .     S
C480   C495    1.405   .     A
C480   H506    1.080   .     S
C480   C430    1.392   1_655 S
C481   C754    1.353   1_545 S
C481   O813    1.384   1_545 S
C482   C617    1.353   .     S
C482   O679    1.390   .     S
C483   C488    1.443   .     S
C483   O515    1.292   .     A
C483   O517    1.290   .     A
C484   C487    1.445   .     S
C484   O516    1.294   .     A
C484   O518    1.289   .     A
C485   C487    1.410   .     A
C485   O519    1.387   .     S
C485   C495    1.405   .     A
C486   C496    1.404   .     A
C486   C488    1.411   .     A
C486   O530    1.388   .     S
C487   C489    1.394   .     A
C488   C490    1.394   .     A
C489   H501    1.086   .     S
C489   C491    1.389   .     A
C490   H502    1.086   .     S
C490   C492    1.390   .     A
C491   C493    1.410   .     A
C491   C497    1.398   .     A
C492   C494    1.409   .     A
C492   C498    1.396   .     A
C493   C495    1.415   .     A
C493   C426    1.405   1_655 S
C494   C496    1.413   .     A
C497   H503    1.083   .     S
C497   C411    1.391   1_655 S
C498   H504    1.081   .     S
Cu499  O514    1.969   .     S
Cu499  O511    1.972   .     S
Cu499  N510    2.017   .     S
Cu499  O518    1.946   .     S
Cu499  Cu500   2.684   .     S
Cu499  O515    1.962   .     S
Cu500  O517    1.946   .     S
Cu500  O512    1.972   .     S
Cu500  N509    2.017   .     S
Cu500  O513    1.969   .     S
Cu500  O516    1.962   .     S
H507   N917    1.029   .     S
N510   N917    1.289   .     S
N510   H916    1.027   .     S
O519   C520    1.418   .     S
C520   C523    1.532   .     S
C520   H522    1.117   .     S
C520   H521    1.111   .     S
C523   H524    1.112   .     S
C523   H525    1.110   .     S
C526   H528    1.111   .     S
C526   H527    1.109   .     S
C526   H529    1.109   .     S
C526   C931    1.525   .     S
O530   C531    1.421   .     S
C531   H532    1.109   .     S
C531   H533    1.108   .     S
C531   C534    1.544   .     S
C534   H536    1.111   .     S
C534   H535    1.108   .     S
C534   C809    1.527   1_545 S
C537   H540    1.111   .     S
C537   C670    1.527   .     S
H538   C1217   1.111   1_545 S
H539   C945    1.111   .     S
O541   H542    0.991   .     S
O541   C617    1.384   .     S
O543   C754    1.390   1_545 S
O543   H816    0.989   1_545 S
H544   O679    0.989   .     S
C545   O581    1.288   .     A
C545   C549    1.431   .     S
C545   O579    1.287   .     A
C546   O582    1.288   .     A
C546   O580    1.289   .     A
C546   C550    1.442   .     S
C547   C564    1.405   .     A
C547   H573    1.081   .     S
C547   C633    1.391   1_455 S
C548   C563    1.405   .     A
C548   H574    1.080   .     S
C548   C634    1.392   .     S
C550   C685    1.353   .     S
C550   O747    1.390   .     S
C551   C556    1.443   .     S
C551   O583    1.292   .     A
C551   O585    1.290   .     A
C552   C555    1.445   .     S
C552   O584    1.294   .     A
C552   O586    1.289   .     A
C553   C555    1.410   .     A
C553   O587    1.387   .     S
C553   C563    1.405   .     A
C554   C564    1.404   .     A
C554   C556    1.411   .     A
C554   O598    1.388   .     S
C555   C557    1.394   .     A
C556   C558    1.394   .     A
C557   H569    1.086   .     S
C557   C559    1.389   .     A
C558   H570    1.086   .     S
C558   C560    1.390   .     A
C559   C561    1.410   .     A
C559   C565    1.398   .     A
C560   C562    1.409   .     A
C560   C566    1.396   .     A
C561   C563    1.415   .     A
C561   C630    1.405   .     S
C562   C564    1.413   .     A
C562   C629    1.405   1_455 S
C565   H571    1.083   .     S
C565   C615    1.391   .     S
C566   H572    1.081   .     S
C566   C616    1.392   1_455 S
Cu567  O582    1.969   .     S
Cu567  O579    1.972   .     S
Cu567  N578    2.017   .     S
Cu567  O586    1.946   .     S
Cu567  Cu568   2.684   .     S
Cu567  O583    1.962   .     S
Cu568  O585    1.946   .     S
Cu568  O580    1.972   .     S
Cu568  N577    2.017   .     S
Cu568  O581    1.969   .     S
Cu568  O584    1.962   .     S
H575   N985    1.029   .     S
N578   N985    1.289   .     S
N578   H984    1.027   .     S
O587   C588    1.418   .     S
C588   C591    1.532   .     S
C588   H590    1.117   .     S
C588   H589    1.111   .     S
C591   H592    1.112   .     S
C591   H593    1.110   .     S
C594   H596    1.111   .     S
C594   H595    1.109   .     S
C594   H597    1.109   .     S
C594   C999    1.525   .     S
O598   C599    1.421   .     S
C599   H600    1.109   .     S
C599   H601    1.108   .     S
C599   C602    1.544   .     S
C602   H604    1.111   .     S
C602   H603    1.108   .     S
C605   H608    1.111   .     S
C605   C738    1.527   .     S
H606   C877    1.111   .     S
H607   C1013   1.111   .     S
O609   H610    0.991   .     S
O609   C685    1.384   .     S
H612   O747    0.989   .     S
C613   O649    1.288   .     A
C613   C617    1.431   .     S
C613   O647    1.287   .     A
C614   O650    1.288   .     A
C614   O648    1.289   .     A
C614   C618    1.442   .     S
C615   C632    1.405   .     A
C615   H641    1.081   .     S
C616   C631    1.405   .     A
C616   H642    1.080   .     S
C616   C566    1.392   1_655 S
C618   C753    1.353   .     S
C618   O815    1.390   .     S
C619   C624    1.443   .     S
C619   O651    1.292   .     A
C619   O653    1.290   .     A
C620   C623    1.445   .     S
C620   O652    1.294   .     A
C620   O654    1.289   .     A
C621   C623    1.410   .     A
C621   O655    1.387   .     S
C621   C631    1.405   .     A
C622   C632    1.404   .     A
C622   C624    1.411   .     A
C622   O666    1.388   .     S
C623   C625    1.394   .     A
C624   C626    1.394   .     A
C625   H637    1.086   .     S
C625   C627    1.389   .     A
C626   H638    1.086   .     S
C626   C628    1.390   .     A
C627   C629    1.410   .     A
C627   C633    1.398   .     A
C628   C630    1.409   .     A
C628   C634    1.396   .     A
C629   C631    1.415   .     A
C629   C562    1.405   1_655 S
C630   C632    1.413   .     A
C633   H639    1.083   .     S
C633   C547    1.391   1_655 S
C634   H640    1.081   .     S
Cu635  O650    1.969   .     S
Cu635  O647    1.972   .     S
Cu635  N646    2.017   .     S
Cu635  O654    1.946   .     S
Cu635  Cu636   2.684   .     S
Cu635  O651    1.962   .     S
Cu636  O653    1.946   .     S
Cu636  O648    1.972   .     S
Cu636  N645    2.017   .     S
Cu636  O649    1.969   .     S
Cu636  O652    1.962   .     S
H643   N1053   1.029   .     S
N646   N1053   1.289   .     S
N646   H1052   1.027   .     S
O655   C656    1.418   .     S
C656   C659    1.532   .     S
C656   H658    1.117   .     S
C656   H657    1.111   .     S
C659   H660    1.112   .     S
C659   H661    1.110   .     S
C662   H664    1.111   .     S
C662   H663    1.109   .     S
C662   H665    1.109   .     S
C662   C1067   1.525   .     S
O666   C667    1.421   .     S
C667   H668    1.109   .     S
C667   H669    1.108   .     S
C667   C670    1.544   .     S
C670   H672    1.111   .     S
C670   H671    1.108   .     S
C673   H676    1.111   .     S
C673   C806    1.527   .     S
H674   C945    1.111   .     S
H675   C1081   1.111   .     S
O677   H678    0.991   .     S
O677   C753    1.384   .     S
H680   O815    0.989   .     S
C681   O717    1.288   .     A
C681   C685    1.431   .     S
C681   O715    1.287   .     A
C682   O718    1.288   .     A
C682   O716    1.289   .     A
C682   C686    1.442   .     S
C683   C700    1.405   .     A
C683   H709    1.081   .     S
C683   C769    1.391   1_455 S
C684   C699    1.405   .     A
C684   H710    1.080   .     S
C684   C770    1.392   .     S
C686   C413    1.353   1_565 S
C686   O475    1.390   1_565 S
C687   C692    1.443   .     S
C687   O719    1.292   .     A
C687   O721    1.290   .     A
C688   C691    1.445   .     S
C688   O720    1.294   .     A
C688   O722    1.289   .     A
C689   C691    1.410   .     A
C689   O723    1.387   .     S
C689   C699    1.405   .     A
C690   C700    1.404   .     A
C690   C692    1.411   .     A
C690   O734    1.388   .     S
C691   C693    1.394   .     A
C692   C694    1.394   .     A
C693   H705    1.086   .     S
C693   C695    1.389   .     A
C694   H706    1.086   .     S
C694   C696    1.390   .     A
C695   C697    1.410   .     A
C695   C701    1.398   .     A
C696   C698    1.409   .     A
C696   C702    1.396   .     A
C697   C699    1.415   .     A
C697   C766    1.405   .     S
C698   C700    1.413   .     A
C698   C765    1.405   1_455 S
C701   H707    1.083   .     S
C701   C751    1.391   .     S
C702   H708    1.081   .     S
C702   C752    1.392   1_455 S
Cu703  O718    1.969   .     S
Cu703  O715    1.972   .     S
Cu703  N714    2.017   .     S
Cu703  O722    1.946   .     S
Cu703  Cu704   2.684   .     S
Cu703  O719    1.962   .     S
Cu704  O721    1.946   .     S
Cu704  O716    1.972   .     S
Cu704  N713    2.017   .     S
Cu704  O717    1.969   .     S
Cu704  O720    1.962   .     S
H711   N1121   1.029   .     S
N714   N1121   1.289   .     S
N714   H1120   1.027   .     S
O723   C724    1.418   .     S
C724   C727    1.532   .     S
C724   H726    1.117   .     S
C724   H725    1.111   .     S
C727   H728    1.112   .     S
C727   H729    1.110   .     S
C730   H732    1.111   .     S
C730   H731    1.109   .     S
C730   H733    1.109   .     S
C730   C1135   1.525   .     S
O734   C735    1.421   .     S
C735   H736    1.109   .     S
C735   H737    1.108   .     S
C735   C738    1.544   .     S
C738   H740    1.111   .     S
C738   H739    1.108   .     S
C741   H744    1.111   .     S
C741   C466    1.527   1_565 S
C741   H62     1.111   1_565 S
H742   C1013   1.111   .     S
H743   C1149   1.111   .     S
O745   H746    0.991   .     S
O745   C413    1.384   1_565 S
H748   O475    0.989   1_565 S
C749   O785    1.288   .     A
C749   C753    1.431   .     S
C749   O783    1.287   .     A
C750   O786    1.288   .     A
C750   O784    1.289   .     A
C750   C754    1.442   .     S
C751   C768    1.405   .     A
C751   H777    1.081   .     S
C752   C767    1.405   .     A
C752   H778    1.080   .     S
C752   C702    1.392   1_655 S
C754   C481    1.353   1_565 S
C754   O543    1.390   1_565 S
C755   C760    1.443   .     S
C755   O787    1.292   .     A
C755   O789    1.290   .     A
C756   C759    1.445   .     S
C756   O788    1.294   .     A
C756   O790    1.289   .     A
C757   C759    1.410   .     A
C757   O791    1.387   .     S
C757   C767    1.405   .     A
C758   C768    1.404   .     A
C758   C760    1.411   .     A
C758   O802    1.388   .     S
C759   C761    1.394   .     A
C760   C762    1.394   .     A
C761   H773    1.086   .     S
C761   C763    1.389   .     A
C762   H774    1.086   .     S
C762   C764    1.390   .     A
C763   C765    1.410   .     A
C763   C769    1.398   .     A
C764   C766    1.409   .     A
C764   C770    1.396   .     A
C765   C767    1.415   .     A
C765   C698    1.405   1_655 S
C766   C768    1.413   .     A
C769   H775    1.083   .     S
C769   C683    1.391   1_655 S
C770   H776    1.081   .     S
Cu771  O786    1.969   .     S
Cu771  O783    1.972   .     S
Cu771  N782    2.017   .     S
Cu771  O790    1.946   .     S
Cu771  Cu772   2.684   .     S
Cu771  O787    1.962   .     S
Cu772  O789    1.946   .     S
Cu772  O784    1.972   .     S
Cu772  N781    2.017   .     S
Cu772  O785    1.969   .     S
Cu772  O788    1.962   .     S
H779   N1189   1.029   .     S
N782   N1189   1.289   .     S
N782   H1188   1.027   .     S
O791   C792    1.418   .     S
C792   C795    1.532   .     S
C792   H794    1.117   .     S
C792   H793    1.111   .     S
C795   H796    1.112   .     S
C795   H797    1.110   .     S
C798   H800    1.111   .     S
C798   H799    1.109   .     S
C798   H801    1.109   .     S
C798   C1203   1.525   .     S
O802   C803    1.421   .     S
C803   H804    1.109   .     S
C803   H805    1.108   .     S
C803   C806    1.544   .     S
C806   H808    1.111   .     S
C806   H807    1.108   .     S
C809   H812    1.111   .     S
C809   C534    1.527   1_565 S
C809   H130    1.111   1_565 S
H810   C1081   1.111   .     S
H811   C1217   1.111   .     S
O813   H814    0.991   .     S
O813   C481    1.384   1_565 S
H816   O543    0.989   1_565 S
C817   O853    1.288   .     A
C817   C821    1.431   .     S
C817   O851    1.287   .     A
C818   O854    1.288   .     A
C818   O852    1.289   .     A
C818   C822    1.442   .     S
C819   C836    1.405   .     A
C819   H845    1.081   .     S
C819   C905    1.391   1_455 S
C820   C835    1.405   .     A
C820   H846    1.080   .     S
C820   C906    1.392   .     S
C821   C1094   1.353   1_545 S
C821   O1153   1.384   1_545 S
C822   C957    1.353   .     S
C822   O1019   1.390   .     S
C823   C828    1.443   .     S
C823   O855    1.292   .     A
C823   O857    1.290   .     A
C824   C827    1.445   .     S
C824   O856    1.294   .     A
C824   O858    1.289   .     A
C825   C827    1.410   .     A
C825   O859    1.387   .     S
C825   C835    1.405   .     A
C826   C836    1.404   .     A
C826   C828    1.411   .     A
C826   O870    1.388   .     S
C827   C829    1.394   .     A
C828   C830    1.394   .     A
C829   H841    1.086   .     S
C829   C831    1.389   .     A
C830   H842    1.086   .     S
C830   C832    1.390   .     A
C831   C833    1.410   .     A
C831   C837    1.398   .     A
C832   C834    1.409   .     A
C832   C838    1.396   .     A
C833   C835    1.415   .     A
C833   C902    1.405   .     S
C834   C836    1.413   .     A
C834   C901    1.405   1_455 S
C837   H843    1.083   .     S
C837   C887    1.391   .     S
C838   H844    1.081   .     S
C838   C888    1.392   1_455 S
Cu839  O854    1.969   .     S
Cu839  O851    1.972   .     S
Cu839  N850    2.017   .     S
Cu839  O858    1.946   .     S
Cu839  Cu840   2.684   .     S
Cu839  O855    1.962   .     S
Cu840  O857    1.946   .     S
Cu840  O852    1.972   .     S
Cu840  N849    2.017   .     S
Cu840  O853    1.969   .     S
Cu840  O856    1.962   .     S
H847   N33     1.029   1_556 S
N850   N33     1.289   1_556 S
N850   H32     1.027   1_556 S
O859   C860    1.418   .     S
C860   C863    1.532   .     S
C860   H862    1.117   .     S
C860   H861    1.111   .     S
C863   H864    1.112   .     S
C863   H865    1.110   .     S
C866   H868    1.111   .     S
C866   H867    1.109   .     S
C866   H869    1.109   .     S
C866   C47     1.525   1_556 S
O870   C871    1.421   .     S
C871   H872    1.109   .     S
C871   H873    1.108   .     S
C871   C874    1.544   .     S
C874   H876    1.111   .     S
C874   H875    1.108   .     S
C874   C1149   1.527   1_545 S
C877   H880    1.111   .     S
C877   C1010   1.527   .     S
H878   C333    1.111   1_546 S
H879   C61     1.111   1_556 S
O881   H882    0.991   .     S
O881   C957    1.384   .     S
O883   C1094   1.390   1_545 S
O883   H1156   0.989   1_545 S
H884   O1019   0.989   .     S
C885   O921    1.288   .     A
C885   C889    1.431   .     S
C885   O919    1.287   .     A
C886   O922    1.288   .     A
C886   O920    1.289   .     A
C886   C890    1.442   .     S
C887   C904    1.405   .     A
C887   H913    1.081   .     S
C888   C903    1.405   .     A
C888   H914    1.080   .     S
C888   C838    1.392   1_655 S
C889   C1162   1.353   1_545 S
C889   O1221   1.384   1_545 S
C890   C1025   1.353   .     S
C890   O1087   1.390   .     S
C891   C896    1.443   .     S
C891   O923    1.292   .     A
C891   O925    1.290   .     A
C892   C895    1.445   .     S
C892   O924    1.294   .     A
C892   O926    1.289   .     A
C893   C895    1.410   .     A
C893   O927    1.387   .     S
C893   C903    1.405   .     A
C894   C904    1.404   .     A
C894   C896    1.411   .     A
C894   O938    1.388   .     S
C895   C897    1.394   .     A
C896   C898    1.394   .     A
C897   H909    1.086   .     S
C897   C899    1.389   .     A
C898   H910    1.086   .     S
C898   C900    1.390   .     A
C899   C901    1.410   .     A
C899   C905    1.398   .     A
C900   C902    1.409   .     A
C900   C906    1.396   .     A
C901   C903    1.415   .     A
C901   C834    1.405   1_655 S
C902   C904    1.413   .     A
C905   H911    1.083   .     S
C905   C819    1.391   1_655 S
C906   H912    1.081   .     S
Cu907  O922    1.969   .     S
Cu907  O919    1.972   .     S
Cu907  N918    2.017   .     S
Cu907  O926    1.946   .     S
Cu907  Cu908   2.684   .     S
Cu907  O923    1.962   .     S
Cu908  O925    1.946   .     S
Cu908  O920    1.972   .     S
Cu908  N917    2.017   .     S
Cu908  O921    1.969   .     S
Cu908  O924    1.962   .     S
H915   N101    1.029   1_556 S
N918   N101    1.289   1_556 S
N918   H100    1.027   1_556 S
O927   C928    1.418   .     S
C928   C931    1.532   .     S
C928   H930    1.117   .     S
C928   H929    1.111   .     S
C931   H932    1.112   .     S
C931   H933    1.110   .     S
C934   H936    1.111   .     S
C934   H935    1.109   .     S
C934   H937    1.109   .     S
C934   C115    1.525   1_556 S
O938   C939    1.421   .     S
C939   H940    1.109   .     S
C939   H941    1.108   .     S
C939   C942    1.544   .     S
C942   H944    1.111   .     S
C942   H943    1.108   .     S
C942   C1217   1.527   1_545 S
C945   H948    1.111   .     S
C945   C1078   1.527   .     S
H946   C401    1.111   1_546 S
H947   C129    1.111   1_556 S
O949   H950    0.991   .     S
O949   C1025   1.384   .     S
O951   C1162   1.390   1_545 S
O951   H1224   0.989   1_545 S
H952   O1087   0.989   .     S
C953   O989    1.288   .     A
C953   C957    1.431   .     S
C953   O987    1.287   .     A
C954   O990    1.288   .     A
C954   O988    1.289   .     A
C954   C958    1.442   .     S
C955   C972    1.405   .     A
C955   H981    1.081   .     S
C955   C1041   1.391   1_455 S
C956   C971    1.405   .     A
C956   H982    1.080   .     S
C956   C1042   1.392   .     S
C958   C1093   1.353   .     S
C958   O1155   1.390   .     S
C959   C964    1.443   .     S
C959   O991    1.292   .     A
C959   O993    1.290   .     A
C960   C963    1.445   .     S
C960   O992    1.294   .     A
C960   O994    1.289   .     A
C961   C963    1.410   .     A
C961   O995    1.387   .     S
C961   C971    1.405   .     A
C962   C972    1.404   .     A
C962   C964    1.411   .     A
C962   O1006   1.388   .     S
C963   C965    1.394   .     A
C964   C966    1.394   .     A
C965   H977    1.086   .     S
C965   C967    1.389   .     A
C966   H978    1.086   .     S
C966   C968    1.390   .     A
C967   C969    1.410   .     A
C967   C973    1.398   .     A
C968   C970    1.409   .     A
C968   C974    1.396   .     A
C969   C971    1.415   .     A
C969   C1038   1.405   .     S
C970   C972    1.413   .     A
C970   C1037   1.405   1_455 S
C973   H979    1.083   .     S
C973   C1023   1.391   .     S
C974   H980    1.081   .     S
C974   C1024   1.392   1_455 S
Cu975  O990    1.969   .     S
Cu975  O987    1.972   .     S
Cu975  N986    2.017   .     S
Cu975  O994    1.946   .     S
Cu975  Cu976   2.684   .     S
Cu975  O991    1.962   .     S
Cu976  O993    1.946   .     S
Cu976  O988    1.972   .     S
Cu976  N985    2.017   .     S
Cu976  O989    1.969   .     S
Cu976  O992    1.962   .     S
H983   N169    1.029   1_556 S
N986   N169    1.289   1_556 S
N986   H168    1.027   1_556 S
O995   C996    1.418   .     S
C996   C999    1.532   .     S
C996   H998    1.117   .     S
C996   H997    1.111   .     S
C999   H1000   1.112   .     S
C999   H1001   1.110   .     S
C1002  H1004   1.111   .     S
C1002  H1003   1.109   .     S
C1002  H1005   1.109   .     S
C1002  C183    1.525   1_556 S
O1006  C1007   1.421   .     S
C1007  H1008   1.109   .     S
C1007  H1009   1.108   .     S
C1007  C1010   1.544   .     S
C1010  H1012   1.111   .     S
C1010  H1011   1.108   .     S
C1013  H1016   1.111   .     S
C1013  C1146   1.527   .     S
H1014  C61     1.111   1_556 S
H1015  C197    1.111   1_556 S
O1017  H1018   0.991   .     S
O1017  C1093   1.384   .     S
H1020  O1155   0.989   .     S
C1021  O1057   1.288   .     A
C1021  C1025   1.431   .     S
C1021  O1055   1.287   .     A
C1022  O1058   1.288   .     A
C1022  O1056   1.289   .     A
C1022  C1026   1.442   .     S
C1023  C1040   1.405   .     A
C1023  H1049   1.081   .     S
C1024  C1039   1.405   .     A
C1024  H1050   1.080   .     S
C1024  C974    1.392   1_655 S
C1026  C1161   1.353   .     S
C1026  O1223   1.390   .     S
C1027  C1032   1.443   .     S
C1027  O1059   1.292   .     A
C1027  O1061   1.290   .     A
C1028  C1031   1.445   .     S
C1028  O1060   1.294   .     A
C1028  O1062   1.289   .     A
C1029  C1031   1.410   .     A
C1029  O1063   1.387   .     S
C1029  C1039   1.405   .     A
C1030  C1040   1.404   .     A
C1030  C1032   1.411   .     A
C1030  O1074   1.388   .     S
C1031  C1033   1.394   .     A
C1032  C1034   1.394   .     A
C1033  H1045   1.086   .     S
C1033  C1035   1.389   .     A
C1034  H1046   1.086   .     S
C1034  C1036   1.390   .     A
C1035  C1037   1.410   .     A
C1035  C1041   1.398   .     A
C1036  C1038   1.409   .     A
C1036  C1042   1.396   .     A
C1037  C1039   1.415   .     A
C1037  C970    1.405   1_655 S
C1038  C1040   1.413   .     A
C1041  H1047   1.083   .     S
C1041  C955    1.391   1_655 S
C1042  H1048   1.081   .     S
Cu1043 O1058   1.969   .     S
Cu1043 O1055   1.972   .     S
Cu1043 N1054   2.017   .     S
Cu1043 O1062   1.946   .     S
Cu1043 Cu1044  2.684   .     S
Cu1043 O1059   1.962   .     S
Cu1044 O1061   1.946   .     S
Cu1044 O1056   1.972   .     S
Cu1044 N1053   2.017   .     S
Cu1044 O1057   1.969   .     S
Cu1044 O1060   1.962   .     S
H1051  N237    1.029   1_556 S
N1054  N237    1.289   1_556 S
N1054  H236    1.027   1_556 S
O1063  C1064   1.418   .     S
C1064  C1067   1.532   .     S
C1064  H1066   1.117   .     S
C1064  H1065   1.111   .     S
C1067  H1068   1.112   .     S
C1067  H1069   1.110   .     S
C1070  H1072   1.111   .     S
C1070  H1071   1.109   .     S
C1070  H1073   1.109   .     S
C1070  C251    1.525   1_556 S
O1074  C1075   1.421   .     S
C1075  H1076   1.109   .     S
C1075  H1077   1.108   .     S
C1075  C1078   1.544   .     S
C1078  H1080   1.111   .     S
C1078  H1079   1.108   .     S
C1081  H1084   1.111   .     S
C1081  C1214   1.527   .     S
H1082  C129    1.111   1_556 S
H1083  C265    1.111   1_556 S
O1085  H1086   0.991   .     S
O1085  C1161   1.384   .     S
H1088  O1223   0.989   .     S
C1089  O1125   1.288   .     A
C1089  C1093   1.431   .     S
C1089  O1123   1.287   .     A
C1090  O1126   1.288   .     A
C1090  O1124   1.289   .     A
C1090  C1094   1.442   .     S
C1091  C1108   1.405   .     A
C1091  H1117   1.081   .     S
C1091  C1177   1.391   1_455 S
C1092  C1107   1.405   .     A
C1092  H1118   1.080   .     S
C1092  C1178   1.392   .     S
C1094  C821    1.353   1_565 S
C1094  O883    1.390   1_565 S
C1095  C1100   1.443   .     S
C1095  O1127   1.292   .     A
C1095  O1129   1.290   .     A
C1096  C1099   1.445   .     S
C1096  O1128   1.294   .     A
C1096  O1130   1.289   .     A
C1097  C1099   1.410   .     A
C1097  O1131   1.387   .     S
C1097  C1107   1.405   .     A
C1098  C1108   1.404   .     A
C1098  C1100   1.411   .     A
C1098  O1142   1.388   .     S
C1099  C1101   1.394   .     A
C1100  C1102   1.394   .     A
C1101  H1113   1.086   .     S
C1101  C1103   1.389   .     A
C1102  H1114   1.086   .     S
C1102  C1104   1.390   .     A
C1103  C1105   1.410   .     A
C1103  C1109   1.398   .     A
C1104  C1106   1.409   .     A
C1104  C1110   1.396   .     A
C1105  C1107   1.415   .     A
C1105  C1174   1.405   .     S
C1106  C1108   1.413   .     A
C1106  C1173   1.405   1_455 S
C1109  H1115   1.083   .     S
C1109  C1159   1.391   .     S
C1110  H1116   1.081   .     S
C1110  C1160   1.392   1_455 S
Cu1111 O1126   1.969   .     S
Cu1111 O1123   1.972   .     S
Cu1111 N1122   2.017   .     S
Cu1111 O1130   1.946   .     S
Cu1111 Cu1112  2.684   .     S
Cu1111 O1127   1.962   .     S
Cu1112 O1129   1.946   .     S
Cu1112 O1124   1.972   .     S
Cu1112 N1121   2.017   .     S
Cu1112 O1125   1.969   .     S
Cu1112 O1128   1.962   .     S
H1119  N305    1.029   1_556 S
N1122  N305    1.289   1_556 S
N1122  H304    1.027   1_556 S
O1131  C1132   1.418   .     S
C1132  C1135   1.532   .     S
C1132  H1134   1.117   .     S
C1132  H1133   1.111   .     S
C1135  H1136   1.112   .     S
C1135  H1137   1.110   .     S
C1138  H1140   1.111   .     S
C1138  H1139   1.109   .     S
C1138  H1141   1.109   .     S
C1138  C319    1.525   1_556 S
O1142  C1143   1.421   .     S
C1143  H1144   1.109   .     S
C1143  H1145   1.108   .     S
C1143  C1146   1.544   .     S
C1146  H1148   1.111   .     S
C1146  H1147   1.108   .     S
C1149  H1152   1.111   .     S
C1149  C874    1.527   1_565 S
C1149  H470    1.111   1_565 S
H1150  C197    1.111   1_556 S
H1151  C333    1.111   1_556 S
O1153  H1154   0.991   .     S
O1153  C821    1.384   1_565 S
H1156  O883    0.989   1_565 S
C1157  O1193   1.288   .     A
C1157  C1161   1.431   .     S
C1157  O1191   1.287   .     A
C1158  O1194   1.288   .     A
C1158  O1192   1.289   .     A
C1158  C1162   1.442   .     S
C1159  C1176   1.405   .     A
C1159  H1185   1.081   .     S
C1160  C1175   1.405   .     A
C1160  H1186   1.080   .     S
C1160  C1110   1.392   1_655 S
C1162  C889    1.353   1_565 S
C1162  O951    1.390   1_565 S
C1163  C1168   1.443   .     S
C1163  O1195   1.292   .     A
C1163  O1197   1.290   .     A
C1164  C1167   1.445   .     S
C1164  O1196   1.294   .     A
C1164  O1198   1.289   .     A
C1165  C1167   1.410   .     A
C1165  O1199   1.387   .     S
C1165  C1175   1.405   .     A
C1166  C1176   1.404   .     A
C1166  C1168   1.411   .     A
C1166  O1210   1.388   .     S
C1167  C1169   1.394   .     A
C1168  C1170   1.394   .     A
C1169  H1181   1.086   .     S
C1169  C1171   1.389   .     A
C1170  H1182   1.086   .     S
C1170  C1172   1.390   .     A
C1171  C1173   1.410   .     A
C1171  C1177   1.398   .     A
C1172  C1174   1.409   .     A
C1172  C1178   1.396   .     A
C1173  C1175   1.415   .     A
C1173  C1106   1.405   1_655 S
C1174  C1176   1.413   .     A
C1177  H1183   1.083   .     S
C1177  C1091   1.391   1_655 S
C1178  H1184   1.081   .     S
Cu1179 O1194   1.969   .     S
Cu1179 O1191   1.972   .     S
Cu1179 N1190   2.017   .     S
Cu1179 O1198   1.946   .     S
Cu1179 Cu1180  2.684   .     S
Cu1179 O1195   1.962   .     S
Cu1180 O1197   1.946   .     S
Cu1180 O1192   1.972   .     S
Cu1180 N1189   2.017   .     S
Cu1180 O1193   1.969   .     S
Cu1180 O1196   1.962   .     S
H1187  N373    1.029   1_556 S
N1190  N373    1.289   1_556 S
N1190  H372    1.027   1_556 S
O1199  C1200   1.418   .     S
C1200  C1203   1.532   .     S
C1200  H1202   1.117   .     S
C1200  H1201   1.111   .     S
C1203  H1204   1.112   .     S
C1203  H1205   1.110   .     S
C1206  H1208   1.111   .     S
C1206  H1207   1.109   .     S
C1206  H1209   1.109   .     S
C1206  C387    1.525   1_556 S
O1210  C1211   1.421   .     S
C1211  H1212   1.109   .     S
C1211  H1213   1.108   .     S
C1211  C1214   1.544   .     S
C1214  H1216   1.111   .     S
C1214  H1215   1.108   .     S
C1217  H1220   1.111   .     S
C1217  C942    1.527   1_565 S
C1217  H538    1.111   1_565 S
H1218  C265    1.111   1_556 S
H1219  C401    1.111   1_556 S
O1221  H1222   0.991   .     S
O1221  C889    1.384   1_565 S
H1224  O951    0.989   1_565 S
